untitled-dbase-474840_6
  -OEChem-02092408543D

 32 33  0     1  0  0  0  0  0999 V2000
    6.4709   12.8945   25.3654 C   0  0  0  0  0  0  0  0  0  0  0  0
    9.1448   11.2230   25.2258 C   0  0  0  0  0  0  0  0  0  0  0  0
    7.0322   11.9446   24.3464 C   0  0  1  0  0  0  0  0  0  0  0  0
    8.5526   12.1662   24.1696 C   0  0  2  0  0  0  0  0  0  0  0  0
    8.4201    9.9940   24.6708 C   0  0  1  0  0  0  0  0  0  0  0  0
    6.9371   10.4401   24.7183 C   0  0  1  0  0  0  0  0  0  0  0  0
    8.9846   11.4858   22.8523 C   0  0  2  0  0  0  0  0  0  0  0  0
    8.9024    9.9851   23.2007 C   0  0  1  0  0  0  0  0  0  0  0  0
    5.5349   12.8730   28.3634 C   0  0  0  0  0  0  0  0  0  0  0  0
    6.6659   13.5569   27.6253 C   0  0  0  0  0  0  0  0  0  0  0  0
    6.3307   10.1757   26.0204 N   0  0  0  0  0  0  0  0  0  0  0  0
    5.5803   13.7007   25.1332 O   0  0  0  0  0  0  0  0  0  0  0  0
   10.3019   11.8949   22.5191 O   0  0  0  0  0  0  0  0  0  0  0  0
   10.1621    9.3369   23.1187 O   0  0  0  0  0  0  0  0  0  0  0  0
    7.1052   12.7105   26.5582 O   0  0  0  0  0  0  0  0  0  0  0  0
   10.2356   11.1442   25.1684 H   0  0  0  0  0  0  0  0  0  0  0  0
    8.8633   11.4799   26.2510 H   0  0  0  0  0  0  0  0  0  0  0  0
    6.4862   12.1399   23.4154 H   0  0  0  0  0  0  0  0  0  0  0  0
    8.8877   13.2018   24.2706 H   0  0  0  0  0  0  0  0  0  0  0  0
    8.6400    9.0658   25.2053 H   0  0  0  0  0  0  0  0  0  0  0  0
    6.3528    9.9040   23.9614 H   0  0  0  0  0  0  0  0  0  0  0  0
    8.3177   11.7543   22.0261 H   0  0  0  0  0  0  0  0  0  0  0  0
    8.1941    9.4534   22.5566 H   0  0  0  0  0  0  0  0  0  0  0  0
    4.6895   12.6864   27.6954 H   0  0  0  0  0  0  0  0  0  0  0  0
    5.8698   11.9195   28.7848 H   0  0  0  0  0  0  0  0  0  0  0  0
    5.1933   13.4890   29.2020 H   0  0  0  0  0  0  0  0  0  0  0  0
    7.5082   13.7406   28.2990 H   0  0  0  0  0  0  0  0  0  0  0  0
    6.3294   14.5090   27.2043 H   0  0  0  0  0  0  0  0  0  0  0  0
    7.0096    9.7362   26.5957 H   0  0  0  0  0  0  0  0  0  0  0  0
    6.0470   11.0424   26.4120 H   0  0  0  0  0  0  0  0  0  0  0  0
   10.2802   12.8608   22.4167 H   0  0  0  0  0  0  0  0  0  0  0  0
   10.0350    8.4304   23.4442 H   0  0  0  0  0  0  0  0  0  0  0  0
  1  3  1  1  0  0  0
  1 12  2  0  0  0  0
  1 15  1  0  0  0  0
  2  4  1  1  0  0  0
  2  5  1  1  0  0  0
  3  4  1  0  0  0  0
  3  6  1  0  0  0  0
  4  7  1  0  0  0  0
  5  6  1  0  0  0  0
  5  8  1  0  0  0  0
  6 11  1  1  0  0  0
  7  8  1  0  0  0  0
  7 13  1  1  0  0  0
  8 14  1  1  0  0  0
  9 10  1  0  0  0  0
 10 15  1  0  0  0  0
  2 16  1  0  0  0  0
  2 17  1  0  0  0  0
  3 18  1  0  0  0  0
  4 19  1  0  0  0  0
  5 20  1  0  0  0  0
  6 21  1  0  0  0  0
  7 22  1  0  0  0  0
  8 23  1  0  0  0  0
  9 24  1  0  0  0  0
  9 25  1  0  0  0  0
  9 26  1  0  0  0  0
 10 27  1  0  0  0  0
 10 28  1  0  0  0  0
 11 29  1  0  0  0  0
 11 30  1  0  0  0  0
 13 31  1  0  0  0  0
 14 32  1  0  0  0  0
M  END
> <id>
EN300-27730073

> <smiles>
CCOC(=O)[C@@H]1[C@H](N)[C@@H]2C[C@H]1[C@@H](O)[C@H]2O |&1:5,6,8,10,11,13,r|

> <IUPAC Name>
rac-ethyl (1R,2S,3R,4S,5S,6R)-3-amino-5,6-dihydroxybicyclo[2.2.1]heptane-2-carboxylate

> <CAS>
2580102-58-3

> <URL>
https://www.enaminestore.com/catalog/EN300-27730073

> <ROCS_ShapeQuery>
x0812_0A_x1140_0A_x1097_0A_x0365_0A_x1097_0A_x0310_0A

> <ROCS_TanimotoCombo>
0.781 

> <ROCS_ShapeTanimoto>
0.249 

> <ROCS_ColorTanimoto>
0.532 

> <ROCS_RefTversky>
0.222 

> <ROCS_RefColorTversky>
0.656 

> <ROCS_RefTverskyCombo>
0.879 

> <ROCS_FitTversky>
1.944 

> <ROCS_FitColorTversky>
0.737 

> <ROCS_FitTverskyCombo>
2.681 

> <ROCS_ColorScore>
-9.875

> <ROCS_Overlap>
2249.140

> <ROCS_Rank>
1                   

$$$$
untitled-dbase-369577_1
  -OEChem-02092408543D

 29 30  0     1  0  0  0  0  0999 V2000
    6.4721   12.8949   25.3675 C   0  0  0  0  0  0  0  0  0  0  0  0
    9.1452   11.2224   25.2265 C   0  0  0  0  0  0  0  0  0  0  0  0
    7.0328   11.9453   24.3479 C   0  0  1  0  0  0  0  0  0  0  0  0
    8.5532   12.1664   24.1709 C   0  0  2  0  0  0  0  0  0  0  0  0
    8.4200    9.9940   24.6710 C   0  0  1  0  0  0  0  0  0  0  0  0
    6.9371   10.4407   24.7191 C   0  0  1  0  0  0  0  0  0  0  0  0
    8.9846   11.4864   22.8531 C   0  0  2  0  0  0  0  0  0  0  0  0
    8.9019    9.9855   23.2008 C   0  0  1  0  0  0  0  0  0  0  0  0
    6.6679   13.5562   27.6276 C   0  0  0  0  0  0  0  0  0  0  0  0
    6.3309   10.1758   26.0212 N   0  0  0  0  0  0  0  0  0  0  0  0
    5.5817   13.7016   25.1359 O   0  0  0  0  0  0  0  0  0  0  0  0
   10.3020   11.8951   22.5199 O   0  0  0  0  0  0  0  0  0  0  0  0
   10.1613    9.3369   23.1182 O   0  0  0  0  0  0  0  0  0  0  0  0
    7.1066   12.7101   26.5600 O   0  0  0  0  0  0  0  0  0  0  0  0
   10.2360   11.1432   25.1688 H   0  0  0  0  0  0  0  0  0  0  0  0
    8.8641   11.4790   26.2519 H   0  0  0  0  0  0  0  0  0  0  0  0
    6.4867   12.1413   23.4171 H   0  0  0  0  0  0  0  0  0  0  0  0
    8.8887   13.2018   24.2722 H   0  0  0  0  0  0  0  0  0  0  0  0
    8.6396    9.0654   25.2051 H   0  0  0  0  0  0  0  0  0  0  0  0
    6.3524    9.9051   23.9621 H   0  0  0  0  0  0  0  0  0  0  0  0
    8.3176   11.7556   22.0272 H   0  0  0  0  0  0  0  0  0  0  0  0
    8.1932    9.4544   22.5567 H   0  0  0  0  0  0  0  0  0  0  0  0
    7.2370   13.3277   28.5320 H   0  0  0  0  0  0  0  0  0  0  0  0
    5.6014   13.3967   27.8054 H   0  0  0  0  0  0  0  0  0  0  0  0
    6.8366   14.5986   27.3473 H   0  0  0  0  0  0  0  0  0  0  0  0
    7.0097    9.7358   26.5961 H   0  0  0  0  0  0  0  0  0  0  0  0
    6.0477   11.0425   26.4133 H   0  0  0  0  0  0  0  0  0  0  0  0
   10.2807   12.8610   22.4179 H   0  0  0  0  0  0  0  0  0  0  0  0
   10.0339    8.4303   23.4433 H   0  0  0  0  0  0  0  0  0  0  0  0
  1  3  1  1  0  0  0
  1 11  2  0  0  0  0
  1 14  1  0  0  0  0
  2  4  1  1  0  0  0
  2  5  1  1  0  0  0
  3  4  1  0  0  0  0
  3  6  1  0  0  0  0
  4  7  1  0  0  0  0
  5  6  1  0  0  0  0
  5  8  1  0  0  0  0
  6 10  1  1  0  0  0
  7  8  1  0  0  0  0
  7 12  1  1  0  0  0
  8 13  1  1  0  0  0
  9 14  1  0  0  0  0
  2 15  1  0  0  0  0
  2 16  1  0  0  0  0
  3 17  1  0  0  0  0
  4 18  1  0  0  0  0
  5 19  1  0  0  0  0
  6 20  1  0  0  0  0
  7 21  1  0  0  0  0
  8 22  1  0  0  0  0
  9 23  1  0  0  0  0
  9 24  1  0  0  0  0
  9 25  1  0  0  0  0
 10 26  1  0  0  0  0
 10 27  1  0  0  0  0
 12 28  1  0  0  0  0
 13 29  1  0  0  0  0
M  END
> <id>
EN300-26978992

> <smiles>
COC(=O)[C@@H]1[C@H](N)[C@@H]2C[C@H]1[C@@H](O)[C@H]2O |&1:4,5,7,9,10,12,r|

> <IUPAC Name>
rac-methyl (1R,2S,3R,4S,5S,6R)-3-amino-5,6-dihydroxybicyclo[2.2.1]heptane-2-carboxylate

> <CAS>
2445750-69-4

> <URL>
https://www.enaminestore.com/catalog/EN300-26978992

> <ROCS_ShapeQuery>
x0812_0A_x1140_0A_x1097_0A_x0365_0A_x1097_0A_x0310_0A

> <ROCS_TanimotoCombo>
0.779 

> <ROCS_ShapeTanimoto>
0.247 

> <ROCS_ColorTanimoto>
0.532 

> <ROCS_RefTversky>
0.220 

> <ROCS_RefColorTversky>
0.656 

> <ROCS_RefTverskyCombo>
0.876 

> <ROCS_FitTversky>
1.986 

> <ROCS_FitColorTversky>
0.737 

> <ROCS_FitTverskyCombo>
2.723 

> <ROCS_ColorScore>
-9.875

> <ROCS_Overlap>
2226.428

> <ROCS_Rank>
2                   

$$$$
untitled-dbase-397947_1
  -OEChem-02092408543D

 29 30  0     1  0  0  0  0  0999 V2000
    6.4721   12.8949   25.3675 C   0  0  0  0  0  0  0  0  0  0  0  0
    9.1452   11.2224   25.2265 C   0  0  0  0  0  0  0  0  0  0  0  0
    7.0328   11.9453   24.3479 C   0  0  1  0  0  0  0  0  0  0  0  0
    8.5532   12.1664   24.1709 C   0  0  2  0  0  0  0  0  0  0  0  0
    8.4200    9.9940   24.6710 C   0  0  1  0  0  0  0  0  0  0  0  0
    6.9371   10.4407   24.7191 C   0  0  1  0  0  0  0  0  0  0  0  0
    8.9846   11.4864   22.8531 C   0  0  2  0  0  0  0  0  0  0  0  0
    8.9019    9.9855   23.2008 C   0  0  1  0  0  0  0  0  0  0  0  0
    6.6679   13.5562   27.6276 C   0  0  0  0  0  0  0  0  0  0  0  0
    6.3309   10.1758   26.0212 N   0  0  0  0  0  0  0  0  0  0  0  0
    5.5817   13.7016   25.1359 O   0  0  0  0  0  0  0  0  0  0  0  0
   10.3020   11.8951   22.5199 O   0  0  0  0  0  0  0  0  0  0  0  0
   10.1613    9.3369   23.1182 O   0  0  0  0  0  0  0  0  0  0  0  0
    7.1066   12.7101   26.5600 O   0  0  0  0  0  0  0  0  0  0  0  0
   10.2360   11.1432   25.1688 H   0  0  0  0  0  0  0  0  0  0  0  0
    8.8641   11.4790   26.2519 H   0  0  0  0  0  0  0  0  0  0  0  0
    6.4867   12.1413   23.4171 H   0  0  0  0  0  0  0  0  0  0  0  0
    8.8887   13.2018   24.2722 H   0  0  0  0  0  0  0  0  0  0  0  0
    8.6396    9.0654   25.2051 H   0  0  0  0  0  0  0  0  0  0  0  0
    6.3524    9.9051   23.9621 H   0  0  0  0  0  0  0  0  0  0  0  0
    8.3176   11.7556   22.0272 H   0  0  0  0  0  0  0  0  0  0  0  0
    8.1932    9.4544   22.5567 H   0  0  0  0  0  0  0  0  0  0  0  0
    7.2370   13.3277   28.5320 H   0  0  0  0  0  0  0  0  0  0  0  0
    5.6014   13.3967   27.8054 H   0  0  0  0  0  0  0  0  0  0  0  0
    6.8366   14.5986   27.3473 H   0  0  0  0  0  0  0  0  0  0  0  0
    7.0097    9.7358   26.5961 H   0  0  0  0  0  0  0  0  0  0  0  0
    6.0477   11.0425   26.4133 H   0  0  0  0  0  0  0  0  0  0  0  0
   10.2807   12.8610   22.4179 H   0  0  0  0  0  0  0  0  0  0  0  0
   10.0339    8.4303   23.4433 H   0  0  0  0  0  0  0  0  0  0  0  0
  1  3  1  1  0  0  0
  1 11  2  0  0  0  0
  1 14  1  0  0  0  0
  2  4  1  1  0  0  0
  2  5  1  1  0  0  0
  3  4  1  0  0  0  0
  3  6  1  0  0  0  0
  4  7  1  0  0  0  0
  5  6  1  0  0  0  0
  5  8  1  0  0  0  0
  6 10  1  1  0  0  0
  7  8  1  0  0  0  0
  7 12  1  1  0  0  0
  8 13  1  1  0  0  0
  9 14  1  0  0  0  0
  2 15  1  0  0  0  0
  2 16  1  0  0  0  0
  3 17  1  0  0  0  0
  4 18  1  0  0  0  0
  5 19  1  0  0  0  0
  6 20  1  0  0  0  0
  7 21  1  0  0  0  0
  8 22  1  0  0  0  0
  9 23  1  0  0  0  0
  9 24  1  0  0  0  0
  9 25  1  0  0  0  0
 10 26  1  0  0  0  0
 10 27  1  0  0  0  0
 12 28  1  0  0  0  0
 13 29  1  0  0  0  0
M  END
> <id>
EN300-26978991

> <smiles>
Cl.COC(=O)[C@@H]1[C@H](N)[C@@H]2C[C@H]1[C@@H](O)[C@H]2O |&1:5,6,8,10,11,13,r|

> <IUPAC Name>
rac-methyl (1R,2S,3R,4S,5S,6R)-3-amino-5,6-dihydroxybicyclo[2.2.1]heptane-2-carboxylate hydrochloride

> <CAS>
2445750-70-7

> <Purity>
95

> <URL>
https://www.enaminestore.com/catalog/EN300-26978991

> <Saltdate>
Cl

> <ROCS_ShapeQuery>
x0812_0A_x1140_0A_x1097_0A_x0365_0A_x1097_0A_x0310_0A

> <ROCS_TanimotoCombo>
0.779 

> <ROCS_ShapeTanimoto>
0.247 

> <ROCS_ColorTanimoto>
0.532 

> <ROCS_RefTversky>
0.220 

> <ROCS_RefColorTversky>
0.656 

> <ROCS_RefTverskyCombo>
0.876 

> <ROCS_FitTversky>
1.986 

> <ROCS_FitColorTversky>
0.737 

> <ROCS_FitTverskyCombo>
2.723 

> <ROCS_ColorScore>
-9.875

> <ROCS_Overlap>
2226.428

> <ROCS_Rank>
3                   

$$$$
untitled-dbase-299136_9
  -OEChem-02092408543D

 29 30  0     1  0  0  0  0  0999 V2000
   10.0431   11.9324   22.4289 C   0  0  0  0  0  0  0  0  0  0  0  0
    9.3778   12.0848   24.8781 C   0  0  0  0  0  0  0  0  0  0  0  0
    8.1182   11.6518   25.6470 C   0  0  0  0  0  0  0  0  0  0  0  0
    7.6932   11.5182   23.2937 C   0  0  0  0  0  0  0  0  0  0  0  0
    9.2990    9.8779   23.7301 C   0  0  0  0  0  0  0  0  0  0  0  0
    9.1920   11.3868   23.5228 C   0  0  1  0  0  0  0  0  0  0  0  0
    7.3767   10.8037   24.5983 C   0  0  2  0  0  0  0  0  0  0  0  0
   11.6786   13.5725   21.9605 C   0  0  0  0  0  0  0  0  0  0  0  0
    5.9170   10.5596   24.8925 C   0  0  0  0  0  0  0  0  0  0  0  0
   10.0378   11.5096   21.2808 O   0  0  0  0  0  0  0  0  0  0  0  0
    5.6314   11.4872   27.3277 O   0  0  0  0  0  0  0  0  0  0  0  0
    6.4962    9.1275   27.0106 O   0  0  0  0  0  0  0  0  0  0  0  0
    8.0987    9.5529   24.4717 O   0  0  0  0  0  0  0  0  0  0  0  0
   10.8070   12.9533   22.9119 O   0  0  0  0  0  0  0  0  0  0  0  0
    5.6453   10.2298   26.6046 S   0  0  0  0  0  0  0  0  0  0  0  0
    3.7347    9.5080   26.7659 Cl  0  0  0  0  0  0  0  0  0  0  0  0
    9.4097   13.1756   24.7718 H   0  0  0  0  0  0  0  0  0  0  0  0
   10.2953   11.7729   25.3891 H   0  0  0  0  0  0  0  0  0  0  0  0
    8.3849   11.0683   26.5343 H   0  0  0  0  0  0  0  0  0  0  0  0
    7.5396   12.5298   25.9540 H   0  0  0  0  0  0  0  0  0  0  0  0
    7.3344   12.5522   23.2505 H   0  0  0  0  0  0  0  0  0  0  0  0
    7.3559   10.9751   22.4033 H   0  0  0  0  0  0  0  0  0  0  0  0
    9.2863    9.3167   22.7895 H   0  0  0  0  0  0  0  0  0  0  0  0
   10.1768    9.5760   24.3099 H   0  0  0  0  0  0  0  0  0  0  0  0
   12.2415   14.3724   22.4475 H   0  0  0  0  0  0  0  0  0  0  0  0
   11.0887   13.9781   21.1347 H   0  0  0  0  0  0  0  0  0  0  0  0
   12.3740   12.8231   21.5752 H   0  0  0  0  0  0  0  0  0  0  0  0
    5.5415    9.6946   24.3364 H   0  0  0  0  0  0  0  0  0  0  0  0
    5.3107   11.4337   24.6345 H   0  0  0  0  0  0  0  0  0  0  0  0
  1  6  1  0  0  0  0
  1 10  2  0  0  0  0
  1 14  1  0  0  0  0
  2  3  1  0  0  0  0
  2  6  1  0  0  0  0
  3  7  1  0  0  0  0
  4  6  1  0  0  0  0
  4  7  1  0  0  0  0
  5  6  1  0  0  0  0
  5 13  1  0  0  0  0
  7  9  1  0  0  0  0
  7 13  1  0  0  0  0
  8 14  1  0  0  0  0
  9 15  1  0  0  0  0
 11 15  2  0  0  0  0
 12 15  2  0  0  0  0
 15 16  1  0  0  0  0
  2 17  1  0  0  0  0
  2 18  1  0  0  0  0
  3 19  1  0  0  0  0
  3 20  1  0  0  0  0
  4 21  1  0  0  0  0
  4 22  1  0  0  0  0
  5 23  1  0  0  0  0
  5 24  1  0  0  0  0
  8 25  1  0  0  0  0
  8 26  1  0  0  0  0
  8 27  1  0  0  0  0
  9 28  1  0  0  0  0
  9 29  1  0  0  0  0
M  END
> <id>
EN300-6733884

> <smiles>
COC(=O)C1(CCC2(CS(=O)(=O)Cl)C1)CO2

> <MDLNUMBER>
MFCD31736961

> <IUPAC Name>
methyl 1-[(chlorosulfonyl)methyl]-2-oxabicyclo[2.2.1]heptane-4-carboxylate

> <CAS>
2260931-53-9

> <Purity>
95

> <URL>
https://www.enaminestore.com/catalog/EN300-6733884

> <ROCS_ShapeQuery>
x0812_0A_x1140_0A_x1097_0A_x0365_0A_x1097_0A_x0310_0A

> <ROCS_TanimotoCombo>
0.769 

> <ROCS_ShapeTanimoto>
0.250 

> <ROCS_ColorTanimoto>
0.519 

> <ROCS_RefTversky>
0.223 

> <ROCS_RefColorTversky>
0.543 

> <ROCS_RefTverskyCombo>
0.766 

> <ROCS_FitTversky>
1.904 

> <ROCS_FitColorTversky>
0.922 

> <ROCS_FitTverskyCombo>
2.825 

> <ROCS_ColorScore>
-8.038

> <ROCS_Overlap>
2257.308

> <ROCS_Rank>
4                   

$$$$
untitled-dbase-469450_6
  -OEChem-02092408543D

 26 27  0     0  0  0  0  0  0999 V2000
    9.8842   11.8744   22.3105 C   0  0  0  0  0  0  0  0  0  0  0  0
    9.2237   11.7307   24.9068 C   0  0  0  0  0  0  0  0  0  0  0  0
    7.5632   11.6758   23.6411 C   0  0  0  0  0  0  0  0  0  0  0  0
    9.0284    9.7089   23.5274 C   0  0  0  0  0  0  0  0  0  0  0  0
    9.0587   11.2488   23.4208 C   0  0  0  0  0  0  0  0  0  0  0  0
    7.8662   10.9348   24.9991 C   0  0  0  0  0  0  0  0  0  0  0  0
   11.6290   13.5851   21.8506 C   0  0  0  0  0  0  0  0  0  0  0  0
    6.9590   11.0751   26.1834 C   0  0  0  0  0  0  0  0  0  0  0  0
    5.7899   10.2586   26.0309 N   0  0  0  0  0  0  0  0  0  0  0  0
   10.7502   12.8613   22.7410 N   0  0  0  0  0  0  0  0  0  0  0  0
    9.7405   11.4844   21.1577 O   0  0  0  0  0  0  0  0  0  0  0  0
    8.1655    9.5513   24.6664 O   0  0  0  0  0  0  0  0  0  0  0  0
   10.0638   11.3034   25.4624 H   0  0  0  0  0  0  0  0  0  0  0  0
    9.1833   12.8108   25.0865 H   0  0  0  0  0  0  0  0  0  0  0  0
    7.3559   12.7506   23.6942 H   0  0  0  0  0  0  0  0  0  0  0  0
    6.8236   11.1964   22.9931 H   0  0  0  0  0  0  0  0  0  0  0  0
    8.5764    9.2337   22.6522 H   0  0  0  0  0  0  0  0  0  0  0  0
   10.0111    9.2805   23.7440 H   0  0  0  0  0  0  0  0  0  0  0  0
   12.5904   13.0562   21.7735 H   0  0  0  0  0  0  0  0  0  0  0  0
   11.1670   13.6527   20.8546 H   0  0  0  0  0  0  0  0  0  0  0  0
   11.7983   14.5976   22.2457 H   0  0  0  0  0  0  0  0  0  0  0  0
    7.5052   10.7647   27.0833 H   0  0  0  0  0  0  0  0  0  0  0  0
    6.6593   12.1271   26.2739 H   0  0  0  0  0  0  0  0  0  0  0  0
    4.9718   10.8352   26.0472 H   0  0  0  0  0  0  0  0  0  0  0  0
    5.8327    9.7696   25.1584 H   0  0  0  0  0  0  0  0  0  0  0  0
   10.7701   13.0891   23.7305 H   0  0  0  0  0  0  0  0  0  0  0  0
  1  5  1  1  0  0  0
  1 10  1  0  0  0  0
  1 11  2  0  0  0  0
  2  5  1  0  0  0  0
  2  6  1  0  0  0  0
  3  5  1  0  0  0  0
  3  6  1  0  0  0  0
  4  5  1  0  0  0  0
  4 12  1  0  0  0  0
  6  8  1  1  0  0  0
  6 12  1  0  0  0  0
  7 10  1  0  0  0  0
  8  9  1  0  0  0  0
  2 13  1  0  0  0  0
  2 14  1  0  0  0  0
  3 15  1  0  0  0  0
  3 16  1  0  0  0  0
  4 17  1  0  0  0  0
  4 18  1  0  0  0  0
  7 19  1  0  0  0  0
  7 20  1  0  0  0  0
  7 21  1  0  0  0  0
  8 22  1  0  0  0  0
  8 23  1  0  0  0  0
  9 24  1  0  0  0  0
  9 25  1  0  0  0  0
 10 26  1  0  0  0  0
M  END
> <id>
EN300-39870310

> <smiles>
CNC(=O)[C@]1(C[C@@]2(CN)C1)CO2

> <IUPAC Name>
1-(aminomethyl)-N-methyl-2-oxabicyclo[2.1.1]hexane-4-carboxamide

> <URL>
https://www.enaminestore.com/catalog/EN300-39870310

> <ROCS_ShapeQuery>
x0812_0A_x1140_0A_x1097_0A_x0365_0A_x1097_0A_x0310_0A

> <ROCS_TanimotoCombo>
0.765 

> <ROCS_ShapeTanimoto>
0.224 

> <ROCS_ColorTanimoto>
0.541 

> <ROCS_RefTversky>
0.202 

> <ROCS_RefColorTversky>
0.631 

> <ROCS_RefTverskyCombo>
0.833 

> <ROCS_FitTversky>
1.982 

> <ROCS_FitColorTversky>
0.791 

> <ROCS_FitTverskyCombo>
2.773 

> <ROCS_ColorScore>
-9.449

> <ROCS_Overlap>
2040.972

> <ROCS_Rank>
5                   

$$$$
untitled-dbase-568333_6
  -OEChem-02092408543D

 26 27  0     0  0  0  0  0  0999 V2000
    9.8842   11.8744   22.3105 C   0  0  0  0  0  0  0  0  0  0  0  0
    9.2237   11.7307   24.9068 C   0  0  0  0  0  0  0  0  0  0  0  0
    7.5632   11.6758   23.6411 C   0  0  0  0  0  0  0  0  0  0  0  0
    9.0284    9.7089   23.5274 C   0  0  0  0  0  0  0  0  0  0  0  0
    9.0587   11.2488   23.4208 C   0  0  0  0  0  0  0  0  0  0  0  0
    7.8662   10.9348   24.9991 C   0  0  0  0  0  0  0  0  0  0  0  0
   11.6290   13.5851   21.8506 C   0  0  0  0  0  0  0  0  0  0  0  0
    6.9590   11.0751   26.1834 C   0  0  0  0  0  0  0  0  0  0  0  0
    5.7899   10.2586   26.0309 N   0  0  0  0  0  0  0  0  0  0  0  0
   10.7502   12.8613   22.7410 N   0  0  0  0  0  0  0  0  0  0  0  0
    9.7405   11.4844   21.1577 O   0  0  0  0  0  0  0  0  0  0  0  0
    8.1655    9.5513   24.6664 O   0  0  0  0  0  0  0  0  0  0  0  0
   10.0638   11.3034   25.4624 H   0  0  0  0  0  0  0  0  0  0  0  0
    9.1833   12.8108   25.0865 H   0  0  0  0  0  0  0  0  0  0  0  0
    7.3559   12.7506   23.6942 H   0  0  0  0  0  0  0  0  0  0  0  0
    6.8236   11.1964   22.9931 H   0  0  0  0  0  0  0  0  0  0  0  0
    8.5764    9.2337   22.6522 H   0  0  0  0  0  0  0  0  0  0  0  0
   10.0111    9.2805   23.7440 H   0  0  0  0  0  0  0  0  0  0  0  0
   12.5904   13.0562   21.7735 H   0  0  0  0  0  0  0  0  0  0  0  0
   11.1670   13.6527   20.8546 H   0  0  0  0  0  0  0  0  0  0  0  0
   11.7983   14.5976   22.2457 H   0  0  0  0  0  0  0  0  0  0  0  0
    7.5052   10.7647   27.0833 H   0  0  0  0  0  0  0  0  0  0  0  0
    6.6593   12.1271   26.2739 H   0  0  0  0  0  0  0  0  0  0  0  0
    4.9718   10.8352   26.0472 H   0  0  0  0  0  0  0  0  0  0  0  0
    5.8327    9.7696   25.1584 H   0  0  0  0  0  0  0  0  0  0  0  0
   10.7701   13.0891   23.7305 H   0  0  0  0  0  0  0  0  0  0  0  0
  1  5  1  1  0  0  0
  1 10  1  0  0  0  0
  1 11  2  0  0  0  0
  2  5  1  0  0  0  0
  2  6  1  0  0  0  0
  3  5  1  0  0  0  0
  3  6  1  0  0  0  0
  4  5  1  0  0  0  0
  4 12  1  0  0  0  0
  6  8  1  1  0  0  0
  6 12  1  0  0  0  0
  7 10  1  0  0  0  0
  8  9  1  0  0  0  0
  2 13  1  0  0  0  0
  2 14  1  0  0  0  0
  3 15  1  0  0  0  0
  3 16  1  0  0  0  0
  4 17  1  0  0  0  0
  4 18  1  0  0  0  0
  7 19  1  0  0  0  0
  7 20  1  0  0  0  0
  7 21  1  0  0  0  0
  8 22  1  0  0  0  0
  8 23  1  0  0  0  0
  9 24  1  0  0  0  0
  9 25  1  0  0  0  0
 10 26  1  0  0  0  0
M  END
> <id>
EN300-37375497

> <smiles>
Cl.CNC(=O)[C@]1(C[C@@]2(CN)C1)CO2

> <IUPAC Name>
1-(aminomethyl)-N-methyl-2-oxabicyclo[2.1.1]hexane-4-carboxamide hydrochloride

> <CAS>
2703780-39-4

> <URL>
https://www.enaminestore.com/catalog/EN300-37375497

> <ROCS_ShapeQuery>
x0812_0A_x1140_0A_x1097_0A_x0365_0A_x1097_0A_x0310_0A

> <ROCS_TanimotoCombo>
0.765 

> <ROCS_ShapeTanimoto>
0.224 

> <ROCS_ColorTanimoto>
0.541 

> <ROCS_RefTversky>
0.202 

> <ROCS_RefColorTversky>
0.631 

> <ROCS_RefTverskyCombo>
0.833 

> <ROCS_FitTversky>
1.982 

> <ROCS_FitColorTversky>
0.791 

> <ROCS_FitTverskyCombo>
2.773 

> <ROCS_ColorScore>
-9.449

> <ROCS_Overlap>
2040.972

> <ROCS_Rank>
6                   

$$$$
untitled-dbase-520553_6
  -OEChem-02092408543D

 26 27  0     0  0  0  0  0  0999 V2000
    9.8838   11.8745   22.3106 C   0  0  0  0  0  0  0  0  0  0  0  0
    9.2233   11.7310   24.9069 C   0  0  0  0  0  0  0  0  0  0  0  0
    7.5629   11.6754   23.6412 C   0  0  0  0  0  0  0  0  0  0  0  0
    9.0283    9.7089   23.5280 C   0  0  0  0  0  0  0  0  0  0  0  0
    9.0584   11.2488   23.4211 C   0  0  0  0  0  0  0  0  0  0  0  0
    7.8660   10.9349   24.9994 C   0  0  0  0  0  0  0  0  0  0  0  0
   11.6279   13.5858   21.8504 C   0  0  0  0  0  0  0  0  0  0  0  0
    6.9585   11.0749   26.1835 C   0  0  0  0  0  0  0  0  0  0  0  0
    5.7897   10.2581   26.0308 N   0  0  0  0  0  0  0  0  0  0  0  0
   10.7494   12.8619   22.7409 N   0  0  0  0  0  0  0  0  0  0  0  0
    9.7403   11.4842   21.1578 O   0  0  0  0  0  0  0  0  0  0  0  0
    8.1656    9.5515   24.6672 O   0  0  0  0  0  0  0  0  0  0  0  0
   10.0631   11.3037   25.4631 H   0  0  0  0  0  0  0  0  0  0  0  0
    9.1816   12.8111   25.0869 H   0  0  0  0  0  0  0  0  0  0  0  0
    7.3549   12.7499   23.6947 H   0  0  0  0  0  0  0  0  0  0  0  0
    6.8232   11.1957   22.9936 H   0  0  0  0  0  0  0  0  0  0  0  0
    8.5768    9.2332   22.6528 H   0  0  0  0  0  0  0  0  0  0  0  0
   10.0113    9.2812   23.7452 H   0  0  0  0  0  0  0  0  0  0  0  0
   12.5895   13.0573   21.7734 H   0  0  0  0  0  0  0  0  0  0  0  0
   11.1659   13.6531   20.8544 H   0  0  0  0  0  0  0  0  0  0  0  0
   11.7968   14.5985   22.2453 H   0  0  0  0  0  0  0  0  0  0  0  0
    7.5047   10.7648   27.0836 H   0  0  0  0  0  0  0  0  0  0  0  0
    6.6585   12.1268   26.2740 H   0  0  0  0  0  0  0  0  0  0  0  0
    4.9714   10.8345   26.0470 H   0  0  0  0  0  0  0  0  0  0  0  0
    5.8327    9.7691   25.1584 H   0  0  0  0  0  0  0  0  0  0  0  0
   10.7692   13.0898   23.7304 H   0  0  0  0  0  0  0  0  0  0  0  0
  1  5  1  0  0  0  0
  1 10  1  0  0  0  0
  1 11  2  0  0  0  0
  2  5  1  0  0  0  0
  2  6  1  0  0  0  0
  3  5  1  0  0  0  0
  3  6  1  0  0  0  0
  4  5  1  0  0  0  0
  4 12  1  0  0  0  0
  6  8  1  0  0  0  0
  6 12  1  0  0  0  0
  7 10  1  0  0  0  0
  8  9  1  0  0  0  0
  2 13  1  0  0  0  0
  2 14  1  0  0  0  0
  3 15  1  0  0  0  0
  3 16  1  0  0  0  0
  4 17  1  0  0  0  0
  4 18  1  0  0  0  0
  7 19  1  0  0  0  0
  7 20  1  0  0  0  0
  7 21  1  0  0  0  0
  8 22  1  0  0  0  0
  8 23  1  0  0  0  0
  9 24  1  0  0  0  0
  9 25  1  0  0  0  0
 10 26  1  0  0  0  0
M  END
> <id>
EN300-28319271

> <smiles>
CNC(=O)C1(CC2(CN)C1)CO2

> <MDLNUMBER>
MFCD34551281

> <IUPAC Name>
1-(aminomethyl)-N-methyl-2-oxabicyclo[2.1.1]hexane-4-carboxamide

> <CAS>
2703780-38-3

> <URL>
https://www.enaminestore.com/catalog/EN300-28319271

> <ROCS_ShapeQuery>
x0812_0A_x1140_0A_x1097_0A_x0365_0A_x1097_0A_x0310_0A

> <ROCS_TanimotoCombo>
0.765 

> <ROCS_ShapeTanimoto>
0.224 

> <ROCS_ColorTanimoto>
0.541 

> <ROCS_RefTversky>
0.202 

> <ROCS_RefColorTversky>
0.631 

> <ROCS_RefTverskyCombo>
0.833 

> <ROCS_FitTversky>
1.982 

> <ROCS_FitColorTversky>
0.791 

> <ROCS_FitTverskyCombo>
2.773 

> <ROCS_ColorScore>
-9.449

> <ROCS_Overlap>
2040.963

> <ROCS_Rank>
7                   

$$$$
untitled-dbase-518036_6
  -OEChem-02092408543D

 26 27  0     0  0  0  0  0  0999 V2000
    9.8838   11.8745   22.3106 C   0  0  0  0  0  0  0  0  0  0  0  0
    9.2233   11.7310   24.9069 C   0  0  0  0  0  0  0  0  0  0  0  0
    7.5629   11.6754   23.6412 C   0  0  0  0  0  0  0  0  0  0  0  0
    9.0283    9.7089   23.5280 C   0  0  0  0  0  0  0  0  0  0  0  0
    9.0584   11.2488   23.4211 C   0  0  0  0  0  0  0  0  0  0  0  0
    7.8660   10.9349   24.9994 C   0  0  0  0  0  0  0  0  0  0  0  0
   11.6279   13.5858   21.8504 C   0  0  0  0  0  0  0  0  0  0  0  0
    6.9585   11.0749   26.1835 C   0  0  0  0  0  0  0  0  0  0  0  0
    5.7897   10.2581   26.0308 N   0  0  0  0  0  0  0  0  0  0  0  0
   10.7494   12.8619   22.7409 N   0  0  0  0  0  0  0  0  0  0  0  0
    9.7403   11.4842   21.1578 O   0  0  0  0  0  0  0  0  0  0  0  0
    8.1656    9.5515   24.6672 O   0  0  0  0  0  0  0  0  0  0  0  0
   10.0631   11.3037   25.4631 H   0  0  0  0  0  0  0  0  0  0  0  0
    9.1816   12.8111   25.0869 H   0  0  0  0  0  0  0  0  0  0  0  0
    7.3549   12.7499   23.6947 H   0  0  0  0  0  0  0  0  0  0  0  0
    6.8232   11.1957   22.9936 H   0  0  0  0  0  0  0  0  0  0  0  0
    8.5768    9.2332   22.6528 H   0  0  0  0  0  0  0  0  0  0  0  0
   10.0113    9.2812   23.7452 H   0  0  0  0  0  0  0  0  0  0  0  0
   12.5895   13.0573   21.7734 H   0  0  0  0  0  0  0  0  0  0  0  0
   11.1659   13.6531   20.8544 H   0  0  0  0  0  0  0  0  0  0  0  0
   11.7968   14.5985   22.2453 H   0  0  0  0  0  0  0  0  0  0  0  0
    7.5047   10.7648   27.0836 H   0  0  0  0  0  0  0  0  0  0  0  0
    6.6585   12.1268   26.2740 H   0  0  0  0  0  0  0  0  0  0  0  0
    4.9714   10.8345   26.0470 H   0  0  0  0  0  0  0  0  0  0  0  0
    5.8327    9.7691   25.1584 H   0  0  0  0  0  0  0  0  0  0  0  0
   10.7692   13.0898   23.7304 H   0  0  0  0  0  0  0  0  0  0  0  0
  1  5  1  0  0  0  0
  1 10  1  0  0  0  0
  1 11  2  0  0  0  0
  2  5  1  0  0  0  0
  2  6  1  0  0  0  0
  3  5  1  0  0  0  0
  3  6  1  0  0  0  0
  4  5  1  0  0  0  0
  4 12  1  0  0  0  0
  6  8  1  0  0  0  0
  6 12  1  0  0  0  0
  7 10  1  0  0  0  0
  8  9  1  0  0  0  0
  2 13  1  0  0  0  0
  2 14  1  0  0  0  0
  3 15  1  0  0  0  0
  3 16  1  0  0  0  0
  4 17  1  0  0  0  0
  4 18  1  0  0  0  0
  7 19  1  0  0  0  0
  7 20  1  0  0  0  0
  7 21  1  0  0  0  0
  8 22  1  0  0  0  0
  8 23  1  0  0  0  0
  9 24  1  0  0  0  0
  9 25  1  0  0  0  0
 10 26  1  0  0  0  0
M  END
> <id>
EN300-33038692

> <smiles>
Cl.CNC(=O)C1(CC2(CN)C1)CO2

> <MDLNUMBER>
MFCD34550678

> <IUPAC Name>
1-(aminomethyl)-N-methyl-2-oxabicyclo[2.1.1]hexane-4-carboxamide hydrochloride

> <CAS>
2703780-39-4

> <Purity>
95

> <URL>
https://www.enaminestore.com/catalog/EN300-33038692

> <ROCS_ShapeQuery>
x0812_0A_x1140_0A_x1097_0A_x0365_0A_x1097_0A_x0310_0A

> <ROCS_TanimotoCombo>
0.765 

> <ROCS_ShapeTanimoto>
0.224 

> <ROCS_ColorTanimoto>
0.541 

> <ROCS_RefTversky>
0.202 

> <ROCS_RefColorTversky>
0.631 

> <ROCS_RefTverskyCombo>
0.833 

> <ROCS_FitTversky>
1.982 

> <ROCS_FitColorTversky>
0.791 

> <ROCS_FitTverskyCombo>
2.773 

> <ROCS_ColorScore>
-9.449

> <ROCS_Overlap>
2040.963

> <ROCS_Rank>
8                   

$$$$
untitled-dbase-558662_3
  -OEChem-02092408543D

 28 29  0     0  0  0  0  0  0999 V2000
   10.0406   11.9072   22.4870 C   0  0  0  0  0  0  0  0  0  0  0  0
    9.1760   11.7361   25.0210 C   0  0  0  0  0  0  0  0  0  0  0  0
    7.6169   11.8198   23.6336 C   0  0  0  0  0  0  0  0  0  0  0  0
    8.9642    9.7682   23.5679 C   0  0  0  0  0  0  0  0  0  0  0  0
    9.0961   11.3055   23.5123 C   0  0  0  0  0  0  0  0  0  0  0  0
    7.7696   11.0251   24.9866 C   0  0  0  0  0  0  0  0  0  0  0  0
   12.6629   14.3918   23.0696 C   0  0  0  0  0  0  0  0  0  0  0  0
    6.7846   11.1906   26.1035 C   0  0  0  0  0  0  0  0  0  0  0  0
   11.8208   13.4421   22.2445 C   0  0  0  0  0  0  0  0  0  0  0  0
    3.7002   10.9687   27.2563 N   0  5  0  0  0  0  0  0  0  0  0  0
    5.4391   10.8424   25.6316 N   0  0  0  0  0  0  0  0  0  0  0  0
    4.5363   10.9099   26.4826 N   0  3  0  0  0  0  0  0  0  0  0  0
   10.0348   11.6190   21.2979 O   0  0  0  0  0  0  0  0  0  0  0  0
    8.0087    9.6349   24.6339 O   0  0  0  0  0  0  0  0  0  0  0  0
   10.8721   12.7970   23.1000 O   0  0  0  0  0  0  0  0  0  0  0  0
    9.9436   11.2421   25.6241 H   0  0  0  0  0  0  0  0  0  0  0  0
    9.1877   12.8114   25.2310 H   0  0  0  0  0  0  0  0  0  0  0  0
    7.4719   12.9037   23.7049 H   0  0  0  0  0  0  0  0  0  0  0  0
    6.9013   11.4054   22.9175 H   0  0  0  0  0  0  0  0  0  0  0  0
    8.5524    9.3460   22.6470 H   0  0  0  0  0  0  0  0  0  0  0  0
    9.8996    9.2731   23.8438 H   0  0  0  0  0  0  0  0  0  0  0  0
   12.0398   15.1577   23.5398 H   0  0  0  0  0  0  0  0  0  0  0  0
   13.2048   13.8483   23.8505 H   0  0  0  0  0  0  0  0  0  0  0  0
   13.4150   14.8836   22.4437 H   0  0  0  0  0  0  0  0  0  0  0  0
    6.7727   12.2275   26.4711 H   0  0  0  0  0  0  0  0  0  0  0  0
    7.0386   10.5423   26.9555 H   0  0  0  0  0  0  0  0  0  0  0  0
   12.4499   12.6788   21.7770 H   0  0  0  0  0  0  0  0  0  0  0  0
   11.2794   13.9869   21.4653 H   0  0  0  0  0  0  0  0  0  0  0  0
  1  5  1  1  0  0  0
  1 13  2  0  0  0  0
  1 15  1  0  0  0  0
  2  5  1  0  0  0  0
  2  6  1  0  0  0  0
  3  5  1  0  0  0  0
  3  6  1  0  0  0  0
  4  5  1  0  0  0  0
  4 14  1  0  0  0  0
  6  8  1  1  0  0  0
  6 14  1  0  0  0  0
  7  9  1  0  0  0  0
  8 11  1  0  0  0  0
  9 15  1  0  0  0  0
 10 12  2  0  0  0  0
 11 12  2  0  0  0  0
  2 16  1  0  0  0  0
  2 17  1  0  0  0  0
  3 18  1  0  0  0  0
  3 19  1  0  0  0  0
  4 20  1  0  0  0  0
  4 21  1  0  0  0  0
  7 22  1  0  0  0  0
  7 23  1  0  0  0  0
  7 24  1  0  0  0  0
  8 25  1  0  0  0  0
  8 26  1  0  0  0  0
  9 27  1  0  0  0  0
  9 28  1  0  0  0  0
M  CHG  2  10  -1  12   1
M  END
> <id>
EN300-37375228

> <smiles>
CCOC(=O)[C@]1(C[C@@]2(CN=[N+]=[N-])C1)CO2

> <IUPAC Name>
ethyl (1r,4r)-1-(azidomethyl)-2-oxabicyclo[2.1.1]hexane-4-carboxylate

> <CAS>
2228156-42-9

> <URL>
https://www.enaminestore.com/catalog/EN300-37375228

> <ROCS_ShapeQuery>
x0812_0A_x1140_0A_x1097_0A_x0365_0A_x1097_0A_x0310_0A

> <ROCS_TanimotoCombo>
0.762 

> <ROCS_ShapeTanimoto>
0.242 

> <ROCS_ColorTanimoto>
0.520 

> <ROCS_RefTversky>
0.217 

> <ROCS_RefColorTversky>
0.552 

> <ROCS_RefTverskyCombo>
0.769 

> <ROCS_FitTversky>
1.899 

> <ROCS_FitColorTversky>
0.899 

> <ROCS_FitTverskyCombo>
2.798 

> <ROCS_ColorScore>
-8.181

> <ROCS_Overlap>
2197.558

> <ROCS_Rank>
9                   

$$$$
untitled-dbase-388940_3
  -OEChem-02092408543D

 28 29  0     0  0  0  0  0  0999 V2000
   10.0408   11.9063   22.4876 C   0  0  0  0  0  0  0  0  0  0  0  0
    9.1781   11.7335   25.0222 C   0  0  0  0  0  0  0  0  0  0  0  0
    7.6180   11.8213   23.6363 C   0  0  0  0  0  0  0  0  0  0  0  0
    8.9616    9.7677   23.5671 C   0  0  0  0  0  0  0  0  0  0  0  0
    9.0962   11.3047   23.5132 C   0  0  0  0  0  0  0  0  0  0  0  0
    7.7704   11.0249   24.9882 C   0  0  0  0  0  0  0  0  0  0  0  0
   12.6672   14.3864   23.0709 C   0  0  0  0  0  0  0  0  0  0  0  0
    6.7865   11.1905   26.1061 C   0  0  0  0  0  0  0  0  0  0  0  0
   11.8230   13.4389   22.2455 C   0  0  0  0  0  0  0  0  0  0  0  0
    3.7026   10.9719   27.2607 N   0  5  0  0  0  0  0  0  0  0  0  0
    5.4400   10.8451   25.6346 N   0  0  0  0  0  0  0  0  0  0  0  0
    4.5380   10.9128   26.4864 N   0  3  0  0  0  0  0  0  0  0  0  0
   10.0336   11.6195   21.2982 O   0  0  0  0  0  0  0  0  0  0  0  0
    8.0069    9.6348   24.6338 O   0  0  0  0  0  0  0  0  0  0  0  0
   10.8741   12.7942   23.1010 O   0  0  0  0  0  0  0  0  0  0  0  0
    9.9449   11.2371   25.6244 H   0  0  0  0  0  0  0  0  0  0  0  0
    9.1906   12.8085   25.2338 H   0  0  0  0  0  0  0  0  0  0  0  0
    7.4743   12.9051   23.7095 H   0  0  0  0  0  0  0  0  0  0  0  0
    6.9008   11.4089   22.9206 H   0  0  0  0  0  0  0  0  0  0  0  0
    8.5487    9.3470   22.6459 H   0  0  0  0  0  0  0  0  0  0  0  0
    9.8966    9.2711   23.8420 H   0  0  0  0  0  0  0  0  0  0  0  0
   12.0457   15.1526   23.5426 H   0  0  0  0  0  0  0  0  0  0  0  0
   13.2090   13.8411   23.8507 H   0  0  0  0  0  0  0  0  0  0  0  0
   13.4195   14.8778   22.4450 H   0  0  0  0  0  0  0  0  0  0  0  0
    6.7765   12.2269   26.4750 H   0  0  0  0  0  0  0  0  0  0  0  0
    7.0400   10.5406   26.9569 H   0  0  0  0  0  0  0  0  0  0  0  0
   12.4506   12.6752   21.7765 H   0  0  0  0  0  0  0  0  0  0  0  0
   11.2818   13.9854   21.4674 H   0  0  0  0  0  0  0  0  0  0  0  0
  1  5  1  0  0  0  0
  1 13  2  0  0  0  0
  1 15  1  0  0  0  0
  2  5  1  0  0  0  0
  2  6  1  0  0  0  0
  3  5  1  0  0  0  0
  3  6  1  0  0  0  0
  4  5  1  0  0  0  0
  4 14  1  0  0  0  0
  6  8  1  0  0  0  0
  6 14  1  0  0  0  0
  7  9  1  0  0  0  0
  8 11  1  0  0  0  0
  9 15  1  0  0  0  0
 10 12  2  0  0  0  0
 11 12  2  0  0  0  0
  2 16  1  0  0  0  0
  2 17  1  0  0  0  0
  3 18  1  0  0  0  0
  3 19  1  0  0  0  0
  4 20  1  0  0  0  0
  4 21  1  0  0  0  0
  7 22  1  0  0  0  0
  7 23  1  0  0  0  0
  7 24  1  0  0  0  0
  8 25  1  0  0  0  0
  8 26  1  0  0  0  0
  9 27  1  0  0  0  0
  9 28  1  0  0  0  0
M  CHG  2  10  -1  12   1
M  END
> <id>
EN300-2007914

> <smiles>
CCOC(=O)C1(CC2(CN=[N+]=[N-])C1)CO2

> <MDLNUMBER>
MFCD31690754

> <IUPAC Name>
ethyl 1-(azidomethyl)-2-oxabicyclo[2.1.1]hexane-4-carboxylate

> <CAS>
2228156-42-9

> <Purity>
95

> <URL>
https://www.enaminestore.com/catalog/EN300-2007914

> <ROCS_ShapeQuery>
x0812_0A_x1140_0A_x1097_0A_x0365_0A_x1097_0A_x0310_0A

> <ROCS_TanimotoCombo>
0.762 

> <ROCS_ShapeTanimoto>
0.242 

> <ROCS_ColorTanimoto>
0.520 

> <ROCS_RefTversky>
0.217 

> <ROCS_RefColorTversky>
0.552 

> <ROCS_RefTverskyCombo>
0.769 

> <ROCS_FitTversky>
1.899 

> <ROCS_FitColorTversky>
0.899 

> <ROCS_FitTverskyCombo>
2.798 

> <ROCS_ColorScore>
-8.181

> <ROCS_Overlap>
2197.500

> <ROCS_Rank>
10                  

$$$$
untitled-dbase-578106_2
  -OEChem-02092408543D

 29 30  0     0  0  0  0  0  0999 V2000
   10.0414   11.9047   22.4870 C   0  0  0  0  0  0  0  0  0  0  0  0
    9.1816   11.7313   25.0224 C   0  0  0  0  0  0  0  0  0  0  0  0
    7.6199   11.8238   23.6386 C   0  0  0  0  0  0  0  0  0  0  0  0
    8.9590    9.7674   23.5658 C   0  0  0  0  0  0  0  0  0  0  0  0
    9.0969   11.3042   23.5131 C   0  0  0  0  0  0  0  0  0  0  0  0
    7.7723   11.0258   24.9895 C   0  0  0  0  0  0  0  0  0  0  0  0
   12.6739   14.3785   23.0693 C   0  0  0  0  0  0  0  0  0  0  0  0
    6.7902   11.1924   26.1088 C   0  0  0  0  0  0  0  0  0  0  0  0
   11.8267   13.4337   22.2440 C   0  0  0  0  0  0  0  0  0  0  0  0
   10.0321   11.6191   21.2973 O   0  0  0  0  0  0  0  0  0  0  0  0
    5.0952    9.4433   25.1446 O   0  0  0  0  0  0  0  0  0  0  0  0
    4.6488   11.9098   24.7815 O   0  0  0  0  0  0  0  0  0  0  0  0
    8.0054    9.6355   24.6336 O   0  0  0  0  0  0  0  0  0  0  0  0
   10.8775   12.7902   23.1002 O   0  0  0  0  0  0  0  0  0  0  0  0
    4.2614   10.8545   26.9219 F   0  0  0  0  0  0  0  0  0  0  0  0
    5.1384   10.8184   25.5995 S   0  0  0  0  0  0  0  0  0  0  0  0
    9.9481   11.2327   25.6232 H   0  0  0  0  0  0  0  0  0  0  0  0
    9.1967   12.8061   25.2351 H   0  0  0  0  0  0  0  0  0  0  0  0
    7.4787   12.9078   23.7131 H   0  0  0  0  0  0  0  0  0  0  0  0
    6.9009   11.4137   22.9234 H   0  0  0  0  0  0  0  0  0  0  0  0
    8.5440    9.3484   22.6447 H   0  0  0  0  0  0  0  0  0  0  0  0
    9.8933    9.2685   23.8390 H   0  0  0  0  0  0  0  0  0  0  0  0
   12.0547   15.1456   23.5426 H   0  0  0  0  0  0  0  0  0  0  0  0
   13.2155   13.8314   23.8479 H   0  0  0  0  0  0  0  0  0  0  0  0
   13.4265   14.8690   22.4430 H   0  0  0  0  0  0  0  0  0  0  0  0
    6.7757   12.2244   26.4852 H   0  0  0  0  0  0  0  0  0  0  0  0
    7.0174   10.5239   26.9504 H   0  0  0  0  0  0  0  0  0  0  0  0
   12.4520   12.6691   21.7735 H   0  0  0  0  0  0  0  0  0  0  0  0
   11.2857   13.9821   21.4672 H   0  0  0  0  0  0  0  0  0  0  0  0
  1  5  1  0  0  0  0
  1 10  2  0  0  0  0
  1 14  1  0  0  0  0
  2  5  1  0  0  0  0
  2  6  1  0  0  0  0
  3  5  1  0  0  0  0
  3  6  1  0  0  0  0
  4  5  1  0  0  0  0
  4 13  1  0  0  0  0
  6  8  1  0  0  0  0
  6 13  1  0  0  0  0
  7  9  1  0  0  0  0
  8 16  1  0  0  0  0
  9 14  1  0  0  0  0
 11 16  2  0  0  0  0
 12 16  2  0  0  0  0
 15 16  1  0  0  0  0
  2 17  1  0  0  0  0
  2 18  1  0  0  0  0
  3 19  1  0  0  0  0
  3 20  1  0  0  0  0
  4 21  1  0  0  0  0
  4 22  1  0  0  0  0
  7 23  1  0  0  0  0
  7 24  1  0  0  0  0
  7 25  1  0  0  0  0
  8 26  1  0  0  0  0
  8 27  1  0  0  0  0
  9 28  1  0  0  0  0
  9 29  1  0  0  0  0
M  END
> <id>
EN300-7469900

> <smiles>
CCOC(=O)C1(CC2(CS(=O)(=O)F)C1)CO2

> <IUPAC Name>
ethyl 1-[(fluorosulfonyl)methyl]-2-oxabicyclo[2.1.1]hexane-4-carboxylate

> <CAS>
2648957-48-4

> <URL>
https://www.enaminestore.com/catalog/EN300-7469900

> <ROCS_ShapeQuery>
x0812_0A_x1140_0A_x1097_0A_x0365_0A_x1097_0A_x0310_0A

> <ROCS_TanimotoCombo>
0.762 

> <ROCS_ShapeTanimoto>
0.242 

> <ROCS_ColorTanimoto>
0.520 

> <ROCS_RefTversky>
0.217 

> <ROCS_RefColorTversky>
0.552 

> <ROCS_RefTverskyCombo>
0.770 

> <ROCS_FitTversky>
1.861 

> <ROCS_FitColorTversky>
0.899 

> <ROCS_FitTverskyCombo>
2.760 

> <ROCS_ColorScore>
-8.181

> <ROCS_Overlap>
2200.334

> <ROCS_Rank>
11                  

$$$$
untitled-dbase-559717_2
  -OEChem-02092408543D

 29 30  0     0  0  0  0  0  0999 V2000
   10.0417   11.9042   22.4874 C   0  0  0  0  0  0  0  0  0  0  0  0
    9.1822   11.7305   25.0230 C   0  0  0  0  0  0  0  0  0  0  0  0
    7.6203   11.8244   23.6395 C   0  0  0  0  0  0  0  0  0  0  0  0
    8.9586    9.7672   23.5656 C   0  0  0  0  0  0  0  0  0  0  0  0
    9.0970   11.3040   23.5135 C   0  0  0  0  0  0  0  0  0  0  0  0
    7.7727   11.0257   24.9901 C   0  0  0  0  0  0  0  0  0  0  0  0
   12.6759   14.3760   23.0700 C   0  0  0  0  0  0  0  0  0  0  0  0
    6.7910   11.1927   26.1098 C   0  0  0  0  0  0  0  0  0  0  0  0
   11.8279   13.4320   22.2446 C   0  0  0  0  0  0  0  0  0  0  0  0
   10.0319   11.6189   21.2976 O   0  0  0  0  0  0  0  0  0  0  0  0
    5.0920    9.4448   25.1453 O   0  0  0  0  0  0  0  0  0  0  0  0
    4.6453   11.9123   24.7866 O   0  0  0  0  0  0  0  0  0  0  0  0
    8.0050    9.6354   24.6334 O   0  0  0  0  0  0  0  0  0  0  0  0
   10.8784   12.7889   23.1007 O   0  0  0  0  0  0  0  0  0  0  0  0
    5.1388   10.8198   25.6009 S   0  0  0  0  0  0  0  0  0  0  0  0
    3.9867   10.8571   27.2932 Cl  0  0  0  0  0  0  0  0  0  0  0  0
    9.9490   11.2317   25.6231 H   0  0  0  0  0  0  0  0  0  0  0  0
    9.1990   12.8053   25.2356 H   0  0  0  0  0  0  0  0  0  0  0  0
    7.4801   12.9087   23.7137 H   0  0  0  0  0  0  0  0  0  0  0  0
    6.9012   11.4148   22.9240 H   0  0  0  0  0  0  0  0  0  0  0  0
    8.5428    9.3490   22.6446 H   0  0  0  0  0  0  0  0  0  0  0  0
    9.8925    9.2674   23.8381 H   0  0  0  0  0  0  0  0  0  0  0  0
   12.0573   15.1434   23.5436 H   0  0  0  0  0  0  0  0  0  0  0  0
   13.2173   13.8282   23.8483 H   0  0  0  0  0  0  0  0  0  0  0  0
   13.4287   14.8661   22.4436 H   0  0  0  0  0  0  0  0  0  0  0  0
    6.7773   12.2247   26.4862 H   0  0  0  0  0  0  0  0  0  0  0  0
    7.0181   10.5241   26.9511 H   0  0  0  0  0  0  0  0  0  0  0  0
   12.4526   12.6671   21.7737 H   0  0  0  0  0  0  0  0  0  0  0  0
   11.2871   13.9810   21.4680 H   0  0  0  0  0  0  0  0  0  0  0  0
  1  5  1  1  0  0  0
  1 10  2  0  0  0  0
  1 14  1  0  0  0  0
  2  5  1  0  0  0  0
  2  6  1  0  0  0  0
  3  5  1  0  0  0  0
  3  6  1  0  0  0  0
  4  5  1  0  0  0  0
  4 13  1  0  0  0  0
  6  8  1  1  0  0  0
  6 13  1  0  0  0  0
  7  9  1  0  0  0  0
  8 15  1  0  0  0  0
  9 14  1  0  0  0  0
 11 15  2  0  0  0  0
 12 15  2  0  0  0  0
 15 16  1  0  0  0  0
  2 17  1  0  0  0  0
  2 18  1  0  0  0  0
  3 19  1  0  0  0  0
  3 20  1  0  0  0  0
  4 21  1  0  0  0  0
  4 22  1  0  0  0  0
  7 23  1  0  0  0  0
  7 24  1  0  0  0  0
  7 25  1  0  0  0  0
  8 26  1  0  0  0  0
  8 27  1  0  0  0  0
  9 28  1  0  0  0  0
  9 29  1  0  0  0  0
M  END
> <id>
EN300-37375247

> <smiles>
CCOC(=O)[C@]1(C[C@@]2(CS(=O)(=O)Cl)C1)CO2

> <IUPAC Name>
ethyl 1-[(chlorosulfonyl)methyl]-2-oxabicyclo[2.1.1]hexane-4-carboxylate

> <CAS>
2241140-65-6

> <URL>
https://www.enaminestore.com/catalog/EN300-37375247

> <ROCS_ShapeQuery>
x0812_0A_x1140_0A_x1097_0A_x0365_0A_x1097_0A_x0310_0A

> <ROCS_TanimotoCombo>
0.760 

> <ROCS_ShapeTanimoto>
0.240 

> <ROCS_ColorTanimoto>
0.520 

> <ROCS_RefTversky>
0.216 

> <ROCS_RefColorTversky>
0.552 

> <ROCS_RefTverskyCombo>
0.768 

> <ROCS_FitTversky>
1.868 

> <ROCS_FitColorTversky>
0.899 

> <ROCS_FitTverskyCombo>
2.767 

> <ROCS_ColorScore>
-8.181

> <ROCS_Overlap>
2186.948

> <ROCS_Rank>
12                  

$$$$
untitled-dbase-399659_2
  -OEChem-02092408543D

 29 30  0     0  0  0  0  0  0999 V2000
   10.0414   11.9045   22.4873 C   0  0  0  0  0  0  0  0  0  0  0  0
    9.1820   11.7305   25.0229 C   0  0  0  0  0  0  0  0  0  0  0  0
    7.6201   11.8240   23.6395 C   0  0  0  0  0  0  0  0  0  0  0  0
    8.9585    9.7672   23.5657 C   0  0  0  0  0  0  0  0  0  0  0  0
    9.0969   11.3039   23.5135 C   0  0  0  0  0  0  0  0  0  0  0  0
    7.7725   11.0256   24.9901 C   0  0  0  0  0  0  0  0  0  0  0  0
   12.6749   14.3772   23.0699 C   0  0  0  0  0  0  0  0  0  0  0  0
    6.7907   11.1922   26.1097 C   0  0  0  0  0  0  0  0  0  0  0  0
   11.8272   13.4329   22.2445 C   0  0  0  0  0  0  0  0  0  0  0  0
   10.0317   11.6192   21.2975 O   0  0  0  0  0  0  0  0  0  0  0  0
    5.0922    9.4440   25.1446 O   0  0  0  0  0  0  0  0  0  0  0  0
    4.6451   11.9115   24.7863 O   0  0  0  0  0  0  0  0  0  0  0  0
    8.0051    9.6353   24.6336 O   0  0  0  0  0  0  0  0  0  0  0  0
   10.8779   12.7895   23.1006 O   0  0  0  0  0  0  0  0  0  0  0  0
    5.1387   10.8190   25.6005 S   0  0  0  0  0  0  0  0  0  0  0  0
    3.9863   10.8558   27.2927 Cl  0  0  0  0  0  0  0  0  0  0  0  0
    9.9485   11.2315   25.6234 H   0  0  0  0  0  0  0  0  0  0  0  0
    9.1976   12.8053   25.2359 H   0  0  0  0  0  0  0  0  0  0  0  0
    7.4793   12.9081   23.7143 H   0  0  0  0  0  0  0  0  0  0  0  0
    6.9009   11.4144   22.9243 H   0  0  0  0  0  0  0  0  0  0  0  0
    8.5431    9.3486   22.6445 H   0  0  0  0  0  0  0  0  0  0  0  0
    9.8926    9.2679   23.8385 H   0  0  0  0  0  0  0  0  0  0  0  0
   12.0560   15.1443   23.5435 H   0  0  0  0  0  0  0  0  0  0  0  0
   13.2165   13.8296   23.8482 H   0  0  0  0  0  0  0  0  0  0  0  0
   13.4275   14.8675   22.4435 H   0  0  0  0  0  0  0  0  0  0  0  0
    6.7767   12.2241   26.4863 H   0  0  0  0  0  0  0  0  0  0  0  0
    7.0179   10.5234   26.9509 H   0  0  0  0  0  0  0  0  0  0  0  0
   12.4521   12.6682   21.7736 H   0  0  0  0  0  0  0  0  0  0  0  0
   11.2862   13.9818   21.4679 H   0  0  0  0  0  0  0  0  0  0  0  0
  1  5  1  0  0  0  0
  1 10  2  0  0  0  0
  1 14  1  0  0  0  0
  2  5  1  0  0  0  0
  2  6  1  0  0  0  0
  3  5  1  0  0  0  0
  3  6  1  0  0  0  0
  4  5  1  0  0  0  0
  4 13  1  0  0  0  0
  6  8  1  0  0  0  0
  6 13  1  0  0  0  0
  7  9  1  0  0  0  0
  8 15  1  0  0  0  0
  9 14  1  0  0  0  0
 11 15  2  0  0  0  0
 12 15  2  0  0  0  0
 15 16  1  0  0  0  0
  2 17  1  0  0  0  0
  2 18  1  0  0  0  0
  3 19  1  0  0  0  0
  3 20  1  0  0  0  0
  4 21  1  0  0  0  0
  4 22  1  0  0  0  0
  7 23  1  0  0  0  0
  7 24  1  0  0  0  0
  7 25  1  0  0  0  0
  8 26  1  0  0  0  0
  8 27  1  0  0  0  0
  9 28  1  0  0  0  0
  9 29  1  0  0  0  0
M  END
> <id>
EN300-6474961

> <smiles>
CCOC(=O)C1(CC2(CS(=O)(=O)Cl)C1)CO2

> <MDLNUMBER>
MFCD31667503

> <IUPAC Name>
ethyl 1-[(chlorosulfonyl)methyl]-2-oxabicyclo[2.1.1]hexane-4-carboxylate

> <CAS>
2241140-65-6

> <Purity>
95

> <URL>
https://www.enaminestore.com/catalog/EN300-6474961

> <ROCS_ShapeQuery>
x0812_0A_x1140_0A_x1097_0A_x0365_0A_x1097_0A_x0310_0A

> <ROCS_TanimotoCombo>
0.760 

> <ROCS_ShapeTanimoto>
0.240 

> <ROCS_ColorTanimoto>
0.520 

> <ROCS_RefTversky>
0.216 

> <ROCS_RefColorTversky>
0.552 

> <ROCS_RefTverskyCombo>
0.768 

> <ROCS_FitTversky>
1.868 

> <ROCS_FitColorTversky>
0.899 

> <ROCS_FitTverskyCombo>
2.767 

> <ROCS_ColorScore>
-8.181

> <ROCS_Overlap>
2186.909

> <ROCS_Rank>
13                  

$$$$
untitled-dbase-369202_0
  -OEChem-02092408543D

 28 30  0     1  0  0  0  0  0999 V2000
   10.8041   11.6910   25.2870 C   0  0  0  0  0  0  0  0  0  0  0  0
    9.7662   12.0756   26.3156 C   0  0  0  0  0  0  0  0  0  0  0  0
    7.1966   10.5337   25.1029 C   0  0  0  0  0  0  0  0  0  0  0  0
    8.6771   10.1356   24.8696 C   0  0  1  0  0  0  0  0  0  0  0  0
    8.5426   12.2095   23.9585 C   0  0  1  0  0  0  0  0  0  0  0  0
    8.8664    9.8684   23.3547 C   0  0  1  0  0  0  0  0  0  0  0  0
    8.7837   11.2870   22.7302 C   0  0  2  0  0  0  0  0  0  0  0  0
    7.1277   11.9782   24.5471 C   0  0  1  0  0  0  0  0  0  0  0  0
    9.3446   11.4765   25.0032 C   0  0  0  0  0  0  0  0  0  0  0  0
    6.0821   13.4193   22.6256 O   0  0  0  0  0  0  0  0  0  0  0  0
    4.5419   12.1067   24.1485 O   0  0  0  0  0  0  0  0  0  0  0  0
   10.1218    9.2459   23.1350 O   0  0  0  0  0  0  0  0  0  0  0  0
    9.9984   11.6692   22.0981 O   0  0  0  0  0  0  0  0  0  0  0  0
    5.8268   11.0248   22.4096 F   0  0  0  0  0  0  0  0  0  0  0  0
    5.7999   12.2433   23.4327 S   0  0  0  0  0  0  0  0  0  0  0  0
   11.3149   12.4927   24.7682 H   0  0  0  0  0  0  0  0  0  0  0  0
   11.4185   10.8239   25.4948 H   0  0  0  0  0  0  0  0  0  0  0  0
    9.6926   11.4636   27.2061 H   0  0  0  0  0  0  0  0  0  0  0  0
    9.5904   13.1318   26.4779 H   0  0  0  0  0  0  0  0  0  0  0  0
    6.4987    9.8394   24.6245 H   0  0  0  0  0  0  0  0  0  0  0  0
    6.9773   10.5481   26.1772 H   0  0  0  0  0  0  0  0  0  0  0  0
    9.0496    9.3445   25.5240 H   0  0  0  0  0  0  0  0  0  0  0  0
    8.8107   13.2570   23.8006 H   0  0  0  0  0  0  0  0  0  0  0  0
    8.0805    9.2084   22.9718 H   0  0  0  0  0  0  0  0  0  0  0  0
    7.9860   11.3642   21.9877 H   0  0  0  0  0  0  0  0  0  0  0  0
    6.9567   12.6736   25.3788 H   0  0  0  0  0  0  0  0  0  0  0  0
   10.1146    8.4111   23.6323 H   0  0  0  0  0  0  0  0  0  0  0  0
    9.8921   12.5944   21.8241 H   0  0  0  0  0  0  0  0  0  0  0  0
  1  2  1  0  0  0  0
  1  9  1  0  0  0  0
  2  9  1  0  0  0  0
  3  4  1  6  0  0  0
  3  8  1  0  0  0  0
  4  6  1  0  0  0  0
  4  9  1  0  0  0  0
  5  7  1  0  0  0  0
  5  8  1  0  0  0  0
  5  9  1  1  0  0  0
  6  7  1  0  0  0  0
  6 12  1  1  0  0  0
  7 13  1  1  0  0  0
  8 15  1  6  0  0  0
 10 15  2  0  0  0  0
 11 15  2  0  0  0  0
 14 15  1  0  0  0  0
  1 16  1  0  0  0  0
  1 17  1  0  0  0  0
  2 18  1  0  0  0  0
  2 19  1  0  0  0  0
  3 20  1  0  0  0  0
  3 21  1  0  0  0  0
  4 22  1  0  0  0  0
  5 23  1  0  0  0  0
  6 24  1  0  0  0  0
  7 25  1  0  0  0  0
  8 26  1  0  0  0  0
 12 27  1  0  0  0  0
 13 28  1  0  0  0  0
M  END
> <id>
EN300-27108159

> <smiles>
O[C@@H]1[C@H](O)[C@H]2[C@H](C[C@@H]1C32CC3)S(=O)(=O)F |&1:1,2,4,5,7,r|

> <IUPAC Name>
rac-(1R,3S,4S,5R,6S)-5,6-dihydroxyspiro[bicyclo[2.2.1]heptane-7,1'-cyclopropane]-3-sulfonyl fluoride

> <CAS>
2470280-40-9

> <Purity>
95

> <URL>
https://www.enaminestore.com/catalog/EN300-27108159

> <ROCS_ShapeQuery>
x0812_0A_x1140_0A_x1097_0A_x0365_0A_x1097_0A_x0310_0A

> <ROCS_TanimotoCombo>
0.757 

> <ROCS_ShapeTanimoto>
0.207 

> <ROCS_ColorTanimoto>
0.550 

> <ROCS_RefTversky>
0.191 

> <ROCS_RefColorTversky>
0.607 

> <ROCS_RefTverskyCombo>
0.798 

> <ROCS_FitTversky>
1.671 

> <ROCS_FitColorTversky>
0.856 

> <ROCS_FitTverskyCombo>
2.527 

> <ROCS_ColorScore>
-9.039

> <ROCS_Overlap>
1930.641

> <ROCS_Rank>
14                  

$$$$
untitled-dbase-167045_9
  -OEChem-02092408543D

 35 37  0     0  0  0  0  0  0999 V2000
   10.0455   11.9590   22.4535 C   0  0  0  0  0  0  0  0  0  0  0  0
    9.6392    7.9461   22.7843 C   0  0  0  0  0  0  0  0  0  0  0  0
    8.6631    9.0388   22.3012 C   0  0  0  0  0  0  0  0  0  0  0  0
   10.2636    8.9947   23.7282 C   0  0  0  0  0  0  0  0  0  0  0  0
    9.1822   11.7623   24.9888 C   0  0  0  0  0  0  0  0  0  0  0  0
    7.6192   11.8052   23.5948 C   0  0  0  0  0  0  0  0  0  0  0  0
    9.1185   11.3182   23.4726 C   0  0  0  0  0  0  0  0  0  0  0  0
    8.9383    9.7698   23.6269 C   0  0  0  0  0  0  0  0  0  0  0  0
    7.7765   11.0389   24.9687 C   0  0  0  0  0  0  0  0  0  0  0  0
   12.5619   14.5463   23.0560 C   0  0  0  0  0  0  0  0  0  0  0  0
    6.7939   11.2809   26.0783 C   0  0  0  0  0  0  0  0  0  0  0  0
   11.7641   13.5645   22.2244 C   0  0  0  0  0  0  0  0  0  0  0  0
    3.7086   11.1548   27.2430 N   0  5  0  0  0  0  0  0  0  0  0  0
    5.4469   10.9115   25.6304 N   0  0  0  0  0  0  0  0  0  0  0  0
    4.5439   11.0400   26.4749 N   0  3  0  0  0  0  0  0  0  0  0  0
   10.0591   11.6722   21.2641 O   0  0  0  0  0  0  0  0  0  0  0  0
    7.9743    9.6127   24.7031 O   0  0  0  0  0  0  0  0  0  0  0  0
   10.8365   12.8808   23.0730 O   0  0  0  0  0  0  0  0  0  0  0  0
    9.1475    7.1196   23.3102 H   0  0  0  0  0  0  0  0  0  0  0  0
   10.3070    7.5358   22.0227 H   0  0  0  0  0  0  0  0  0  0  0  0
    8.9956    9.5578   21.3959 H   0  0  0  0  0  0  0  0  0  0  0  0
    7.6342    8.6997   22.1503 H   0  0  0  0  0  0  0  0  0  0  0  0
   10.5201    8.6201   24.7233 H   0  0  0  0  0  0  0  0  0  0  0  0
   11.1406    9.4985   23.3085 H   0  0  0  0  0  0  0  0  0  0  0  0
    9.9521   11.2862   25.6031 H   0  0  0  0  0  0  0  0  0  0  0  0
    9.1824   12.8404   25.1856 H   0  0  0  0  0  0  0  0  0  0  0  0
    7.4565   12.8878   23.6465 H   0  0  0  0  0  0  0  0  0  0  0  0
    6.9071   11.3698   22.8873 H   0  0  0  0  0  0  0  0  0  0  0  0
   11.9055   15.2859   23.5228 H   0  0  0  0  0  0  0  0  0  0  0  0
   13.1200   14.0240   23.8400 H   0  0  0  0  0  0  0  0  0  0  0  0
   13.2977   15.0686   22.4356 H   0  0  0  0  0  0  0  0  0  0  0  0
    6.7915   12.3383   26.3776 H   0  0  0  0  0  0  0  0  0  0  0  0
    7.0488   10.6853   26.9661 H   0  0  0  0  0  0  0  0  0  0  0  0
   12.4265   12.8276   21.7604 H   0  0  0  0  0  0  0  0  0  0  0  0
   11.2065   14.0881   21.4422 H   0  0  0  0  0  0  0  0  0  0  0  0
  1  7  1  0  0  0  0
  1 16  2  0  0  0  0
  1 18  1  0  0  0  0
  2  3  1  0  0  0  0
  2  4  1  0  0  0  0
  3  8  1  0  0  0  0
  4  8  1  0  0  0  0
  5  7  1  0  0  0  0
  5  9  1  0  0  0  0
  6  7  1  0  0  0  0
  6  9  1  0  0  0  0
  7  8  1  0  0  0  0
  8 17  1  0  0  0  0
  9 11  1  0  0  0  0
  9 17  1  0  0  0  0
 10 12  1  0  0  0  0
 11 14  1  0  0  0  0
 12 18  1  0  0  0  0
 13 15  2  0  0  0  0
 14 15  2  0  0  0  0
  2 19  1  0  0  0  0
  2 20  1  0  0  0  0
  3 21  1  0  0  0  0
  3 22  1  0  0  0  0
  4 23  1  0  0  0  0
  4 24  1  0  0  0  0
  5 25  1  0  0  0  0
  5 26  1  0  0  0  0
  6 27  1  0  0  0  0
  6 28  1  0  0  0  0
 10 29  1  0  0  0  0
 10 30  1  0  0  0  0
 10 31  1  0  0  0  0
 11 32  1  0  0  0  0
 11 33  1  0  0  0  0
 12 34  1  0  0  0  0
 12 35  1  0  0  0  0
M  CHG  2  13  -1  15   1
M  END
> <id>
EN300-1718328

> <smiles>
CCOC(=O)C1(CC2(CN=[N+]=[N-])C1)C3(CCC3)O2

> <MDLNUMBER>
MFCD31690535

> <IUPAC Name>
ethyl 4-(azidomethyl)-3-oxaspiro[bicyclo[2.1.1]hexane-2,1'-cyclobutane]-1-carboxylate

> <CAS>
2490400-61-6

> <Purity>
95

> <URL>
https://www.enaminestore.com/catalog/EN300-1718328

> <ROCS_ShapeQuery>
x0812_0A_x1140_0A_x1097_0A_x0365_0A_x1097_0A_x0310_0A

> <ROCS_TanimotoCombo>
0.757 

> <ROCS_ShapeTanimoto>
0.275 

> <ROCS_ColorTanimoto>
0.482 

> <ROCS_RefTversky>
0.243 

> <ROCS_RefColorTversky>
0.545 

> <ROCS_RefTverskyCombo>
0.788 

> <ROCS_FitTversky>
1.902 

> <ROCS_FitColorTversky>
0.806 

> <ROCS_FitTverskyCombo>
2.708 

> <ROCS_ColorScore>
-8.110

> <ROCS_Overlap>
2460.366

> <ROCS_Rank>
15                  

$$$$
untitled-dbase-469318_9
  -OEChem-02092408543D

 35 37  0     0  0  0  0  0  0999 V2000
   10.0455   11.9591   22.4535 C   0  0  0  0  0  0  0  0  0  0  0  0
    9.6394    7.9455   22.7859 C   0  0  0  0  0  0  0  0  0  0  0  0
    8.6635    9.0381   22.3017 C   0  0  0  0  0  0  0  0  0  0  0  0
   10.2639    8.9951   23.7287 C   0  0  0  0  0  0  0  0  0  0  0  0
    9.1819   11.7622   24.9889 C   0  0  0  0  0  0  0  0  0  0  0  0
    7.6193   11.8052   23.5946 C   0  0  0  0  0  0  0  0  0  0  0  0
    9.1184   11.3182   23.4727 C   0  0  0  0  0  0  0  0  0  0  0  0
    8.9384    9.7698   23.6270 C   0  0  0  0  0  0  0  0  0  0  0  0
    7.7764   11.0389   24.9686 C   0  0  0  0  0  0  0  0  0  0  0  0
   12.5617   14.5465   23.0560 C   0  0  0  0  0  0  0  0  0  0  0  0
    6.7930   11.2806   26.0777 C   0  0  0  0  0  0  0  0  0  0  0  0
   11.7640   13.5647   22.2245 C   0  0  0  0  0  0  0  0  0  0  0  0
    3.7067   11.1541   27.2397 N   0  5  0  0  0  0  0  0  0  0  0  0
    5.4466   10.9108   25.6288 N   0  0  0  0  0  0  0  0  0  0  0  0
    4.5427   11.0393   26.4723 N   0  3  0  0  0  0  0  0  0  0  0  0
   10.0592   11.6724   21.2641 O   0  0  0  0  0  0  0  0  0  0  0  0
    7.9743    9.6126   24.7031 O   0  0  0  0  0  0  0  0  0  0  0  0
   10.8364   12.8809   23.0730 O   0  0  0  0  0  0  0  0  0  0  0  0
    9.1475    7.1197   23.3127 H   0  0  0  0  0  0  0  0  0  0  0  0
   10.3072    7.5349   22.0244 H   0  0  0  0  0  0  0  0  0  0  0  0
    8.9972    9.5566   21.3967 H   0  0  0  0  0  0  0  0  0  0  0  0
    7.6346    8.6990   22.1509 H   0  0  0  0  0  0  0  0  0  0  0  0
   10.5204    8.6214   24.7240 H   0  0  0  0  0  0  0  0  0  0  0  0
   11.1402    9.4990   23.3076 H   0  0  0  0  0  0  0  0  0  0  0  0
    9.9519   11.2860   25.6031 H   0  0  0  0  0  0  0  0  0  0  0  0
    9.1819   12.8404   25.1856 H   0  0  0  0  0  0  0  0  0  0  0  0
    7.4567   12.8877   23.6463 H   0  0  0  0  0  0  0  0  0  0  0  0
    6.9074   11.3698   22.8870 H   0  0  0  0  0  0  0  0  0  0  0  0
   11.9052   15.2861   23.5229 H   0  0  0  0  0  0  0  0  0  0  0  0
   13.1198   14.0242   23.8401 H   0  0  0  0  0  0  0  0  0  0  0  0
   13.2976   15.0689   22.4358 H   0  0  0  0  0  0  0  0  0  0  0  0
    6.7904   12.3380   26.3766 H   0  0  0  0  0  0  0  0  0  0  0  0
    7.0478   10.6851   26.9654 H   0  0  0  0  0  0  0  0  0  0  0  0
   12.4265   12.8279   21.7604 H   0  0  0  0  0  0  0  0  0  0  0  0
   11.2064   14.0882   21.4422 H   0  0  0  0  0  0  0  0  0  0  0  0
  1  7  1  1  0  0  0
  1 16  2  0  0  0  0
  1 18  1  0  0  0  0
  2  3  1  0  0  0  0
  2  4  1  0  0  0  0
  3  8  1  0  0  0  0
  4  8  1  0  0  0  0
  5  7  1  0  0  0  0
  5  9  1  0  0  0  0
  6  7  1  0  0  0  0
  6  9  1  0  0  0  0
  7  8  1  0  0  0  0
  8 17  1  0  0  0  0
  9 11  1  1  0  0  0
  9 17  1  0  0  0  0
 10 12  1  0  0  0  0
 11 14  1  0  0  0  0
 12 18  1  0  0  0  0
 13 15  2  0  0  0  0
 14 15  2  0  0  0  0
  2 19  1  0  0  0  0
  2 20  1  0  0  0  0
  3 21  1  0  0  0  0
  3 22  1  0  0  0  0
  4 23  1  0  0  0  0
  4 24  1  0  0  0  0
  5 25  1  0  0  0  0
  5 26  1  0  0  0  0
  6 27  1  0  0  0  0
  6 28  1  0  0  0  0
 10 29  1  0  0  0  0
 10 30  1  0  0  0  0
 10 31  1  0  0  0  0
 11 32  1  0  0  0  0
 11 33  1  0  0  0  0
 12 34  1  0  0  0  0
 12 35  1  0  0  0  0
M  CHG  2  13  -1  15   1
M  END
> <id>
EN300-39870120

> <smiles>
CCOC(=O)[C@]1(C[C@@]2(CN=[N+]=[N-])C1)C3(CCC3)O2

> <IUPAC Name>
ethyl 4-(azidomethyl)-3-oxaspiro[bicyclo[2.1.1]hexane-2,1'-cyclobutane]-1-carboxylate

> <URL>
https://www.enaminestore.com/catalog/EN300-39870120

> <ROCS_ShapeQuery>
x0812_0A_x1140_0A_x1097_0A_x0365_0A_x1097_0A_x0310_0A

> <ROCS_TanimotoCombo>
0.757 

> <ROCS_ShapeTanimoto>
0.275 

> <ROCS_ColorTanimoto>
0.482 

> <ROCS_RefTversky>
0.243 

> <ROCS_RefColorTversky>
0.545 

> <ROCS_RefTverskyCombo>
0.788 

> <ROCS_FitTversky>
1.902 

> <ROCS_FitColorTversky>
0.806 

> <ROCS_FitTverskyCombo>
2.708 

> <ROCS_ColorScore>
-8.110

> <ROCS_Overlap>
2460.235

> <ROCS_Rank>
16                  

$$$$
untitled-dbase-590183_3
  -OEChem-02092408543D

 28 29  0     0  0  0  0  0  0999 V2000
    9.9222   12.0198   22.4056 C   0  0  0  0  0  0  0  0  0  0  0  0
    9.1881   11.7885   24.9757 C   0  0  0  0  0  0  0  0  0  0  0  0
    7.5697   11.7117   23.6576 C   0  0  0  0  0  0  0  0  0  0  0  0
    9.1026    9.7972   23.5417 C   0  0  0  0  0  0  0  0  0  0  0  0
    9.0846   11.3396   23.4738 C   0  0  0  0  0  0  0  0  0  0  0  0
    7.8558   10.9466   25.0059 C   0  0  0  0  0  0  0  0  0  0  0  0
   12.3180   14.7476   22.8622 C   0  0  0  0  0  0  0  0  0  0  0  0
    6.9087   11.0270   26.1642 C   0  0  0  0  0  0  0  0  0  0  0  0
   11.5356   13.7151   22.0789 C   0  0  0  0  0  0  0  0  0  0  0  0
    5.7727   10.1769   25.9553 N   0  0  0  0  0  0  0  0  0  0  0  0
    9.8926   11.7223   21.2191 O   0  0  0  0  0  0  0  0  0  0  0  0
    8.2111    9.5826   24.6490 O   0  0  0  0  0  0  0  0  0  0  0  0
   10.6906   12.9899   22.9778 O   0  0  0  0  0  0  0  0  0  0  0  0
   10.0246   11.3749   25.5467 H   0  0  0  0  0  0  0  0  0  0  0  0
    9.1061   12.8618   25.1804 H   0  0  0  0  0  0  0  0  0  0  0  0
    7.3251   12.7775   23.7304 H   0  0  0  0  0  0  0  0  0  0  0  0
    6.8667   11.2251   22.9752 H   0  0  0  0  0  0  0  0  0  0  0  0
    8.6937    9.3300   22.6415 H   0  0  0  0  0  0  0  0  0  0  0  0
   10.0921    9.3957   23.7785 H   0  0  0  0  0  0  0  0  0  0  0  0
   11.6455   15.4546   23.3560 H   0  0  0  0  0  0  0  0  0  0  0  0
   12.9425   14.2647   23.6209 H   0  0  0  0  0  0  0  0  0  0  0  0
   12.9920   15.3035   22.2019 H   0  0  0  0  0  0  0  0  0  0  0  0
    7.4373   10.7118   27.0730 H   0  0  0  0  0  0  0  0  0  0  0  0
    6.5714   12.0660   26.2710 H   0  0  0  0  0  0  0  0  0  0  0  0
   12.2139   13.0112   21.5875 H   0  0  0  0  0  0  0  0  0  0  0  0
   10.9116   14.1993   21.3218 H   0  0  0  0  0  0  0  0  0  0  0  0
    4.9357   10.7259   25.9600 H   0  0  0  0  0  0  0  0  0  0  0  0
    5.8584    9.7120   25.0729 H   0  0  0  0  0  0  0  0  0  0  0  0
  1  5  1  1  0  0  0
  1 11  2  0  0  0  0
  1 13  1  0  0  0  0
  2  5  1  0  0  0  0
  2  6  1  0  0  0  0
  3  5  1  0  0  0  0
  3  6  1  0  0  0  0
  4  5  1  0  0  0  0
  4 12  1  0  0  0  0
  6  8  1  1  0  0  0
  6 12  1  0  0  0  0
  7  9  1  0  0  0  0
  8 10  1  0  0  0  0
  9 13  1  0  0  0  0
  2 14  1  0  0  0  0
  2 15  1  0  0  0  0
  3 16  1  0  0  0  0
  3 17  1  0  0  0  0
  4 18  1  0  0  0  0
  4 19  1  0  0  0  0
  7 20  1  0  0  0  0
  7 21  1  0  0  0  0
  7 22  1  0  0  0  0
  8 23  1  0  0  0  0
  8 24  1  0  0  0  0
  9 25  1  0  0  0  0
  9 26  1  0  0  0  0
 10 27  1  0  0  0  0
 10 28  1  0  0  0  0
M  END
> <id>
EN300-39870134

> <smiles>
CCOC(=O)[C@]1(C[C@@]2(CN)C1)CO2

> <IUPAC Name>
ethyl (1r,4r)-1-(aminomethyl)-2-oxabicyclo[2.1.1]hexane-4-carboxylate

> <URL>
https://www.enaminestore.com/catalog/EN300-39870134

> <ROCS_ShapeQuery>
x0812_0A_x1140_0A_x1097_0A_x0365_0A_x1097_0A_x0310_0A

> <ROCS_TanimotoCombo>
0.757 

> <ROCS_ShapeTanimoto>
0.234 

> <ROCS_ColorTanimoto>
0.523 

> <ROCS_RefTversky>
0.210 

> <ROCS_RefColorTversky>
0.597 

> <ROCS_RefTverskyCombo>
0.806 

> <ROCS_FitTversky>
1.983 

> <ROCS_FitColorTversky>
0.809 

> <ROCS_FitTverskyCombo>
2.792 

> <ROCS_ColorScore>
-8.900

> <ROCS_Overlap>
2120.494

> <ROCS_Rank>
17                  

$$$$
untitled-dbase-567453_3
  -OEChem-02092408543D

 28 29  0     0  0  0  0  0  0999 V2000
    9.9222   12.0198   22.4056 C   0  0  0  0  0  0  0  0  0  0  0  0
    9.1881   11.7885   24.9757 C   0  0  0  0  0  0  0  0  0  0  0  0
    7.5697   11.7117   23.6576 C   0  0  0  0  0  0  0  0  0  0  0  0
    9.1026    9.7972   23.5417 C   0  0  0  0  0  0  0  0  0  0  0  0
    9.0846   11.3396   23.4738 C   0  0  0  0  0  0  0  0  0  0  0  0
    7.8558   10.9466   25.0059 C   0  0  0  0  0  0  0  0  0  0  0  0
   12.3180   14.7476   22.8622 C   0  0  0  0  0  0  0  0  0  0  0  0
    6.9087   11.0270   26.1642 C   0  0  0  0  0  0  0  0  0  0  0  0
   11.5356   13.7151   22.0789 C   0  0  0  0  0  0  0  0  0  0  0  0
    5.7727   10.1769   25.9553 N   0  0  0  0  0  0  0  0  0  0  0  0
    9.8926   11.7223   21.2191 O   0  0  0  0  0  0  0  0  0  0  0  0
    8.2111    9.5826   24.6490 O   0  0  0  0  0  0  0  0  0  0  0  0
   10.6906   12.9899   22.9778 O   0  0  0  0  0  0  0  0  0  0  0  0
   10.0246   11.3749   25.5467 H   0  0  0  0  0  0  0  0  0  0  0  0
    9.1061   12.8618   25.1804 H   0  0  0  0  0  0  0  0  0  0  0  0
    7.3251   12.7775   23.7304 H   0  0  0  0  0  0  0  0  0  0  0  0
    6.8667   11.2251   22.9752 H   0  0  0  0  0  0  0  0  0  0  0  0
    8.6937    9.3300   22.6415 H   0  0  0  0  0  0  0  0  0  0  0  0
   10.0921    9.3957   23.7785 H   0  0  0  0  0  0  0  0  0  0  0  0
   11.6455   15.4546   23.3560 H   0  0  0  0  0  0  0  0  0  0  0  0
   12.9425   14.2647   23.6209 H   0  0  0  0  0  0  0  0  0  0  0  0
   12.9920   15.3035   22.2019 H   0  0  0  0  0  0  0  0  0  0  0  0
    7.4373   10.7118   27.0730 H   0  0  0  0  0  0  0  0  0  0  0  0
    6.5714   12.0660   26.2710 H   0  0  0  0  0  0  0  0  0  0  0  0
   12.2139   13.0112   21.5875 H   0  0  0  0  0  0  0  0  0  0  0  0
   10.9116   14.1993   21.3218 H   0  0  0  0  0  0  0  0  0  0  0  0
    4.9357   10.7259   25.9600 H   0  0  0  0  0  0  0  0  0  0  0  0
    5.8584    9.7120   25.0729 H   0  0  0  0  0  0  0  0  0  0  0  0
  1  5  1  1  0  0  0
  1 11  2  0  0  0  0
  1 13  1  0  0  0  0
  2  5  1  0  0  0  0
  2  6  1  0  0  0  0
  3  5  1  0  0  0  0
  3  6  1  0  0  0  0
  4  5  1  0  0  0  0
  4 12  1  0  0  0  0
  6  8  1  1  0  0  0
  6 12  1  0  0  0  0
  7  9  1  0  0  0  0
  8 10  1  0  0  0  0
  9 13  1  0  0  0  0
  2 14  1  0  0  0  0
  2 15  1  0  0  0  0
  3 16  1  0  0  0  0
  3 17  1  0  0  0  0
  4 18  1  0  0  0  0
  4 19  1  0  0  0  0
  7 20  1  0  0  0  0
  7 21  1  0  0  0  0
  7 22  1  0  0  0  0
  8 23  1  0  0  0  0
  8 24  1  0  0  0  0
  9 25  1  0  0  0  0
  9 26  1  0  0  0  0
 10 27  1  0  0  0  0
 10 28  1  0  0  0  0
M  END
> <id>
EN300-37375233

> <smiles>
Cl.CCOC(=O)[C@]1(C[C@@]2(CN)C1)CO2

> <IUPAC Name>
ethyl 1-(aminomethyl)-2-oxabicyclo[2.1.1]hexane-4-carboxylate hydrochloride

> <CAS>
2230799-70-7

> <URL>
https://www.enaminestore.com/catalog/EN300-37375233

> <ROCS_ShapeQuery>
x0812_0A_x1140_0A_x1097_0A_x0365_0A_x1097_0A_x0310_0A

> <ROCS_TanimotoCombo>
0.757 

> <ROCS_ShapeTanimoto>
0.234 

> <ROCS_ColorTanimoto>
0.523 

> <ROCS_RefTversky>
0.210 

> <ROCS_RefColorTversky>
0.597 

> <ROCS_RefTverskyCombo>
0.806 

> <ROCS_FitTversky>
1.983 

> <ROCS_FitColorTversky>
0.809 

> <ROCS_FitTverskyCombo>
2.792 

> <ROCS_ColorScore>
-8.900

> <ROCS_Overlap>
2120.494

> <ROCS_Rank>
18                  

$$$$
untitled-dbase-254091_3
  -OEChem-02092408543D

 28 29  0     0  0  0  0  0  0999 V2000
    9.9222   12.0198   22.4054 C   0  0  0  0  0  0  0  0  0  0  0  0
    9.1883   11.7883   24.9756 C   0  0  0  0  0  0  0  0  0  0  0  0
    7.5699   11.7117   23.6576 C   0  0  0  0  0  0  0  0  0  0  0  0
    9.1023    9.7972   23.5417 C   0  0  0  0  0  0  0  0  0  0  0  0
    9.0847   11.3394   23.4738 C   0  0  0  0  0  0  0  0  0  0  0  0
    7.8559   10.9467   25.0060 C   0  0  0  0  0  0  0  0  0  0  0  0
   12.3179   14.7477   22.8619 C   0  0  0  0  0  0  0  0  0  0  0  0
    6.9087   11.0269   26.1642 C   0  0  0  0  0  0  0  0  0  0  0  0
   11.5355   13.7152   22.0786 C   0  0  0  0  0  0  0  0  0  0  0  0
    5.7727   10.1769   25.9551 N   0  0  0  0  0  0  0  0  0  0  0  0
    9.8925   11.7224   21.2189 O   0  0  0  0  0  0  0  0  0  0  0  0
    8.2110    9.5827   24.6492 O   0  0  0  0  0  0  0  0  0  0  0  0
   10.6907   12.9899   22.9777 O   0  0  0  0  0  0  0  0  0  0  0  0
   10.0245   11.3742   25.5469 H   0  0  0  0  0  0  0  0  0  0  0  0
    9.1054   12.8615   25.1807 H   0  0  0  0  0  0  0  0  0  0  0  0
    7.3249   12.7772   23.7312 H   0  0  0  0  0  0  0  0  0  0  0  0
    6.8665   11.2251   22.9756 H   0  0  0  0  0  0  0  0  0  0  0  0
    8.6935    9.3297   22.6413 H   0  0  0  0  0  0  0  0  0  0  0  0
   10.0919    9.3960   23.7788 H   0  0  0  0  0  0  0  0  0  0  0  0
   11.6454   15.4546   23.3559 H   0  0  0  0  0  0  0  0  0  0  0  0
   12.9425   14.2648   23.6206 H   0  0  0  0  0  0  0  0  0  0  0  0
   12.9918   15.3037   22.2017 H   0  0  0  0  0  0  0  0  0  0  0  0
    7.4373   10.7115   27.0730 H   0  0  0  0  0  0  0  0  0  0  0  0
    6.5715   12.0658   26.2713 H   0  0  0  0  0  0  0  0  0  0  0  0
   12.2138   13.0114   21.5872 H   0  0  0  0  0  0  0  0  0  0  0  0
   10.9114   14.1994   21.3217 H   0  0  0  0  0  0  0  0  0  0  0  0
    4.9357   10.7259   25.9599 H   0  0  0  0  0  0  0  0  0  0  0  0
    5.8584    9.7121   25.0726 H   0  0  0  0  0  0  0  0  0  0  0  0
  1  5  1  0  0  0  0
  1 11  2  0  0  0  0
  1 13  1  0  0  0  0
  2  5  1  0  0  0  0
  2  6  1  0  0  0  0
  3  5  1  0  0  0  0
  3  6  1  0  0  0  0
  4  5  1  0  0  0  0
  4 12  1  0  0  0  0
  6  8  1  0  0  0  0
  6 12  1  0  0  0  0
  7  9  1  0  0  0  0
  8 10  1  0  0  0  0
  9 13  1  0  0  0  0
  2 14  1  0  0  0  0
  2 15  1  0  0  0  0
  3 16  1  0  0  0  0
  3 17  1  0  0  0  0
  4 18  1  0  0  0  0
  4 19  1  0  0  0  0
  7 20  1  0  0  0  0
  7 21  1  0  0  0  0
  7 22  1  0  0  0  0
  8 23  1  0  0  0  0
  8 24  1  0  0  0  0
  9 25  1  0  0  0  0
  9 26  1  0  0  0  0
 10 27  1  0  0  0  0
 10 28  1  0  0  0  0
M  END
> <id>
EN300-2008981

> <smiles>
CCOC(=O)C1(CC2(CN)C1)CO2

> <MDLNUMBER>
MFCD31690927

> <IUPAC Name>
ethyl 1-(aminomethyl)-2-oxabicyclo[2.1.1]hexane-4-carboxylate

> <CAS>
2230799-69-4

> <URL>
https://www.enaminestore.com/catalog/EN300-2008981

> <ROCS_ShapeQuery>
x0812_0A_x1140_0A_x1097_0A_x0365_0A_x1097_0A_x0310_0A

> <ROCS_TanimotoCombo>
0.757 

> <ROCS_ShapeTanimoto>
0.234 

> <ROCS_ColorTanimoto>
0.523 

> <ROCS_RefTversky>
0.210 

> <ROCS_RefColorTversky>
0.597 

> <ROCS_RefTverskyCombo>
0.806 

> <ROCS_FitTversky>
1.983 

> <ROCS_FitColorTversky>
0.809 

> <ROCS_FitTverskyCombo>
2.792 

> <ROCS_ColorScore>
-8.900

> <ROCS_Overlap>
2120.467

> <ROCS_Rank>
19                  

$$$$
untitled-dbase-254841_3
  -OEChem-02092408543D

 28 29  0     0  0  0  0  0  0999 V2000
    9.9222   12.0198   22.4054 C   0  0  0  0  0  0  0  0  0  0  0  0
    9.1883   11.7883   24.9756 C   0  0  0  0  0  0  0  0  0  0  0  0
    7.5699   11.7117   23.6576 C   0  0  0  0  0  0  0  0  0  0  0  0
    9.1023    9.7972   23.5417 C   0  0  0  0  0  0  0  0  0  0  0  0
    9.0847   11.3394   23.4738 C   0  0  0  0  0  0  0  0  0  0  0  0
    7.8559   10.9467   25.0060 C   0  0  0  0  0  0  0  0  0  0  0  0
   12.3179   14.7477   22.8619 C   0  0  0  0  0  0  0  0  0  0  0  0
    6.9087   11.0269   26.1642 C   0  0  0  0  0  0  0  0  0  0  0  0
   11.5355   13.7152   22.0786 C   0  0  0  0  0  0  0  0  0  0  0  0
    5.7727   10.1769   25.9551 N   0  0  0  0  0  0  0  0  0  0  0  0
    9.8925   11.7224   21.2189 O   0  0  0  0  0  0  0  0  0  0  0  0
    8.2110    9.5827   24.6492 O   0  0  0  0  0  0  0  0  0  0  0  0
   10.6907   12.9899   22.9777 O   0  0  0  0  0  0  0  0  0  0  0  0
   10.0245   11.3742   25.5469 H   0  0  0  0  0  0  0  0  0  0  0  0
    9.1054   12.8615   25.1807 H   0  0  0  0  0  0  0  0  0  0  0  0
    7.3249   12.7772   23.7312 H   0  0  0  0  0  0  0  0  0  0  0  0
    6.8665   11.2251   22.9756 H   0  0  0  0  0  0  0  0  0  0  0  0
    8.6935    9.3297   22.6413 H   0  0  0  0  0  0  0  0  0  0  0  0
   10.0919    9.3960   23.7788 H   0  0  0  0  0  0  0  0  0  0  0  0
   11.6454   15.4546   23.3559 H   0  0  0  0  0  0  0  0  0  0  0  0
   12.9425   14.2648   23.6206 H   0  0  0  0  0  0  0  0  0  0  0  0
   12.9918   15.3037   22.2017 H   0  0  0  0  0  0  0  0  0  0  0  0
    7.4373   10.7115   27.0730 H   0  0  0  0  0  0  0  0  0  0  0  0
    6.5715   12.0658   26.2713 H   0  0  0  0  0  0  0  0  0  0  0  0
   12.2138   13.0114   21.5872 H   0  0  0  0  0  0  0  0  0  0  0  0
   10.9114   14.1994   21.3217 H   0  0  0  0  0  0  0  0  0  0  0  0
    4.9357   10.7259   25.9599 H   0  0  0  0  0  0  0  0  0  0  0  0
    5.8584    9.7121   25.0726 H   0  0  0  0  0  0  0  0  0  0  0  0
  1  5  1  0  0  0  0
  1 11  2  0  0  0  0
  1 13  1  0  0  0  0
  2  5  1  0  0  0  0
  2  6  1  0  0  0  0
  3  5  1  0  0  0  0
  3  6  1  0  0  0  0
  4  5  1  0  0  0  0
  4 12  1  0  0  0  0
  6  8  1  0  0  0  0
  6 12  1  0  0  0  0
  7  9  1  0  0  0  0
  8 10  1  0  0  0  0
  9 13  1  0  0  0  0
  2 14  1  0  0  0  0
  2 15  1  0  0  0  0
  3 16  1  0  0  0  0
  3 17  1  0  0  0  0
  4 18  1  0  0  0  0
  4 19  1  0  0  0  0
  7 20  1  0  0  0  0
  7 21  1  0  0  0  0
  7 22  1  0  0  0  0
  8 23  1  0  0  0  0
  8 24  1  0  0  0  0
  9 25  1  0  0  0  0
  9 26  1  0  0  0  0
 10 27  1  0  0  0  0
 10 28  1  0  0  0  0
M  END
> <id>
EN300-2008980

> <smiles>
Cl.CCOC(=O)C1(CC2(CN)C1)CO2

> <MDLNUMBER>
MFCD31667125

> <IUPAC Name>
ethyl 1-(aminomethyl)-2-oxabicyclo[2.1.1]hexane-4-carboxylate hydrochloride

> <CAS>
2230799-70-7

> <Purity>
95

> <URL>
https://www.enaminestore.com/catalog/EN300-2008980

> <Saltdate>
Cl

> <ROCS_ShapeQuery>
x0812_0A_x1140_0A_x1097_0A_x0365_0A_x1097_0A_x0310_0A

> <ROCS_TanimotoCombo>
0.757 

> <ROCS_ShapeTanimoto>
0.234 

> <ROCS_ColorTanimoto>
0.523 

> <ROCS_RefTversky>
0.210 

> <ROCS_RefColorTversky>
0.597 

> <ROCS_RefTverskyCombo>
0.806 

> <ROCS_FitTversky>
1.983 

> <ROCS_FitColorTversky>
0.809 

> <ROCS_FitTverskyCombo>
2.792 

> <ROCS_ColorScore>
-8.900

> <ROCS_Overlap>
2120.467

> <ROCS_Rank>
20                  

$$$$
untitled-dbase-560912_2
  -OEChem-02092408543D

 28 30  0     1  0  0  0  0  0999 V2000
   10.8056   11.6983   25.2797 C   0  0  0  0  0  0  0  0  0  0  0  0
    9.7692   12.0843   26.3092 C   0  0  0  0  0  0  0  0  0  0  0  0
    7.1994   10.5354   25.1056 C   0  0  0  0  0  0  0  0  0  0  0  0
    8.6801   10.1387   24.8706 C   0  0  1  0  0  0  0  0  0  0  0  0
    8.5409   12.2099   23.9539 C   0  0  1  0  0  0  0  0  0  0  0  0
    8.8669    9.8676   23.3561 C   0  0  1  0  0  0  0  0  0  0  0  0
    8.7810   11.2843   22.7278 C   0  0  2  0  0  0  0  0  0  0  0  0
    7.1275   11.9782   24.5459 C   0  0  1  0  0  0  0  0  0  0  0  0
    9.3460   11.4809   24.9993 C   0  0  0  0  0  0  0  0  0  0  0  0
    6.0740   13.4123   22.6209 O   0  0  0  0  0  0  0  0  0  0  0  0
    4.5390   12.0980   24.1484 O   0  0  0  0  0  0  0  0  0  0  0  0
   10.1228    9.2461   23.1358 O   0  0  0  0  0  0  0  0  0  0  0  0
    9.9940   11.6664   22.0924 O   0  0  0  0  0  0  0  0  0  0  0  0
    5.7973   12.2384   23.4332 S   0  0  0  0  0  0  0  0  0  0  0  0
    5.8155   10.6741   22.1054 Cl  0  0  0  0  0  0  0  0  0  0  0  0
   11.3144   12.4992   24.7577 H   0  0  0  0  0  0  0  0  0  0  0  0
   11.4216   10.8326   25.4888 H   0  0  0  0  0  0  0  0  0  0  0  0
    9.6980   11.4747   27.2015 H   0  0  0  0  0  0  0  0  0  0  0  0
    9.5921   13.1407   26.4688 H   0  0  0  0  0  0  0  0  0  0  0  0
    6.5016    9.8388   24.6304 H   0  0  0  0  0  0  0  0  0  0  0  0
    6.9822   10.5526   26.1803 H   0  0  0  0  0  0  0  0  0  0  0  0
    9.0549    9.3500   25.5266 H   0  0  0  0  0  0  0  0  0  0  0  0
    8.8073   13.2573   23.7926 H   0  0  0  0  0  0  0  0  0  0  0  0
    8.0812    9.2054   22.9766 H   0  0  0  0  0  0  0  0  0  0  0  0
    7.9819   11.3582   21.9866 H   0  0  0  0  0  0  0  0  0  0  0  0
    6.9571   12.6757   25.3759 H   0  0  0  0  0  0  0  0  0  0  0  0
   10.1177    8.4128   23.6355 H   0  0  0  0  0  0  0  0  0  0  0  0
    9.8860   12.5907   21.8160 H   0  0  0  0  0  0  0  0  0  0  0  0
  1  2  1  0  0  0  0
  1  9  1  0  0  0  0
  2  9  1  0  0  0  0
  3  4  1  6  0  0  0
  3  8  1  0  0  0  0
  4  6  1  0  0  0  0
  4  9  1  0  0  0  0
  5  7  1  0  0  0  0
  5  8  1  0  0  0  0
  5  9  1  1  0  0  0
  6  7  1  0  0  0  0
  6 12  1  1  0  0  0
  7 13  1  1  0  0  0
  8 14  1  6  0  0  0
 10 14  2  0  0  0  0
 11 14  2  0  0  0  0
 14 15  1  0  0  0  0
  1 16  1  0  0  0  0
  1 17  1  0  0  0  0
  2 18  1  0  0  0  0
  2 19  1  0  0  0  0
  3 20  1  0  0  0  0
  3 21  1  0  0  0  0
  4 22  1  0  0  0  0
  5 23  1  0  0  0  0
  6 24  1  0  0  0  0
  7 25  1  0  0  0  0
  8 26  1  0  0  0  0
 12 27  1  0  0  0  0
 13 28  1  0  0  0  0
M  END
> <id>
EN300-27108160

> <smiles>
O[C@@H]1[C@H](O)[C@H]2[C@H](C[C@@H]1C32CC3)S(=O)(=O)Cl |&1:1,2,4,5,7,r|

> <IUPAC Name>
rac-(1R,3S,4S,5R,6S)-5,6-dihydroxyspiro[bicyclo[2.2.1]heptane-7,1'-cyclopropane]-3-sulfonyl chloride

> <CAS>
2763931-64-0

> <URL>
https://www.enaminestore.com/catalog/EN300-27108160

> <ROCS_ShapeQuery>
x0812_0A_x1140_0A_x1097_0A_x0365_0A_x1097_0A_x0310_0A

> <ROCS_TanimotoCombo>
0.757 

> <ROCS_ShapeTanimoto>
0.206 

> <ROCS_ColorTanimoto>
0.550 

> <ROCS_RefTversky>
0.190 

> <ROCS_RefColorTversky>
0.607 

> <ROCS_RefTverskyCombo>
0.797 

> <ROCS_FitTversky>
1.685 

> <ROCS_FitColorTversky>
0.856 

> <ROCS_FitTverskyCombo>
2.541 

> <ROCS_ColorScore>
-9.039

> <ROCS_Overlap>
1924.734

> <ROCS_Rank>
21                  

$$$$
untitled-dbase-558661_8
  -OEChem-02092408543D

 34 35  0     0  0  0  0  0  0999 V2000
   10.0290   11.9222   22.4771 C   0  0  0  0  0  0  0  0  0  0  0  0
    9.1746   11.7548   25.0156 C   0  0  0  0  0  0  0  0  0  0  0  0
    7.6148   11.8380   23.6462 C   0  0  0  0  0  0  0  0  0  0  0  0
    9.0945   11.2929   23.5033 C   0  0  0  0  0  0  0  0  0  0  0  0
    7.7736   11.0323   24.9919 C   0  0  0  0  0  0  0  0  0  0  0  0
    8.9578    9.7437   23.5650 C   0  0  0  0  0  0  0  0  0  0  0  0
    8.3752    9.1424   22.2897 C   0  0  0  0  0  0  0  0  0  0  0  0
   10.2585    9.0423   23.9435 C   0  0  0  0  0  0  0  0  0  0  0  0
   12.5684   14.4904   23.0640 C   0  0  0  0  0  0  0  0  0  0  0  0
    6.7963   11.2007   26.1157 C   0  0  0  0  0  0  0  0  0  0  0  0
   11.7615   13.5113   22.2382 C   0  0  0  0  0  0  0  0  0  0  0  0
    3.7220   10.9700   27.2936 N   0  5  0  0  0  0  0  0  0  0  0  0
    5.4494   10.8407   25.6568 N   0  0  0  0  0  0  0  0  0  0  0  0
    4.5526   10.9097   26.5141 N   0  3  0  0  0  0  0  0  0  0  0  0
   10.0392   11.6290   21.2892 O   0  0  0  0  0  0  0  0  0  0  0  0
    8.0069    9.6352   24.6413 O   0  0  0  0  0  0  0  0  0  0  0  0
   10.8285   12.8402   23.0911 O   0  0  0  0  0  0  0  0  0  0  0  0
    9.9377   11.2945   25.6471 H   0  0  0  0  0  0  0  0  0  0  0  0
    9.1767   12.8352   25.2049 H   0  0  0  0  0  0  0  0  0  0  0  0
    7.4921   12.9250   23.7255 H   0  0  0  0  0  0  0  0  0  0  0  0
    6.8644   11.4583   22.9492 H   0  0  0  0  0  0  0  0  0  0  0  0
    8.3028    8.0600   22.3895 H   0  0  0  0  0  0  0  0  0  0  0  0
    9.0168    9.3788   21.4417 H   0  0  0  0  0  0  0  0  0  0  0  0
    7.3814    9.5498   22.1081 H   0  0  0  0  0  0  0  0  0  0  0  0
   10.1041    7.9642   23.9713 H   0  0  0  0  0  0  0  0  0  0  0  0
   10.5893    9.3790   24.9253 H   0  0  0  0  0  0  0  0  0  0  0  0
   11.0307    9.2718   23.2102 H   0  0  0  0  0  0  0  0  0  0  0  0
   11.9189   15.2382   23.5275 H   0  0  0  0  0  0  0  0  0  0  0  0
   13.1225   13.9674   23.8503 H   0  0  0  0  0  0  0  0  0  0  0  0
   13.3083   15.0031   22.4404 H   0  0  0  0  0  0  0  0  0  0  0  0
    6.7812   12.2403   26.4749 H   0  0  0  0  0  0  0  0  0  0  0  0
    7.0611   10.5606   26.9703 H   0  0  0  0  0  0  0  0  0  0  0  0
   12.4170   12.7663   21.7776 H   0  0  0  0  0  0  0  0  0  0  0  0
   11.2078   14.0356   21.4537 H   0  0  0  0  0  0  0  0  0  0  0  0
  1  4  1  1  0  0  0
  1 15  2  0  0  0  0
  1 17  1  0  0  0  0
  2  4  1  0  0  0  0
  2  5  1  0  0  0  0
  3  4  1  0  0  0  0
  3  5  1  0  0  0  0
  4  6  1  0  0  0  0
  5 10  1  1  0  0  0
  5 16  1  0  0  0  0
  6  7  1  0  0  0  0
  6  8  1  0  0  0  0
  6 16  1  0  0  0  0
  9 11  1  0  0  0  0
 10 13  1  0  0  0  0
 11 17  1  0  0  0  0
 12 14  2  0  0  0  0
 13 14  2  0  0  0  0
  2 18  1  0  0  0  0
  2 19  1  0  0  0  0
  3 20  1  0  0  0  0
  3 21  1  0  0  0  0
  7 22  1  0  0  0  0
  7 23  1  0  0  0  0
  7 24  1  0  0  0  0
  8 25  1  0  0  0  0
  8 26  1  0  0  0  0
  8 27  1  0  0  0  0
  9 28  1  0  0  0  0
  9 29  1  0  0  0  0
  9 30  1  0  0  0  0
 10 31  1  0  0  0  0
 10 32  1  0  0  0  0
 11 33  1  0  0  0  0
 11 34  1  0  0  0  0
M  CHG  2  12  -1  14   1
M  END
> <id>
EN300-37375221

> <smiles>
CCOC(=O)[C@]1(C[C@@]2(CN=[N+]=[N-])C1)C(C)(C)O2

> <IUPAC Name>
ethyl 1-(azidomethyl)-3,3-dimethyl-2-oxabicyclo[2.1.1]hexane-4-carboxylate

> <CAS>
2229261-01-0

> <URL>
https://www.enaminestore.com/catalog/EN300-37375221

> <ROCS_ShapeQuery>
x0812_0A_x1140_0A_x1097_0A_x0365_0A_x1097_0A_x0310_0A

> <ROCS_TanimotoCombo>
0.755 

> <ROCS_ShapeTanimoto>
0.267 

> <ROCS_ColorTanimoto>
0.487 

> <ROCS_RefTversky>
0.237 

> <ROCS_RefColorTversky>
0.549 

> <ROCS_RefTverskyCombo>
0.785 

> <ROCS_FitTversky>
1.931 

> <ROCS_FitColorTversky>
0.814 

> <ROCS_FitTverskyCombo>
2.745 

> <ROCS_ColorScore>
-8.157

> <ROCS_Overlap>
2395.363

> <ROCS_Rank>
22                  

$$$$
untitled-dbase-388564_8
  -OEChem-02092408543D

 34 35  0     0  0  0  0  0  0999 V2000
   10.0292   11.9220   22.4770 C   0  0  0  0  0  0  0  0  0  0  0  0
    9.1750   11.7545   25.0155 C   0  0  0  0  0  0  0  0  0  0  0  0
    7.6151   11.8382   23.6464 C   0  0  0  0  0  0  0  0  0  0  0  0
    9.0944   11.2927   23.5031 C   0  0  0  0  0  0  0  0  0  0  0  0
    7.7739   11.0324   24.9921 C   0  0  0  0  0  0  0  0  0  0  0  0
    8.9571    9.7436   23.5647 C   0  0  0  0  0  0  0  0  0  0  0  0
    8.3734    9.1432   22.2895 C   0  0  0  0  0  0  0  0  0  0  0  0
   10.2575    9.0412   23.9421 C   0  0  0  0  0  0  0  0  0  0  0  0
   12.5694   14.4893   23.0647 C   0  0  0  0  0  0  0  0  0  0  0  0
    6.7970   11.2011   26.1159 C   0  0  0  0  0  0  0  0  0  0  0  0
   11.7621   13.5107   22.2386 C   0  0  0  0  0  0  0  0  0  0  0  0
    3.7232   10.9711   27.2951 N   0  5  0  0  0  0  0  0  0  0  0  0
    5.4498   10.8416   25.6576 N   0  0  0  0  0  0  0  0  0  0  0  0
    4.5534   10.9108   26.5153 N   0  3  0  0  0  0  0  0  0  0  0  0
   10.0393   11.6292   21.2890 O   0  0  0  0  0  0  0  0  0  0  0  0
    8.0068    9.6352   24.6414 O   0  0  0  0  0  0  0  0  0  0  0  0
   10.8290   12.8396   23.0913 O   0  0  0  0  0  0  0  0  0  0  0  0
    9.9382   11.2937   25.6465 H   0  0  0  0  0  0  0  0  0  0  0  0
    9.1777   12.8347   25.2048 H   0  0  0  0  0  0  0  0  0  0  0  0
    7.4930   12.9252   23.7256 H   0  0  0  0  0  0  0  0  0  0  0  0
    6.8645   11.4586   22.9497 H   0  0  0  0  0  0  0  0  0  0  0  0
    8.3004    8.0608   22.3889 H   0  0  0  0  0  0  0  0  0  0  0  0
    9.0145    9.3796   21.4412 H   0  0  0  0  0  0  0  0  0  0  0  0
    7.3796    9.5512   22.1087 H   0  0  0  0  0  0  0  0  0  0  0  0
   10.1024    7.9632   23.9697 H   0  0  0  0  0  0  0  0  0  0  0  0
   10.5894    9.3775   24.9237 H   0  0  0  0  0  0  0  0  0  0  0  0
   11.0294    9.2704   23.2082 H   0  0  0  0  0  0  0  0  0  0  0  0
   11.9201   15.2371   23.5283 H   0  0  0  0  0  0  0  0  0  0  0  0
   13.1233   13.9659   23.8508 H   0  0  0  0  0  0  0  0  0  0  0  0
   13.3095   15.0019   22.4412 H   0  0  0  0  0  0  0  0  0  0  0  0
    6.7823   12.2407   26.4753 H   0  0  0  0  0  0  0  0  0  0  0  0
    7.0617   10.5610   26.9706 H   0  0  0  0  0  0  0  0  0  0  0  0
   12.4174   12.7655   21.7777 H   0  0  0  0  0  0  0  0  0  0  0  0
   11.2086   14.0354   21.4542 H   0  0  0  0  0  0  0  0  0  0  0  0
  1  4  1  0  0  0  0
  1 15  2  0  0  0  0
  1 17  1  0  0  0  0
  2  4  1  0  0  0  0
  2  5  1  0  0  0  0
  3  4  1  0  0  0  0
  3  5  1  0  0  0  0
  4  6  1  0  0  0  0
  5 10  1  0  0  0  0
  5 16  1  0  0  0  0
  6  7  1  0  0  0  0
  6  8  1  0  0  0  0
  6 16  1  0  0  0  0
  9 11  1  0  0  0  0
 10 13  1  0  0  0  0
 11 17  1  0  0  0  0
 12 14  2  0  0  0  0
 13 14  2  0  0  0  0
  2 18  1  0  0  0  0
  2 19  1  0  0  0  0
  3 20  1  0  0  0  0
  3 21  1  0  0  0  0
  7 22  1  0  0  0  0
  7 23  1  0  0  0  0
  7 24  1  0  0  0  0
  8 25  1  0  0  0  0
  8 26  1  0  0  0  0
  8 27  1  0  0  0  0
  9 28  1  0  0  0  0
  9 29  1  0  0  0  0
  9 30  1  0  0  0  0
 10 31  1  0  0  0  0
 10 32  1  0  0  0  0
 11 33  1  0  0  0  0
 11 34  1  0  0  0  0
M  CHG  2  12  -1  14   1
M  END
> <id>
EN300-1725251

> <smiles>
CCOC(=O)C1(CC2(CN=[N+]=[N-])C1)C(C)(C)O2

> <MDLNUMBER>
MFCD31690040

> <IUPAC Name>
ethyl 1-(azidomethyl)-3,3-dimethyl-2-oxabicyclo[2.1.1]hexane-4-carboxylate

> <CAS>
2229261-01-0

> <Purity>
95

> <URL>
https://www.enaminestore.com/catalog/EN300-1725251

> <ROCS_ShapeQuery>
x0812_0A_x1140_0A_x1097_0A_x0365_0A_x1097_0A_x0310_0A

> <ROCS_TanimotoCombo>
0.755 

> <ROCS_ShapeTanimoto>
0.267 

> <ROCS_ColorTanimoto>
0.487 

> <ROCS_RefTversky>
0.237 

> <ROCS_RefColorTversky>
0.549 

> <ROCS_RefTverskyCombo>
0.785 

> <ROCS_FitTversky>
1.931 

> <ROCS_FitColorTversky>
0.814 

> <ROCS_FitTverskyCombo>
2.745 

> <ROCS_ColorScore>
-8.156

> <ROCS_Overlap>
2395.405

> <ROCS_Rank>
23                  

$$$$
untitled-dbase-496109_4
  -OEChem-02092408543D

 35 36  0     0  0  0  0  0  0999 V2000
   10.0313   11.9178   22.4769 C   0  0  0  0  0  0  0  0  0  0  0  0
    9.1852   11.7467   25.0179 C   0  0  0  0  0  0  0  0  0  0  0  0
    7.6210   11.8445   23.6547 C   0  0  0  0  0  0  0  0  0  0  0  0
    9.0965   11.2906   23.5042 C   0  0  0  0  0  0  0  0  0  0  0  0
    7.7797   11.0331   24.9970 C   0  0  0  0  0  0  0  0  0  0  0  0
    8.9500    9.7421   23.5610 C   0  0  0  0  0  0  0  0  0  0  0  0
    8.3582    9.1496   22.2859 C   0  0  0  0  0  0  0  0  0  0  0  0
   10.2476    9.0306   23.9313 C   0  0  0  0  0  0  0  0  0  0  0  0
   12.5890   14.4677   23.0642 C   0  0  0  0  0  0  0  0  0  0  0  0
    6.8079   11.2038   26.1249 C   0  0  0  0  0  0  0  0  0  0  0  0
   11.7729   13.4968   22.2377 C   0  0  0  0  0  0  0  0  0  0  0  0
   10.0355   11.6290   21.2879 O   0  0  0  0  0  0  0  0  0  0  0  0
    5.1098    9.4425   25.1888 O   0  0  0  0  0  0  0  0  0  0  0  0
    4.6512   11.9049   24.8137 O   0  0  0  0  0  0  0  0  0  0  0  0
    8.0030    9.6358   24.6408 O   0  0  0  0  0  0  0  0  0  0  0  0
   10.8388   12.8284   23.0914 O   0  0  0  0  0  0  0  0  0  0  0  0
    4.2883   10.8626   26.9647 F   0  0  0  0  0  0  0  0  0  0  0  0
    5.1526   10.8208   25.6341 S   0  0  0  0  0  0  0  0  0  0  0  0
    9.9479   11.2792   25.6445 H   0  0  0  0  0  0  0  0  0  0  0  0
    9.1951   12.8262   25.2109 H   0  0  0  0  0  0  0  0  0  0  0  0
    7.5057   12.9319   23.7380 H   0  0  0  0  0  0  0  0  0  0  0  0
    6.8656   11.4718   22.9593 H   0  0  0  0  0  0  0  0  0  0  0  0
    8.2791    8.0673   22.3818 H   0  0  0  0  0  0  0  0  0  0  0  0
    8.9977    9.3850   21.4360 H   0  0  0  0  0  0  0  0  0  0  0  0
    7.3663    9.5642   22.1100 H   0  0  0  0  0  0  0  0  0  0  0  0
   10.0861    7.9535   23.9558 H   0  0  0  0  0  0  0  0  0  0  0  0
   10.5850    9.3616   24.9128 H   0  0  0  0  0  0  0  0  0  0  0  0
   11.0182    9.2577   23.1955 H   0  0  0  0  0  0  0  0  0  0  0  0
   11.9459   15.2179   23.5327 H   0  0  0  0  0  0  0  0  0  0  0  0
   13.1426   13.9383   23.8466 H   0  0  0  0  0  0  0  0  0  0  0  0
   13.3299   14.9780   22.4398 H   0  0  0  0  0  0  0  0  0  0  0  0
    6.7936   12.2383   26.4943 H   0  0  0  0  0  0  0  0  0  0  0  0
    7.0458   10.5418   26.9684 H   0  0  0  0  0  0  0  0  0  0  0  0
   12.4221   12.7494   21.7719 H   0  0  0  0  0  0  0  0  0  0  0  0
   11.2198   14.0275   21.4570 H   0  0  0  0  0  0  0  0  0  0  0  0
  1  4  1  0  0  0  0
  1 12  2  0  0  0  0
  1 16  1  0  0  0  0
  2  4  1  0  0  0  0
  2  5  1  0  0  0  0
  3  4  1  0  0  0  0
  3  5  1  0  0  0  0
  4  6  1  0  0  0  0
  5 10  1  0  0  0  0
  5 15  1  0  0  0  0
  6  7  1  0  0  0  0
  6  8  1  0  0  0  0
  6 15  1  0  0  0  0
  9 11  1  0  0  0  0
 10 18  1  0  0  0  0
 11 16  1  0  0  0  0
 13 18  2  0  0  0  0
 14 18  2  0  0  0  0
 17 18  1  0  0  0  0
  2 19  1  0  0  0  0
  2 20  1  0  0  0  0
  3 21  1  0  0  0  0
  3 22  1  0  0  0  0
  7 23  1  0  0  0  0
  7 24  1  0  0  0  0
  7 25  1  0  0  0  0
  8 26  1  0  0  0  0
  8 27  1  0  0  0  0
  8 28  1  0  0  0  0
  9 29  1  0  0  0  0
  9 30  1  0  0  0  0
  9 31  1  0  0  0  0
 10 32  1  0  0  0  0
 10 33  1  0  0  0  0
 11 34  1  0  0  0  0
 11 35  1  0  0  0  0
M  END
> <id>
EN300-6486179

> <smiles>
CCOC(=O)C1(CC2(CS(=O)(=O)F)C1)C(C)(C)O2

> <IUPAC Name>
ethyl 1-[(fluorosulfonyl)methyl]-3,3-dimethyl-2-oxabicyclo[2.1.1]hexane-4-carboxylate

> <CAS>
2648956-83-4

> <URL>
https://www.enaminestore.com/catalog/EN300-6486179

> <ROCS_ShapeQuery>
x0812_0A_x1140_0A_x1097_0A_x0365_0A_x1097_0A_x0310_0A

> <ROCS_TanimotoCombo>
0.754 

> <ROCS_ShapeTanimoto>
0.267 

> <ROCS_ColorTanimoto>
0.487 

> <ROCS_RefTversky>
0.237 

> <ROCS_RefColorTversky>
0.549 

> <ROCS_RefTverskyCombo>
0.786 

> <ROCS_FitTversky>
1.895 

> <ROCS_FitColorTversky>
0.814 

> <ROCS_FitTverskyCombo>
2.709 

> <ROCS_ColorScore>
-8.156

> <ROCS_Overlap>
2399.282

> <ROCS_Rank>
24                  

$$$$
untitled-dbase-388943_6
  -OEChem-02092408543D

 33 35  0     0  0  0  0  0  0999 V2000
    9.9473   12.0868   22.4633 C   0  0  0  0  0  0  0  0  0  0  0  0
    8.9292   11.9958   24.9452 C   0  0  0  0  0  0  0  0  0  0  0  0
    7.4893   11.6704   23.4592 C   0  0  0  0  0  0  0  0  0  0  0  0
    9.0528    8.9897   22.5515 C   0  0  0  0  0  0  0  0  0  0  0  0
   10.4731    9.3112   24.0174 C   0  0  0  0  0  0  0  0  0  0  0  0
    9.0480   11.4049   23.4831 C   0  0  0  0  0  0  0  0  0  0  0  0
    9.0765    9.8720   23.7913 C   0  0  0  0  0  0  0  0  0  0  0  0
    7.6477   11.0682   24.9139 C   0  0  0  0  0  0  0  0  0  0  0  0
   11.9944   15.0796   22.9549 C   0  0  0  0  0  0  0  0  0  0  0  0
    6.5571   11.2624   25.9278 C   0  0  0  0  0  0  0  0  0  0  0  0
   11.4199   13.9130   22.1798 C   0  0  0  0  0  0  0  0  0  0  0  0
    3.4414   10.7803   26.9032 N   0  5  0  0  0  0  0  0  0  0  0  0
    5.3168   10.6518   25.4377 N   0  0  0  0  0  0  0  0  0  0  0  0
    4.3418   10.7213   26.2055 N   0  3  0  0  0  0  0  0  0  0  0  0
   10.0971   11.6974   21.3131 O   0  0  0  0  0  0  0  0  0  0  0  0
   10.4328    8.5988   22.7566 O   0  0  0  0  0  0  0  0  0  0  0  0
    8.0692    9.6685   24.8119 O   0  0  0  0  0  0  0  0  0  0  0  0
   10.5408   13.1738   23.0336 O   0  0  0  0  0  0  0  0  0  0  0  0
    9.7098   11.7020   25.6531 H   0  0  0  0  0  0  0  0  0  0  0  0
    8.7585   13.0754   25.0269 H   0  0  0  0  0  0  0  0  0  0  0  0
    7.1701   12.7165   23.3873 H   0  0  0  0  0  0  0  0  0  0  0  0
    6.9043   11.0680   22.7577 H   0  0  0  0  0  0  0  0  0  0  0  0
    8.3850    8.1243   22.6063 H   0  0  0  0  0  0  0  0  0  0  0  0
    8.9148    9.4905   21.5891 H   0  0  0  0  0  0  0  0  0  0  0  0
   11.2967   10.0303   24.0482 H   0  0  0  0  0  0  0  0  0  0  0  0
   10.5685    8.6183   24.8594 H   0  0  0  0  0  0  0  0  0  0  0  0
   11.2004   15.7474   23.3003 H   0  0  0  0  0  0  0  0  0  0  0  0
   12.5608   14.7252   23.8224 H   0  0  0  0  0  0  0  0  0  0  0  0
   12.6906   15.6511   22.3321 H   0  0  0  0  0  0  0  0  0  0  0  0
    6.3783   12.3308   26.1130 H   0  0  0  0  0  0  0  0  0  0  0  0
    6.8257   10.7996   26.8877 H   0  0  0  0  0  0  0  0  0  0  0  0
   12.2192   13.2490   21.8372 H   0  0  0  0  0  0  0  0  0  0  0  0
   10.8537   14.2688   21.3139 H   0  0  0  0  0  0  0  0  0  0  0  0
  1  6  1  0  0  0  0
  1 15  2  0  0  0  0
  1 18  1  0  0  0  0
  2  6  1  0  0  0  0
  2  8  1  0  0  0  0
  3  6  1  0  0  0  0
  3  8  1  0  0  0  0
  4  7  1  0  0  0  0
  4 16  1  0  0  0  0
  5  7  1  0  0  0  0
  5 16  1  0  0  0  0
  6  7  1  0  0  0  0
  7 17  1  0  0  0  0
  8 10  1  0  0  0  0
  8 17  1  0  0  0  0
  9 11  1  0  0  0  0
 10 13  1  0  0  0  0
 11 18  1  0  0  0  0
 12 14  2  0  0  0  0
 13 14  2  0  0  0  0
  2 19  1  0  0  0  0
  2 20  1  0  0  0  0
  3 21  1  0  0  0  0
  3 22  1  0  0  0  0
  4 23  1  0  0  0  0
  4 24  1  0  0  0  0
  5 25  1  0  0  0  0
  5 26  1  0  0  0  0
  9 27  1  0  0  0  0
  9 28  1  0  0  0  0
  9 29  1  0  0  0  0
 10 30  1  0  0  0  0
 10 31  1  0  0  0  0
 11 32  1  0  0  0  0
 11 33  1  0  0  0  0
M  CHG  2  12  -1  14   1
M  END
> <id>
EN300-2008146

> <smiles>
CCOC(=O)C1(CC2(CN=[N+]=[N-])C1)C3(COC3)O2

> <MDLNUMBER>
MFCD31690830

> <IUPAC Name>
ethyl 4-(azidomethyl)-3-oxaspiro[bicyclo[2.1.1]hexane-2,3'-oxetane]-1-carboxylate

> <CAS>
2490374-76-8

> <Purity>
95

> <URL>
https://www.enaminestore.com/catalog/EN300-2008146

> <ROCS_ShapeQuery>
x0812_0A_x1140_0A_x1097_0A_x0365_0A_x1097_0A_x0310_0A

> <ROCS_TanimotoCombo>
0.753 

> <ROCS_ShapeTanimoto>
0.277 

> <ROCS_ColorTanimoto>
0.476 

> <ROCS_RefTversky>
0.245 

> <ROCS_RefColorTversky>
0.561 

> <ROCS_RefTverskyCombo>
0.805 

> <ROCS_FitTversky>
1.906 

> <ROCS_FitColorTversky>
0.760 

> <ROCS_FitTverskyCombo>
2.666 

> <ROCS_ColorScore>
-8.363

> <ROCS_Overlap>
2475.964

> <ROCS_Rank>
25                  

$$$$
untitled-dbase-558663_6
  -OEChem-02092408543D

 33 35  0     0  0  0  0  0  0999 V2000
    9.9470   12.0873   22.4632 C   0  0  0  0  0  0  0  0  0  0  0  0
    8.9290   11.9957   24.9453 C   0  0  0  0  0  0  0  0  0  0  0  0
    7.4894   11.6703   23.4592 C   0  0  0  0  0  0  0  0  0  0  0  0
    9.0536    8.9902   22.5512 C   0  0  0  0  0  0  0  0  0  0  0  0
   10.4734    9.3114   24.0178 C   0  0  0  0  0  0  0  0  0  0  0  0
    9.0482   11.4051   23.4833 C   0  0  0  0  0  0  0  0  0  0  0  0
    9.0769    9.8722   23.7912 C   0  0  0  0  0  0  0  0  0  0  0  0
    7.6476   11.0680   24.9137 C   0  0  0  0  0  0  0  0  0  0  0  0
   11.9928   15.0811   22.9540 C   0  0  0  0  0  0  0  0  0  0  0  0
    6.5573   11.2619   25.9282 C   0  0  0  0  0  0  0  0  0  0  0  0
   11.4188   13.9141   22.1792 C   0  0  0  0  0  0  0  0  0  0  0  0
    3.4417   10.7797   26.9041 N   0  5  0  0  0  0  0  0  0  0  0  0
    5.3169   10.6515   25.4382 N   0  0  0  0  0  0  0  0  0  0  0  0
    4.3420   10.7208   26.2062 N   0  3  0  0  0  0  0  0  0  0  0  0
   10.0968   11.6978   21.3130 O   0  0  0  0  0  0  0  0  0  0  0  0
   10.4326    8.5975   22.7579 O   0  0  0  0  0  0  0  0  0  0  0  0
    8.0693    9.6684   24.8115 O   0  0  0  0  0  0  0  0  0  0  0  0
   10.5401   13.1747   23.0332 O   0  0  0  0  0  0  0  0  0  0  0  0
    9.7095   11.7019   25.6535 H   0  0  0  0  0  0  0  0  0  0  0  0
    8.7580   13.0752   25.0271 H   0  0  0  0  0  0  0  0  0  0  0  0
    7.1696   12.7160   23.3873 H   0  0  0  0  0  0  0  0  0  0  0  0
    6.9046   11.0678   22.7578 H   0  0  0  0  0  0  0  0  0  0  0  0
    8.3844    8.1257   22.6048 H   0  0  0  0  0  0  0  0  0  0  0  0
    8.9172    9.4915   21.5888 H   0  0  0  0  0  0  0  0  0  0  0  0
   11.2974   10.0299   24.0472 H   0  0  0  0  0  0  0  0  0  0  0  0
   10.5683    8.6199   24.8609 H   0  0  0  0  0  0  0  0  0  0  0  0
   11.1986   15.7486   23.2995 H   0  0  0  0  0  0  0  0  0  0  0  0
   12.5595   14.7272   23.8215 H   0  0  0  0  0  0  0  0  0  0  0  0
   12.6887   15.6528   22.3310 H   0  0  0  0  0  0  0  0  0  0  0  0
    6.3788   12.3302   26.1138 H   0  0  0  0  0  0  0  0  0  0  0  0
    6.8264   10.7986   26.8878 H   0  0  0  0  0  0  0  0  0  0  0  0
   12.2183   13.2505   21.8366 H   0  0  0  0  0  0  0  0  0  0  0  0
   10.8523   14.2695   21.3133 H   0  0  0  0  0  0  0  0  0  0  0  0
  1  6  1  1  0  0  0
  1 15  2  0  0  0  0
  1 18  1  0  0  0  0
  2  6  1  0  0  0  0
  2  8  1  0  0  0  0
  3  6  1  0  0  0  0
  3  8  1  0  0  0  0
  4  7  1  0  0  0  0
  4 16  1  0  0  0  0
  5  7  1  0  0  0  0
  5 16  1  0  0  0  0
  6  7  1  0  0  0  0
  7 17  1  0  0  0  0
  8 10  1  1  0  0  0
  8 17  1  0  0  0  0
  9 11  1  0  0  0  0
 10 13  1  0  0  0  0
 11 18  1  0  0  0  0
 12 14  2  0  0  0  0
 13 14  2  0  0  0  0
  2 19  1  0  0  0  0
  2 20  1  0  0  0  0
  3 21  1  0  0  0  0
  3 22  1  0  0  0  0
  4 23  1  0  0  0  0
  4 24  1  0  0  0  0
  5 25  1  0  0  0  0
  5 26  1  0  0  0  0
  9 27  1  0  0  0  0
  9 28  1  0  0  0  0
  9 29  1  0  0  0  0
 10 30  1  0  0  0  0
 10 31  1  0  0  0  0
 11 32  1  0  0  0  0
 11 33  1  0  0  0  0
M  CHG  2  12  -1  14   1
M  END
> <id>
EN300-37375232

> <smiles>
CCOC(=O)[C@]1(C[C@@]2(CN=[N+]=[N-])C1)C3(COC3)O2

> <IUPAC Name>
ethyl 4-(azidomethyl)-3-oxaspiro[bicyclo[2.1.1]hexane-2,3'-oxetane]-1-carboxylate

> <CAS>
2490374-76-8

> <URL>
https://www.enaminestore.com/catalog/EN300-37375232

> <ROCS_ShapeQuery>
x0812_0A_x1140_0A_x1097_0A_x0365_0A_x1097_0A_x0310_0A

> <ROCS_TanimotoCombo>
0.753 

> <ROCS_ShapeTanimoto>
0.277 

> <ROCS_ColorTanimoto>
0.476 

> <ROCS_RefTversky>
0.245 

> <ROCS_RefColorTversky>
0.561 

> <ROCS_RefTverskyCombo>
0.805 

> <ROCS_FitTversky>
1.906 

> <ROCS_FitColorTversky>
0.760 

> <ROCS_FitTverskyCombo>
2.666 

> <ROCS_ColorScore>
-8.363

> <ROCS_Overlap>
2475.877

> <ROCS_Rank>
26                  

$$$$
untitled-dbase-560107_2
  -OEChem-02092408543D

 35 36  0     0  0  0  0  0  0999 V2000
   10.0286   11.9211   22.4757 C   0  0  0  0  0  0  0  0  0  0  0  0
    9.1775   11.7543   25.0154 C   0  0  0  0  0  0  0  0  0  0  0  0
    7.6159   11.8405   23.6483 C   0  0  0  0  0  0  0  0  0  0  0  0
    9.0945   11.2931   23.5030 C   0  0  0  0  0  0  0  0  0  0  0  0
    7.7753   11.0341   24.9935 C   0  0  0  0  0  0  0  0  0  0  0  0
    8.9553    9.7440   23.5645 C   0  0  0  0  0  0  0  0  0  0  0  0
    8.3699    9.1441   22.2898 C   0  0  0  0  0  0  0  0  0  0  0  0
   10.2554    9.0403   23.9408 C   0  0  0  0  0  0  0  0  0  0  0  0
   12.5730   14.4850   23.0599 C   0  0  0  0  0  0  0  0  0  0  0  0
    6.7999   11.2037   26.1188 C   0  0  0  0  0  0  0  0  0  0  0  0
   11.7633   13.5075   22.2349 C   0  0  0  0  0  0  0  0  0  0  0  0
   10.0366   11.6284   21.2877 O   0  0  0  0  0  0  0  0  0  0  0  0
    5.1098    9.4316   25.1832 O   0  0  0  0  0  0  0  0  0  0  0  0
    4.6390   11.8915   24.8034 O   0  0  0  0  0  0  0  0  0  0  0  0
    8.0058    9.6367   24.6421 O   0  0  0  0  0  0  0  0  0  0  0  0
   10.8305   12.8376   23.0889 O   0  0  0  0  0  0  0  0  0  0  0  0
    5.1478   10.8114   25.6251 S   0  0  0  0  0  0  0  0  0  0  0  0
    4.0067   10.8554   27.3248 Cl  0  0  0  0  0  0  0  0  0  0  0  0
    9.9408   11.2925   25.6456 H   0  0  0  0  0  0  0  0  0  0  0  0
    9.1818   12.8346   25.2051 H   0  0  0  0  0  0  0  0  0  0  0  0
    7.4951   12.9277   23.7282 H   0  0  0  0  0  0  0  0  0  0  0  0
    6.8638   11.4623   22.9522 H   0  0  0  0  0  0  0  0  0  0  0  0
    8.2959    8.0619   22.3893 H   0  0  0  0  0  0  0  0  0  0  0  0
    9.0106    9.3798   21.4409 H   0  0  0  0  0  0  0  0  0  0  0  0
    7.3765    9.5533   22.1097 H   0  0  0  0  0  0  0  0  0  0  0  0
   10.0993    7.9625   23.9684 H   0  0  0  0  0  0  0  0  0  0  0  0
   10.5883    9.3762   24.9222 H   0  0  0  0  0  0  0  0  0  0  0  0
   11.0269    9.2689   23.2064 H   0  0  0  0  0  0  0  0  0  0  0  0
   11.9254   15.2336   23.5245 H   0  0  0  0  0  0  0  0  0  0  0  0
   13.1274   13.9607   23.8452 H   0  0  0  0  0  0  0  0  0  0  0  0
   13.3129   14.9966   22.4354 H   0  0  0  0  0  0  0  0  0  0  0  0
    6.7800   12.2392   26.4848 H   0  0  0  0  0  0  0  0  0  0  0  0
    7.0391   10.5454   26.9647 H   0  0  0  0  0  0  0  0  0  0  0  0
   12.4169   12.7615   21.7731 H   0  0  0  0  0  0  0  0  0  0  0  0
   11.2094   14.0330   21.4513 H   0  0  0  0  0  0  0  0  0  0  0  0
  1  4  1  1  0  0  0
  1 12  2  0  0  0  0
  1 16  1  0  0  0  0
  2  4  1  0  0  0  0
  2  5  1  0  0  0  0
  3  4  1  0  0  0  0
  3  5  1  0  0  0  0
  4  6  1  0  0  0  0
  5 10  1  1  0  0  0
  5 15  1  0  0  0  0
  6  7  1  0  0  0  0
  6  8  1  0  0  0  0
  6 15  1  0  0  0  0
  9 11  1  0  0  0  0
 10 17  1  0  0  0  0
 11 16  1  0  0  0  0
 13 17  2  0  0  0  0
 14 17  2  0  0  0  0
 17 18  1  0  0  0  0
  2 19  1  0  0  0  0
  2 20  1  0  0  0  0
  3 21  1  0  0  0  0
  3 22  1  0  0  0  0
  7 23  1  0  0  0  0
  7 24  1  0  0  0  0
  7 25  1  0  0  0  0
  8 26  1  0  0  0  0
  8 27  1  0  0  0  0
  8 28  1  0  0  0  0
  9 29  1  0  0  0  0
  9 30  1  0  0  0  0
  9 31  1  0  0  0  0
 10 32  1  0  0  0  0
 10 33  1  0  0  0  0
 11 34  1  0  0  0  0
 11 35  1  0  0  0  0
M  END
> <id>
EN300-37375235

> <smiles>
CCOC(=O)[C@]1(C[C@@]2(CS(=O)(=O)Cl)C1)C(C)(C)O2

> <IUPAC Name>
ethyl 1-[(chlorosulfonyl)methyl]-3,3-dimethyl-2-oxabicyclo[2.1.1]hexane-4-carboxylate

> <CAS>
2230798-16-8

> <URL>
https://www.enaminestore.com/catalog/EN300-37375235

> <ROCS_ShapeQuery>
x0812_0A_x1140_0A_x1097_0A_x0365_0A_x1097_0A_x0310_0A

> <ROCS_TanimotoCombo>
0.753 

> <ROCS_ShapeTanimoto>
0.265 

> <ROCS_ColorTanimoto>
0.487 

> <ROCS_RefTversky>
0.236 

> <ROCS_RefColorTversky>
0.549 

> <ROCS_RefTverskyCombo>
0.784 

> <ROCS_FitTversky>
1.902 

> <ROCS_FitColorTversky>
0.814 

> <ROCS_FitTverskyCombo>
2.716 

> <ROCS_ColorScore>
-8.157

> <ROCS_Overlap>
2385.298

> <ROCS_Rank>
27                  

$$$$
untitled-dbase-398917_2
  -OEChem-02092408543D

 35 36  0     0  0  0  0  0  0999 V2000
   10.0297   11.9202   22.4764 C   0  0  0  0  0  0  0  0  0  0  0  0
    9.1803   11.7507   25.0164 C   0  0  0  0  0  0  0  0  0  0  0  0
    7.6178   11.8414   23.6508 C   0  0  0  0  0  0  0  0  0  0  0  0
    9.0953   11.2918   23.5034 C   0  0  0  0  0  0  0  0  0  0  0  0
    7.7771   11.0328   24.9947 C   0  0  0  0  0  0  0  0  0  0  0  0
    8.9535    9.7430   23.5626 C   0  0  0  0  0  0  0  0  0  0  0  0
    8.3653    9.1465   22.2876 C   0  0  0  0  0  0  0  0  0  0  0  0
   10.2527    9.0362   23.9360 C   0  0  0  0  0  0  0  0  0  0  0  0
   12.5786   14.4790   23.0632 C   0  0  0  0  0  0  0  0  0  0  0  0
    6.8031   11.2024   26.1209 C   0  0  0  0  0  0  0  0  0  0  0  0
   11.7667   13.5042   22.2371 C   0  0  0  0  0  0  0  0  0  0  0  0
   10.0364   11.6295   21.2879 O   0  0  0  0  0  0  0  0  0  0  0  0
    5.1091    9.4343   25.1847 O   0  0  0  0  0  0  0  0  0  0  0  0
    4.6420   11.8955   24.8087 O   0  0  0  0  0  0  0  0  0  0  0  0
    8.0052    9.6356   24.6411 O   0  0  0  0  0  0  0  0  0  0  0  0
   10.8334   12.8344   23.0906 O   0  0  0  0  0  0  0  0  0  0  0  0
    5.1497   10.8134   25.6284 S   0  0  0  0  0  0  0  0  0  0  0  0
    4.0106   10.8570   27.3294 Cl  0  0  0  0  0  0  0  0  0  0  0  0
    9.9435   11.2866   25.6450 H   0  0  0  0  0  0  0  0  0  0  0  0
    9.1866   12.8306   25.2076 H   0  0  0  0  0  0  0  0  0  0  0  0
    7.4991   12.9286   23.7322 H   0  0  0  0  0  0  0  0  0  0  0  0
    6.8646   11.4652   22.9550 H   0  0  0  0  0  0  0  0  0  0  0  0
    8.2894    8.0642   22.3852 H   0  0  0  0  0  0  0  0  0  0  0  0
    9.0053    9.3826   21.4383 H   0  0  0  0  0  0  0  0  0  0  0  0
    7.3724    9.5578   22.1096 H   0  0  0  0  0  0  0  0  0  0  0  0
   10.0945    7.9586   23.9620 H   0  0  0  0  0  0  0  0  0  0  0  0
   10.5876    9.3698   24.9174 H   0  0  0  0  0  0  0  0  0  0  0  0
   11.0236    9.2644   23.2008 H   0  0  0  0  0  0  0  0  0  0  0  0
   11.9324   15.2280   23.5295 H   0  0  0  0  0  0  0  0  0  0  0  0
   13.1327   13.9526   23.8472 H   0  0  0  0  0  0  0  0  0  0  0  0
   13.3188   14.9906   22.4390 H   0  0  0  0  0  0  0  0  0  0  0  0
    6.7851   12.2374   26.4886 H   0  0  0  0  0  0  0  0  0  0  0  0
    7.0418   10.5425   26.9659 H   0  0  0  0  0  0  0  0  0  0  0  0
   12.4188   12.7580   21.7736 H   0  0  0  0  0  0  0  0  0  0  0  0
   11.2131   14.0319   21.4548 H   0  0  0  0  0  0  0  0  0  0  0  0
  1  4  1  0  0  0  0
  1 12  2  0  0  0  0
  1 16  1  0  0  0  0
  2  4  1  0  0  0  0
  2  5  1  0  0  0  0
  3  4  1  0  0  0  0
  3  5  1  0  0  0  0
  4  6  1  0  0  0  0
  5 10  1  0  0  0  0
  5 15  1  0  0  0  0
  6  7  1  0  0  0  0
  6  8  1  0  0  0  0
  6 15  1  0  0  0  0
  9 11  1  0  0  0  0
 10 17  1  0  0  0  0
 11 16  1  0  0  0  0
 13 17  2  0  0  0  0
 14 17  2  0  0  0  0
 17 18  1  0  0  0  0
  2 19  1  0  0  0  0
  2 20  1  0  0  0  0
  3 21  1  0  0  0  0
  3 22  1  0  0  0  0
  7 23  1  0  0  0  0
  7 24  1  0  0  0  0
  7 25  1  0  0  0  0
  8 26  1  0  0  0  0
  8 27  1  0  0  0  0
  8 28  1  0  0  0  0
  9 29  1  0  0  0  0
  9 30  1  0  0  0  0
  9 31  1  0  0  0  0
 10 32  1  0  0  0  0
 10 33  1  0  0  0  0
 11 34  1  0  0  0  0
 11 35  1  0  0  0  0
M  END
> <id>
EN300-2009534

> <smiles>
CCOC(=O)C1(CC2(CS(=O)(=O)Cl)C1)C(C)(C)O2

> <MDLNUMBER>
MFCD31667296

> <IUPAC Name>
ethyl 1-[(chlorosulfonyl)methyl]-3,3-dimethyl-2-oxabicyclo[2.1.1]hexane-4-carboxylate

> <CAS>
2230798-16-8

> <Purity>
95

> <URL>
https://www.enaminestore.com/catalog/EN300-2009534

> <ROCS_ShapeQuery>
x0812_0A_x1140_0A_x1097_0A_x0365_0A_x1097_0A_x0310_0A

> <ROCS_TanimotoCombo>
0.753 

> <ROCS_ShapeTanimoto>
0.265 

> <ROCS_ColorTanimoto>
0.487 

> <ROCS_RefTversky>
0.236 

> <ROCS_RefColorTversky>
0.549 

> <ROCS_RefTverskyCombo>
0.784 

> <ROCS_FitTversky>
1.902 

> <ROCS_FitColorTversky>
0.814 

> <ROCS_FitTverskyCombo>
2.716 

> <ROCS_ColorScore>
-8.156

> <ROCS_Overlap>
2385.310

> <ROCS_Rank>
28                  

$$$$
untitled-dbase-559929_3
  -OEChem-02092408543D

 25 26  0     0  0  0  0  0  0999 V2000
    9.9228   12.0202   22.4060 C   0  0  0  0  0  0  0  0  0  0  0  0
    9.1887   11.7880   24.9760 C   0  0  0  0  0  0  0  0  0  0  0  0
    7.5703   11.7124   23.6579 C   0  0  0  0  0  0  0  0  0  0  0  0
    9.1025    9.7974   23.5411 C   0  0  0  0  0  0  0  0  0  0  0  0
    9.0850   11.3397   23.4740 C   0  0  0  0  0  0  0  0  0  0  0  0
    7.8561   10.9465   25.0059 C   0  0  0  0  0  0  0  0  0  0  0  0
   11.5368   13.7151   22.0800 C   0  0  0  0  0  0  0  0  0  0  0  0
    6.9091   11.0267   26.1642 C   0  0  0  0  0  0  0  0  0  0  0  0
    5.7728   10.1771   25.9549 N   0  0  0  0  0  0  0  0  0  0  0  0
    9.8931   11.7233   21.2193 O   0  0  0  0  0  0  0  0  0  0  0  0
    8.2109    9.5825   24.6483 O   0  0  0  0  0  0  0  0  0  0  0  0
   10.6916   12.9897   22.9787 O   0  0  0  0  0  0  0  0  0  0  0  0
   10.0251   11.3738   25.5468 H   0  0  0  0  0  0  0  0  0  0  0  0
    9.1071   12.8612   25.1812 H   0  0  0  0  0  0  0  0  0  0  0  0
    7.3260   12.7781   23.7313 H   0  0  0  0  0  0  0  0  0  0  0  0
    6.8670   11.2263   22.9753 H   0  0  0  0  0  0  0  0  0  0  0  0
    8.6934    9.3307   22.6407 H   0  0  0  0  0  0  0  0  0  0  0  0
   10.0918    9.3954   23.7777 H   0  0  0  0  0  0  0  0  0  0  0  0
   12.1061   14.4628   22.6375 H   0  0  0  0  0  0  0  0  0  0  0  0
   10.9252   14.2022   21.3163 H   0  0  0  0  0  0  0  0  0  0  0  0
   12.2276   13.0175   21.6005 H   0  0  0  0  0  0  0  0  0  0  0  0
    7.4376   10.7110   27.0729 H   0  0  0  0  0  0  0  0  0  0  0  0
    6.5721   12.0658   26.2715 H   0  0  0  0  0  0  0  0  0  0  0  0
    4.9359   10.7264   25.9600 H   0  0  0  0  0  0  0  0  0  0  0  0
    5.8583    9.7126   25.0723 H   0  0  0  0  0  0  0  0  0  0  0  0
  1  5  1  1  0  0  0
  1 10  2  0  0  0  0
  1 12  1  0  0  0  0
  2  5  1  0  0  0  0
  2  6  1  0  0  0  0
  3  5  1  0  0  0  0
  3  6  1  0  0  0  0
  4  5  1  0  0  0  0
  4 11  1  0  0  0  0
  6  8  1  1  0  0  0
  6 11  1  0  0  0  0
  7 12  1  0  0  0  0
  8  9  1  0  0  0  0
  2 13  1  0  0  0  0
  2 14  1  0  0  0  0
  3 15  1  0  0  0  0
  3 16  1  0  0  0  0
  4 17  1  0  0  0  0
  4 18  1  0  0  0  0
  7 19  1  0  0  0  0
  7 20  1  0  0  0  0
  7 21  1  0  0  0  0
  8 22  1  0  0  0  0
  8 23  1  0  0  0  0
  9 24  1  0  0  0  0
  9 25  1  0  0  0  0
M  END
> <id>
EN300-37375440

> <smiles>
Cl.COC(=O)[C@]1(C[C@@]2(CN)C1)CO2

> <IUPAC Name>
methyl 1-(aminomethyl)-2-oxabicyclo[2.1.1]hexane-4-carboxylate hydrochloride

> <CAS>
2613384-47-5

> <URL>
https://www.enaminestore.com/catalog/EN300-37375440

> <ROCS_ShapeQuery>
x0812_0A_x1140_0A_x1097_0A_x0365_0A_x1097_0A_x0310_0A

> <ROCS_TanimotoCombo>
0.750 

> <ROCS_ShapeTanimoto>
0.227 

> <ROCS_ColorTanimoto>
0.523 

> <ROCS_RefTversky>
0.204 

> <ROCS_RefColorTversky>
0.597 

> <ROCS_RefTverskyCombo>
0.801 

> <ROCS_FitTversky>
1.999 

> <ROCS_FitColorTversky>
0.809 

> <ROCS_FitTverskyCombo>
2.808 

> <ROCS_ColorScore>
-8.900

> <ROCS_Overlap>
2063.767

> <ROCS_Rank>
29                  

$$$$
untitled-dbase-471204_3
  -OEChem-02092408543D

 25 26  0     0  0  0  0  0  0999 V2000
    9.9228   12.0202   22.4060 C   0  0  0  0  0  0  0  0  0  0  0  0
    9.1887   11.7880   24.9760 C   0  0  0  0  0  0  0  0  0  0  0  0
    7.5703   11.7124   23.6579 C   0  0  0  0  0  0  0  0  0  0  0  0
    9.1025    9.7974   23.5411 C   0  0  0  0  0  0  0  0  0  0  0  0
    9.0850   11.3397   23.4740 C   0  0  0  0  0  0  0  0  0  0  0  0
    7.8561   10.9465   25.0059 C   0  0  0  0  0  0  0  0  0  0  0  0
   11.5368   13.7151   22.0800 C   0  0  0  0  0  0  0  0  0  0  0  0
    6.9091   11.0267   26.1642 C   0  0  0  0  0  0  0  0  0  0  0  0
    5.7728   10.1771   25.9549 N   0  0  0  0  0  0  0  0  0  0  0  0
    9.8931   11.7233   21.2193 O   0  0  0  0  0  0  0  0  0  0  0  0
    8.2109    9.5825   24.6483 O   0  0  0  0  0  0  0  0  0  0  0  0
   10.6916   12.9897   22.9787 O   0  0  0  0  0  0  0  0  0  0  0  0
   10.0251   11.3738   25.5468 H   0  0  0  0  0  0  0  0  0  0  0  0
    9.1071   12.8612   25.1812 H   0  0  0  0  0  0  0  0  0  0  0  0
    7.3260   12.7781   23.7313 H   0  0  0  0  0  0  0  0  0  0  0  0
    6.8670   11.2263   22.9753 H   0  0  0  0  0  0  0  0  0  0  0  0
    8.6934    9.3307   22.6407 H   0  0  0  0  0  0  0  0  0  0  0  0
   10.0918    9.3954   23.7777 H   0  0  0  0  0  0  0  0  0  0  0  0
   12.1061   14.4628   22.6375 H   0  0  0  0  0  0  0  0  0  0  0  0
   10.9252   14.2022   21.3163 H   0  0  0  0  0  0  0  0  0  0  0  0
   12.2276   13.0175   21.6005 H   0  0  0  0  0  0  0  0  0  0  0  0
    7.4376   10.7110   27.0729 H   0  0  0  0  0  0  0  0  0  0  0  0
    6.5721   12.0658   26.2715 H   0  0  0  0  0  0  0  0  0  0  0  0
    4.9359   10.7264   25.9600 H   0  0  0  0  0  0  0  0  0  0  0  0
    5.8583    9.7126   25.0723 H   0  0  0  0  0  0  0  0  0  0  0  0
  1  5  1  1  0  0  0
  1 10  2  0  0  0  0
  1 12  1  0  0  0  0
  2  5  1  0  0  0  0
  2  6  1  0  0  0  0
  3  5  1  0  0  0  0
  3  6  1  0  0  0  0
  4  5  1  0  0  0  0
  4 11  1  0  0  0  0
  6  8  1  1  0  0  0
  6 11  1  0  0  0  0
  7 12  1  0  0  0  0
  8  9  1  0  0  0  0
  2 13  1  0  0  0  0
  2 14  1  0  0  0  0
  3 15  1  0  0  0  0
  3 16  1  0  0  0  0
  4 17  1  0  0  0  0
  4 18  1  0  0  0  0
  7 19  1  0  0  0  0
  7 20  1  0  0  0  0
  7 21  1  0  0  0  0
  8 22  1  0  0  0  0
  8 23  1  0  0  0  0
  9 24  1  0  0  0  0
  9 25  1  0  0  0  0
M  END
> <id>
EN300-39870255

> <smiles>
COC(=O)[C@]1(C[C@@]2(CN)C1)CO2

> <IUPAC Name>
methyl 1-(aminomethyl)-2-oxabicyclo[2.1.1]hexane-4-carboxylate

> <URL>
https://www.enaminestore.com/catalog/EN300-39870255

> <ROCS_ShapeQuery>
x0812_0A_x1140_0A_x1097_0A_x0365_0A_x1097_0A_x0310_0A

> <ROCS_TanimotoCombo>
0.750 

> <ROCS_ShapeTanimoto>
0.227 

> <ROCS_ColorTanimoto>
0.523 

> <ROCS_RefTversky>
0.204 

> <ROCS_RefColorTversky>
0.597 

> <ROCS_RefTverskyCombo>
0.801 

> <ROCS_FitTversky>
1.999 

> <ROCS_FitColorTversky>
0.809 

> <ROCS_FitTverskyCombo>
2.808 

> <ROCS_ColorScore>
-8.900

> <ROCS_Overlap>
2063.767

> <ROCS_Rank>
30                  

$$$$
untitled-dbase-477248_3
  -OEChem-02092408543D

 25 26  0     0  0  0  0  0  0999 V2000
    9.9229   12.0202   22.4058 C   0  0  0  0  0  0  0  0  0  0  0  0
    9.1889   11.7878   24.9759 C   0  0  0  0  0  0  0  0  0  0  0  0
    7.5704   11.7123   23.6580 C   0  0  0  0  0  0  0  0  0  0  0  0
    9.1022    9.7973   23.5411 C   0  0  0  0  0  0  0  0  0  0  0  0
    9.0851   11.3396   23.4739 C   0  0  0  0  0  0  0  0  0  0  0  0
    7.8562   10.9466   25.0059 C   0  0  0  0  0  0  0  0  0  0  0  0
   11.5367   13.7152   22.0798 C   0  0  0  0  0  0  0  0  0  0  0  0
    6.9091   11.0266   26.1642 C   0  0  0  0  0  0  0  0  0  0  0  0
    5.7728   10.1771   25.9547 N   0  0  0  0  0  0  0  0  0  0  0  0
    9.8930   11.7233   21.2192 O   0  0  0  0  0  0  0  0  0  0  0  0
    8.2108    9.5826   24.6485 O   0  0  0  0  0  0  0  0  0  0  0  0
   10.6916   12.9897   22.9785 O   0  0  0  0  0  0  0  0  0  0  0  0
   10.0250   11.3731   25.5470 H   0  0  0  0  0  0  0  0  0  0  0  0
    9.1064   12.8609   25.1816 H   0  0  0  0  0  0  0  0  0  0  0  0
    7.3259   12.7779   23.7320 H   0  0  0  0  0  0  0  0  0  0  0  0
    6.8668   11.2263   22.9757 H   0  0  0  0  0  0  0  0  0  0  0  0
    8.6932    9.3304   22.6405 H   0  0  0  0  0  0  0  0  0  0  0  0
   10.0916    9.3957   23.7780 H   0  0  0  0  0  0  0  0  0  0  0  0
   12.1060   14.4629   22.6373 H   0  0  0  0  0  0  0  0  0  0  0  0
   10.9250   14.2023   21.3162 H   0  0  0  0  0  0  0  0  0  0  0  0
   12.2275   13.0177   21.6002 H   0  0  0  0  0  0  0  0  0  0  0  0
    7.4376   10.7106   27.0728 H   0  0  0  0  0  0  0  0  0  0  0  0
    6.5722   12.0656   26.2718 H   0  0  0  0  0  0  0  0  0  0  0  0
    4.9360   10.7264   25.9598 H   0  0  0  0  0  0  0  0  0  0  0  0
    5.8583    9.7127   25.0721 H   0  0  0  0  0  0  0  0  0  0  0  0
  1  5  1  0  0  0  0
  1 10  2  0  0  0  0
  1 12  1  0  0  0  0
  2  5  1  0  0  0  0
  2  6  1  0  0  0  0
  3  5  1  0  0  0  0
  3  6  1  0  0  0  0
  4  5  1  0  0  0  0
  4 11  1  0  0  0  0
  6  8  1  0  0  0  0
  6 11  1  0  0  0  0
  7 12  1  0  0  0  0
  8  9  1  0  0  0  0
  2 13  1  0  0  0  0
  2 14  1  0  0  0  0
  3 15  1  0  0  0  0
  3 16  1  0  0  0  0
  4 17  1  0  0  0  0
  4 18  1  0  0  0  0
  7 19  1  0  0  0  0
  7 20  1  0  0  0  0
  7 21  1  0  0  0  0
  8 22  1  0  0  0  0
  8 23  1  0  0  0  0
  9 24  1  0  0  0  0
  9 25  1  0  0  0  0
M  END
> <id>
EN300-27722206

> <smiles>
COC(=O)C1(CC2(CN)C1)CO2

> <MDLNUMBER>
MFCD33031727

> <IUPAC Name>
methyl 1-(aminomethyl)-2-oxabicyclo[2.1.1]hexane-4-carboxylate

> <CAS>
2580187-57-9

> <URL>
https://www.enaminestore.com/catalog/EN300-27722206

> <ROCS_ShapeQuery>
x0812_0A_x1140_0A_x1097_0A_x0365_0A_x1097_0A_x0310_0A

> <ROCS_TanimotoCombo>
0.750 

> <ROCS_ShapeTanimoto>
0.227 

> <ROCS_ColorTanimoto>
0.523 

> <ROCS_RefTversky>
0.204 

> <ROCS_RefColorTversky>
0.597 

> <ROCS_RefTverskyCombo>
0.801 

> <ROCS_FitTversky>
1.999 

> <ROCS_FitColorTversky>
0.809 

> <ROCS_FitTverskyCombo>
2.808 

> <ROCS_ColorScore>
-8.900

> <ROCS_Overlap>
2063.740

> <ROCS_Rank>
31                  

$$$$
untitled-dbase-479667_3
  -OEChem-02092408543D

 25 26  0     0  0  0  0  0  0999 V2000
    9.9229   12.0202   22.4058 C   0  0  0  0  0  0  0  0  0  0  0  0
    9.1889   11.7878   24.9759 C   0  0  0  0  0  0  0  0  0  0  0  0
    7.5704   11.7123   23.6580 C   0  0  0  0  0  0  0  0  0  0  0  0
    9.1022    9.7973   23.5411 C   0  0  0  0  0  0  0  0  0  0  0  0
    9.0851   11.3396   23.4739 C   0  0  0  0  0  0  0  0  0  0  0  0
    7.8562   10.9466   25.0059 C   0  0  0  0  0  0  0  0  0  0  0  0
   11.5367   13.7152   22.0798 C   0  0  0  0  0  0  0  0  0  0  0  0
    6.9091   11.0266   26.1642 C   0  0  0  0  0  0  0  0  0  0  0  0
    5.7728   10.1771   25.9547 N   0  0  0  0  0  0  0  0  0  0  0  0
    9.8930   11.7233   21.2192 O   0  0  0  0  0  0  0  0  0  0  0  0
    8.2108    9.5826   24.6485 O   0  0  0  0  0  0  0  0  0  0  0  0
   10.6916   12.9897   22.9785 O   0  0  0  0  0  0  0  0  0  0  0  0
   10.0250   11.3731   25.5470 H   0  0  0  0  0  0  0  0  0  0  0  0
    9.1064   12.8609   25.1816 H   0  0  0  0  0  0  0  0  0  0  0  0
    7.3259   12.7779   23.7320 H   0  0  0  0  0  0  0  0  0  0  0  0
    6.8668   11.2263   22.9757 H   0  0  0  0  0  0  0  0  0  0  0  0
    8.6932    9.3304   22.6405 H   0  0  0  0  0  0  0  0  0  0  0  0
   10.0916    9.3957   23.7780 H   0  0  0  0  0  0  0  0  0  0  0  0
   12.1060   14.4629   22.6373 H   0  0  0  0  0  0  0  0  0  0  0  0
   10.9250   14.2023   21.3162 H   0  0  0  0  0  0  0  0  0  0  0  0
   12.2275   13.0177   21.6002 H   0  0  0  0  0  0  0  0  0  0  0  0
    7.4376   10.7106   27.0728 H   0  0  0  0  0  0  0  0  0  0  0  0
    6.5722   12.0656   26.2718 H   0  0  0  0  0  0  0  0  0  0  0  0
    4.9360   10.7264   25.9598 H   0  0  0  0  0  0  0  0  0  0  0  0
    5.8583    9.7127   25.0721 H   0  0  0  0  0  0  0  0  0  0  0  0
  1  5  1  0  0  0  0
  1 10  2  0  0  0  0
  1 12  1  0  0  0  0
  2  5  1  0  0  0  0
  2  6  1  0  0  0  0
  3  5  1  0  0  0  0
  3  6  1  0  0  0  0
  4  5  1  0  0  0  0
  4 11  1  0  0  0  0
  6  8  1  0  0  0  0
  6 11  1  0  0  0  0
  7 12  1  0  0  0  0
  8  9  1  0  0  0  0
  2 13  1  0  0  0  0
  2 14  1  0  0  0  0
  3 15  1  0  0  0  0
  3 16  1  0  0  0  0
  4 17  1  0  0  0  0
  4 18  1  0  0  0  0
  7 19  1  0  0  0  0
  7 20  1  0  0  0  0
  7 21  1  0  0  0  0
  8 22  1  0  0  0  0
  8 23  1  0  0  0  0
  9 24  1  0  0  0  0
  9 25  1  0  0  0  0
M  END
> <id>
EN300-27738523

> <smiles>
Cl.COC(=O)C1(CC2(CN)C1)CO2

> <MDLNUMBER>
MFCD33031848

> <IUPAC Name>
methyl 1-(aminomethyl)-2-oxabicyclo[2.1.1]hexane-4-carboxylate hydrochloride

> <CAS>
2613384-47-5

> <Purity>
95

> <URL>
https://www.enaminestore.com/catalog/EN300-27738523

> <ROCS_ShapeQuery>
x0812_0A_x1140_0A_x1097_0A_x0365_0A_x1097_0A_x0310_0A

> <ROCS_TanimotoCombo>
0.750 

> <ROCS_ShapeTanimoto>
0.227 

> <ROCS_ColorTanimoto>
0.523 

> <ROCS_RefTversky>
0.204 

> <ROCS_RefColorTversky>
0.597 

> <ROCS_RefTverskyCombo>
0.801 

> <ROCS_FitTversky>
1.999 

> <ROCS_FitColorTversky>
0.809 

> <ROCS_FitTverskyCombo>
2.808 

> <ROCS_ColorScore>
-8.900

> <ROCS_Overlap>
2063.740

> <ROCS_Rank>
32                  

$$$$
untitled-dbase-495812_5
  -OEChem-02092408543D

 29 30  0     1  0  0  0  0  0999 V2000
   10.3250   11.3829   22.4527 C   0  0  0  0  0  0  0  0  0  0  0  0
    9.3763   12.1122   24.6960 C   0  0  0  0  0  0  0  0  0  0  0  0
    8.0064   11.9115   25.3655 C   0  0  0  0  0  0  0  0  0  0  0  0
    7.8648   11.2618   23.0645 C   0  0  0  0  0  0  0  0  0  0  0  0
    9.2940    9.7064   24.0634 C   0  0  0  0  0  0  0  0  0  0  0  0
    9.3125   11.1315   23.5158 C   0  0  1  0  0  0  0  0  0  0  0  0
    7.3448   10.8747   24.4401 C   0  0  2  0  0  0  0  0  0  0  0  0
   12.6529   11.5039   22.0654 C   0  0  0  0  0  0  0  0  0  0  0  0
    5.8472   10.7571   24.5826 C   0  0  0  0  0  0  0  0  0  0  0  0
   10.0475   11.6366   21.2883 O   0  0  0  0  0  0  0  0  0  0  0  0
    5.9846    8.9809   26.5031 O   0  0  0  0  0  0  0  0  0  0  0  0
    3.9649   10.5046   26.3869 O   0  0  0  0  0  0  0  0  0  0  0  0
    7.9932    9.6024   24.6907 O   0  0  0  0  0  0  0  0  0  0  0  0
   11.5771   11.2843   22.9833 O   0  0  0  0  0  0  0  0  0  0  0  0
    6.1028   11.2951   27.1932 F   0  0  0  0  0  0  0  0  0  0  0  0
    5.3857   10.2699   26.2146 S   0  0  0  0  0  0  0  0  0  0  0  0
    9.4925   13.1484   24.3568 H   0  0  0  0  0  0  0  0  0  0  0  0
   10.2018   11.8915   25.3815 H   0  0  0  0  0  0  0  0  0  0  0  0
    8.1236   11.5357   26.3873 H   0  0  0  0  0  0  0  0  0  0  0  0
    7.4534   12.8567   25.3908 H   0  0  0  0  0  0  0  0  0  0  0  0
    7.5826   12.2713   22.7465 H   0  0  0  0  0  0  0  0  0  0  0  0
    7.6042   10.5432   22.2790 H   0  0  0  0  0  0  0  0  0  0  0  0
    9.3598    8.9469   23.2769 H   0  0  0  0  0  0  0  0  0  0  0  0
   10.0725    9.5126   24.8079 H   0  0  0  0  0  0  0  0  0  0  0  0
   13.6064   11.4023   22.5894 H   0  0  0  0  0  0  0  0  0  0  0  0
   12.5667   12.5045   21.6343 H   0  0  0  0  0  0  0  0  0  0  0  0
   12.5971   10.7595   21.2677 H   0  0  0  0  0  0  0  0  0  0  0  0
    5.4434   10.0046   23.8977 H   0  0  0  0  0  0  0  0  0  0  0  0
    5.3553   11.7143   24.3829 H   0  0  0  0  0  0  0  0  0  0  0  0
  1  6  1  0  0  0  0
  1 10  2  0  0  0  0
  1 14  1  0  0  0  0
  2  3  1  0  0  0  0
  2  6  1  0  0  0  0
  3  7  1  0  0  0  0
  4  6  1  0  0  0  0
  4  7  1  0  0  0  0
  5  6  1  0  0  0  0
  5 13  1  0  0  0  0
  7  9  1  0  0  0  0
  7 13  1  0  0  0  0
  8 14  1  0  0  0  0
  9 16  1  0  0  0  0
 11 16  2  0  0  0  0
 12 16  2  0  0  0  0
 15 16  1  0  0  0  0
  2 17  1  0  0  0  0
  2 18  1  0  0  0  0
  3 19  1  0  0  0  0
  3 20  1  0  0  0  0
  4 21  1  0  0  0  0
  4 22  1  0  0  0  0
  5 23  1  0  0  0  0
  5 24  1  0  0  0  0
  8 25  1  0  0  0  0
  8 26  1  0  0  0  0
  8 27  1  0  0  0  0
  9 28  1  0  0  0  0
  9 29  1  0  0  0  0
M  END
> <id>
EN300-7469913

> <smiles>
COC(=O)C1(CCC2(CS(=O)(=O)F)C1)CO2

> <IUPAC Name>
methyl 1-[(fluorosulfonyl)methyl]-2-oxabicyclo[2.2.1]heptane-4-carboxylate

> <CAS>
2648956-30-1

> <URL>
https://www.enaminestore.com/catalog/EN300-7469913

> <ROCS_ShapeQuery>
x0812_0A_x1140_0A_x1097_0A_x0365_0A_x1097_0A_x0310_0A

> <ROCS_TanimotoCombo>
0.750 

> <ROCS_ShapeTanimoto>
0.237 

> <ROCS_ColorTanimoto>
0.513 

> <ROCS_RefTversky>
0.214 

> <ROCS_RefColorTversky>
0.539 

> <ROCS_RefTverskyCombo>
0.753 

> <ROCS_FitTversky>
1.812 

> <ROCS_FitColorTversky>
0.914 

> <ROCS_FitTverskyCombo>
2.726 

> <ROCS_ColorScore>
-7.972

> <ROCS_Overlap>
2169.981

> <ROCS_Rank>
33                  

$$$$
untitled-dbase-266174_5
  -OEChem-02092408543D

 37 38  0     1  0  0  0  0  0999 V2000
   11.2355   13.0922   22.6682 C   0  0  0  0  0  0  0  0  0  0  0  0
    7.0758   11.1725   24.2080 C   0  0  0  0  0  0  0  0  0  0  0  0
    9.0683   12.3716   24.7838 C   0  0  0  0  0  0  0  0  0  0  0  0
    8.8420    9.9223   25.2212 C   0  0  0  0  0  0  0  0  0  0  0  0
    8.1215   11.2807   25.3217 C   0  0  2  0  0  0  0  0  0  0  0  0
    8.1274   10.8893   23.1293 C   0  0  1  0  0  0  0  0  0  0  0  0
    9.0026   12.1607   23.2574 C   0  0  2  0  0  0  0  0  0  0  0  0
    8.7872    9.6221   23.7156 C   0  0  1  0  0  0  0  0  0  0  0  0
   11.9558   15.7902   22.0753 C   0  0  0  0  0  0  0  0  0  0  0  0
   10.9116   16.3597   24.2876 C   0  0  0  0  0  0  0  0  0  0  0  0
   12.9065   14.8363   24.2015 C   0  0  0  0  0  0  0  0  0  0  0  0
   11.6356   15.2840   23.4810 C   0  0  0  0  0  0  0  0  0  0  0  0
   10.2910   12.0786   22.6364 N   0  0  0  0  0  0  0  0  0  0  0  0
   12.3438   13.0454   22.1447 O   0  0  0  0  0  0  0  0  0  0  0  0
   10.0714    9.3531   23.1944 O   0  0  0  0  0  0  0  0  0  0  0  0
   10.7541   14.1607   23.3710 O   0  0  0  0  0  0  0  0  0  0  0  0
    6.3702   10.3481   24.3561 H   0  0  0  0  0  0  0  0  0  0  0  0
    6.5225   12.1033   24.0443 H   0  0  0  0  0  0  0  0  0  0  0  0
    8.6933   13.3700   25.0367 H   0  0  0  0  0  0  0  0  0  0  0  0
   10.0798   12.2769   25.1934 H   0  0  0  0  0  0  0  0  0  0  0  0
    9.8600    9.9501   25.6226 H   0  0  0  0  0  0  0  0  0  0  0  0
    8.2774    9.1603   25.7712 H   0  0  0  0  0  0  0  0  0  0  0  0
    7.7313   11.4944   26.3187 H   0  0  0  0  0  0  0  0  0  0  0  0
    7.7333   10.7457   22.1204 H   0  0  0  0  0  0  0  0  0  0  0  0
    8.4897   13.0119   22.7931 H   0  0  0  0  0  0  0  0  0  0  0  0
    8.1565    8.7429   23.5367 H   0  0  0  0  0  0  0  0  0  0  0  0
   12.4756   15.0209   21.4930 H   0  0  0  0  0  0  0  0  0  0  0  0
   11.0491   16.0817   21.5352 H   0  0  0  0  0  0  0  0  0  0  0  0
   12.6281   16.6549   22.1148 H   0  0  0  0  0  0  0  0  0  0  0  0
   10.6798   16.0008   25.2969 H   0  0  0  0  0  0  0  0  0  0  0  0
    9.9524   16.6163   23.8235 H   0  0  0  0  0  0  0  0  0  0  0  0
   11.5104   17.2722   24.3731 H   0  0  0  0  0  0  0  0  0  0  0  0
   12.6771   14.4731   25.2098 H   0  0  0  0  0  0  0  0  0  0  0  0
   13.4200   14.0384   23.6553 H   0  0  0  0  0  0  0  0  0  0  0  0
   13.6003   15.6756   24.3256 H   0  0  0  0  0  0  0  0  0  0  0  0
   10.5284   11.2191   22.1390 H   0  0  0  0  0  0  0  0  0  0  0  0
   10.4201    8.5778   23.6692 H   0  0  0  0  0  0  0  0  0  0  0  0
  1 13  1  0  0  0  0
  1 14  2  0  0  0  0
  1 16  1  0  0  0  0
  2  5  1  6  0  0  0
  2  6  1  6  0  0  0
  3  5  1  0  0  0  0
  3  7  1  0  0  0  0
  4  5  1  0  0  0  0
  4  8  1  0  0  0  0
  6  7  1  0  0  0  0
  6  8  1  0  0  0  0
  7 13  1  1  0  0  0
  8 15  1  1  0  0  0
  9 12  1  0  0  0  0
 10 12  1  0  0  0  0
 11 12  1  0  0  0  0
 12 16  1  0  0  0  0
  2 17  1  0  0  0  0
  2 18  1  0  0  0  0
  3 19  1  0  0  0  0
  3 20  1  0  0  0  0
  4 21  1  0  0  0  0
  4 22  1  0  0  0  0
  5 23  1  0  0  0  0
  6 24  1  0  0  0  0
  7 25  1  0  0  0  0
  8 26  1  0  0  0  0
  9 27  1  0  0  0  0
  9 28  1  0  0  0  0
  9 29  1  0  0  0  0
 10 30  1  0  0  0  0
 10 31  1  0  0  0  0
 10 32  1  0  0  0  0
 11 33  1  0  0  0  0
 11 34  1  0  0  0  0
 11 35  1  0  0  0  0
 13 36  1  0  0  0  0
 15 37  1  0  0  0  0
M  END
> <id>
EN300-7548609

> <smiles>
CC(C)(C)OC(=O)N[C@@H]1C[C@@H]2C[C@H](O)[C@H]1C2 |&1:8,12,&2:10,14,r|

> <IUPAC Name>
tert-butyl N-[(1RS,2RS&,4SR,6SR&)-6-hydroxybicyclo[2.2.1]heptan-2-yl]carbamate

> <CAS>
2408936-91-2

> <URL>
https://www.enaminestore.com/catalog/EN300-7548609

> <ROCS_ShapeQuery>
x0812_0A_x1140_0A_x1097_0A_x0365_0A_x1097_0A_x0310_0A

> <ROCS_TanimotoCombo>
0.749 

> <ROCS_ShapeTanimoto>
0.229 

> <ROCS_ColorTanimoto>
0.520 

> <ROCS_RefTversky>
0.208 

> <ROCS_RefColorTversky>
0.605 

> <ROCS_RefTverskyCombo>
0.813 

> <ROCS_FitTversky>
1.757 

> <ROCS_FitColorTversky>
0.787 

> <ROCS_FitTverskyCombo>
2.544 

> <ROCS_ColorScore>
-9.041

> <ROCS_Overlap>
2107.842

> <ROCS_Rank>
34                  

$$$$
untitled-dbase-592394_4
  -OEChem-02092408543D

 37 38  0     1  0  0  0  0  0999 V2000
   11.5063   12.4440   23.0357 C   0  0  0  0  0  0  0  0  0  0  0  0
    7.5837   11.9583   25.2928 C   0  0  0  0  0  0  0  0  0  0  0  0
    8.9263   12.4979   24.7774 C   0  0  0  0  0  0  0  0  0  0  0  0
    8.2565    9.6283   24.6781 C   0  0  0  0  0  0  0  0  0  0  0  0
    7.8590   11.3023   23.0166 C   0  0  0  0  0  0  0  0  0  0  0  0
    7.2949   10.7843   24.3420 C   0  0  2  0  0  0  0  0  0  0  0  0
    9.6175   10.1581   24.1895 C   0  0  2  0  0  0  0  0  0  0  0  0
    9.2542   11.5461   23.6037 C   0  0  2  0  0  0  0  0  0  0  0  0
   13.6159   14.3590   23.2139 C   0  0  0  0  0  0  0  0  0  0  0  0
   13.3649   14.5919   20.7256 C   0  0  0  0  0  0  0  0  0  0  0  0
   11.4506   15.1907   22.2372 C   0  0  0  0  0  0  0  0  0  0  0  0
   12.6492   14.2650   22.0344 C   0  0  0  0  0  0  0  0  0  0  0  0
   10.2119   12.0784   22.6893 N   0  0  0  0  0  0  0  0  0  0  0  0
   11.9873   12.3569   24.1607 O   0  0  0  0  0  0  0  0  0  0  0  0
   10.1106    9.2827   23.1830 O   0  0  0  0  0  0  0  0  0  0  0  0
   12.1738   12.9173   21.9412 O   0  0  0  0  0  0  0  0  0  0  0  0
    7.6387   11.6493   26.3413 H   0  0  0  0  0  0  0  0  0  0  0  0
    6.8105   12.7298   25.2042 H   0  0  0  0  0  0  0  0  0  0  0  0
    8.8020   13.5321   24.4342 H   0  0  0  0  0  0  0  0  0  0  0  0
    9.6967   12.4868   25.5557 H   0  0  0  0  0  0  0  0  0  0  0  0
    8.2685    9.4152   25.7521 H   0  0  0  0  0  0  0  0  0  0  0  0
    7.9652    8.7139   24.1488 H   0  0  0  0  0  0  0  0  0  0  0  0
    7.8420   10.5486   22.2222 H   0  0  0  0  0  0  0  0  0  0  0  0
    7.3632   12.2156   22.6696 H   0  0  0  0  0  0  0  0  0  0  0  0
    6.2447   10.4865   24.3225 H   0  0  0  0  0  0  0  0  0  0  0  0
   10.3530   10.2108   24.9990 H   0  0  0  0  0  0  0  0  0  0  0  0
   13.1060   14.1251   24.1553 H   0  0  0  0  0  0  0  0  0  0  0  0
   14.4623   13.6743   23.0974 H   0  0  0  0  0  0  0  0  0  0  0  0
   14.0067   15.3776   23.3189 H   0  0  0  0  0  0  0  0  0  0  0  0
   12.6750   14.5256   19.8765 H   0  0  0  0  0  0  0  0  0  0  0  0
   14.1668   13.8712   20.5287 H   0  0  0  0  0  0  0  0  0  0  0  0
   13.7985   15.5970   20.7423 H   0  0  0  0  0  0  0  0  0  0  0  0
   10.7570   15.1234   21.3912 H   0  0  0  0  0  0  0  0  0  0  0  0
   10.9030   14.9467   23.1533 H   0  0  0  0  0  0  0  0  0  0  0  0
   11.7714   16.2373   22.2915 H   0  0  0  0  0  0  0  0  0  0  0  0
    9.9260   12.1989   21.7138 H   0  0  0  0  0  0  0  0  0  0  0  0
   10.2010    8.4079   23.5936 H   0  0  0  0  0  0  0  0  0  0  0  0
  1 13  1  0  0  0  0
  1 14  2  0  0  0  0
  1 16  1  0  0  0  0
  2  3  1  0  0  0  0
  2  6  1  0  0  0  0
  3  8  1  0  0  0  0
  4  6  1  0  0  0  0
  4  7  1  0  0  0  0
  5  6  1  6  0  0  0
  5  8  1  0  0  0  0
  7  8  1  0  0  0  0
  7 15  1  6  0  0  0
  8 13  1  6  0  0  0
  9 12  1  0  0  0  0
 10 12  1  0  0  0  0
 11 12  1  0  0  0  0
 12 16  1  0  0  0  0
  2 17  1  0  0  0  0
  2 18  1  0  0  0  0
  3 19  1  0  0  0  0
  3 20  1  0  0  0  0
  4 21  1  0  0  0  0
  4 22  1  0  0  0  0
  5 23  1  0  0  0  0
  5 24  1  0  0  0  0
  6 25  1  0  0  0  0
  7 26  1  0  0  0  0
  9 27  1  0  0  0  0
  9 28  1  0  0  0  0
  9 29  1  0  0  0  0
 10 30  1  0  0  0  0
 10 31  1  0  0  0  0
 10 32  1  0  0  0  0
 11 33  1  0  0  0  0
 11 34  1  0  0  0  0
 11 35  1  0  0  0  0
 13 36  1  0  0  0  0
 15 37  1  0  0  0  0
M  END
> <id>
EN300-45227041

> <smiles>
CC(C)(C)OC(=O)N[C@@]1(CC[C@@H]2C[C@H]1O)C2 |&1:8,11,13,r|

> <IUPAC Name>
rac-tert-butyl N-[(1R,2S,4R)-2-hydroxybicyclo[2.2.1]heptan-1-yl]carbamate

> <URL>
https://www.enaminestore.com/catalog/EN300-45227041

> <ROCS_ShapeQuery>
x0812_0A_x1140_0A_x1097_0A_x0365_0A_x1097_0A_x0310_0A

> <ROCS_TanimotoCombo>
0.749 

> <ROCS_ShapeTanimoto>
0.240 

> <ROCS_ColorTanimoto>
0.508 

> <ROCS_RefTversky>
0.217 

> <ROCS_RefColorTversky>
0.596 

> <ROCS_RefTverskyCombo>
0.813 

> <ROCS_FitTversky>
1.821 

> <ROCS_FitColorTversky>
0.775 

> <ROCS_FitTverskyCombo>
2.596 

> <ROCS_ColorScore>
-8.914

> <ROCS_Overlap>
2193.441

> <ROCS_Rank>
35                  

$$$$
untitled-dbase-574721_9
  -OEChem-02092408543D

 38 40  0     1  0  0  0  0  0999 V2000
   15.8756   10.8808   20.6917 C   0  0  0  0  0  0  0  0  0  0  0  0
   15.1904   10.6142   19.5063 C   0  0  0  0  0  0  0  0  0  0  0  0
   15.3388   11.7700   21.6228 C   0  0  0  0  0  0  0  0  0  0  0  0
   13.9685   11.2370   19.2519 C   0  0  0  0  0  0  0  0  0  0  0  0
   14.1169   12.3927   21.3684 C   0  0  0  0  0  0  0  0  0  0  0  0
   13.4317   12.1262   20.1830 C   0  0  0  0  0  0  0  0  0  0  0  0
   10.6341   12.0623   21.6084 C   0  0  0  0  0  0  0  0  0  0  0  0
    6.8928   10.8532   23.8945 C   0  0  0  0  0  0  0  0  0  0  0  0
    7.8621   11.2659   22.7754 C   0  0  0  0  0  0  0  0  0  0  0  0
    8.7900    9.9285   25.2355 C   0  0  0  0  0  0  0  0  0  0  0  0
    8.5755   12.2733   24.8154 C   0  0  0  0  0  0  0  0  0  0  0  0
    7.7312   11.0461   25.1704 C   0  0  1  0  0  0  0  0  0  0  0  0
    9.7929   10.3430   24.1440 C   0  0  2  0  0  0  0  0  0  0  0  0
    9.1464   11.6173   23.5551 C   0  0  1  0  0  0  0  0  0  0  0  0
   12.1174   12.7966   19.9098 C   0  0  0  0  0  0  0  0  0  0  0  0
   10.0572   12.4323   22.8154 N   0  0  0  0  0  0  0  0  0  0  0  0
   10.4383   10.9996   21.0279 O   0  0  0  0  0  0  0  0  0  0  0  0
    9.9529    9.3129   23.1874 O   0  0  0  0  0  0  0  0  0  0  0  0
   11.4567   13.0544   21.1539 O   0  0  0  0  0  0  0  0  0  0  0  0
   16.8264   10.3947   20.8902 H   0  0  0  0  0  0  0  0  0  0  0  0
   15.6077    9.9210   18.7818 H   0  0  0  0  0  0  0  0  0  0  0  0
   15.8714   11.9769   22.5462 H   0  0  0  0  0  0  0  0  0  0  0  0
   13.4418   11.0234   18.3256 H   0  0  0  0  0  0  0  0  0  0  0  0
   13.7064   13.0842   22.0995 H   0  0  0  0  0  0  0  0  0  0  0  0
    6.0196   11.5154   23.8986 H   0  0  0  0  0  0  0  0  0  0  0  0
    6.5402    9.8240   23.7743 H   0  0  0  0  0  0  0  0  0  0  0  0
    8.0035   10.4679   22.0401 H   0  0  0  0  0  0  0  0  0  0  0  0
    7.4601   12.1403   22.2492 H   0  0  0  0  0  0  0  0  0  0  0  0
    9.2827    9.9435   26.2148 H   0  0  0  0  0  0  0  0  0  0  0  0
    8.3641    8.9323   25.0794 H   0  0  0  0  0  0  0  0  0  0  0  0
    7.9706   13.1638   24.6116 H   0  0  0  0  0  0  0  0  0  0  0  0
    9.3329   12.5055   25.5722 H   0  0  0  0  0  0  0  0  0  0  0  0
    7.1318   11.1329   26.0788 H   0  0  0  0  0  0  0  0  0  0  0  0
   10.7681   10.5507   24.6011 H   0  0  0  0  0  0  0  0  0  0  0  0
   12.2635   13.7441   19.3801 H   0  0  0  0  0  0  0  0  0  0  0  0
   11.4786   12.1592   19.2891 H   0  0  0  0  0  0  0  0  0  0  0  0
   10.3001   13.3484   23.2005 H   0  0  0  0  0  0  0  0  0  0  0  0
   10.2831    8.5303   23.6616 H   0  0  0  0  0  0  0  0  0  0  0  0
  1  2  1  0  0  0  0
  1  3  2  0  0  0  0
  2  4  2  0  0  0  0
  3  5  1  0  0  0  0
  4  6  1  0  0  0  0
  5  6  2  0  0  0  0
  6 15  1  0  0  0  0
  7 16  1  0  0  0  0
  7 17  2  0  0  0  0
  7 19  1  0  0  0  0
  8  9  1  0  0  0  0
  8 12  1  0  0  0  0
  9 14  1  0  0  0  0
 10 12  1  0  0  0  0
 10 13  1  0  0  0  0
 11 12  1  6  0  0  0
 11 14  1  0  0  0  0
 13 14  1  0  0  0  0
 13 18  1  1  0  0  0
 14 16  1  6  0  0  0
 15 19  1  0  0  0  0
  1 20  1  0  0  0  0
  2 21  1  0  0  0  0
  3 22  1  0  0  0  0
  4 23  1  0  0  0  0
  5 24  1  0  0  0  0
  8 25  1  0  0  0  0
  8 26  1  0  0  0  0
  9 27  1  0  0  0  0
  9 28  1  0  0  0  0
 10 29  1  0  0  0  0
 10 30  1  0  0  0  0
 11 31  1  0  0  0  0
 11 32  1  0  0  0  0
 12 33  1  0  0  0  0
 13 34  1  0  0  0  0
 15 35  1  0  0  0  0
 15 36  1  0  0  0  0
 16 37  1  0  0  0  0
 18 38  1  0  0  0  0
M  END
> <id>
EN300-43360049

> <smiles>
O[C@@H]1C[C@@H]2CC[C@]1(C2)NC(=O)OCC=3C=CC=CC3 |&1:1,3,6,r|

> <IUPAC Name>
rac-benzyl N-[(1R,2R,4R)-2-hydroxybicyclo[2.2.1]heptan-1-yl]carbamate

> <URL>
https://www.enaminestore.com/catalog/EN300-43360049

> <ROCS_ShapeQuery>
x0812_0A_x1140_0A_x1097_0A_x0365_0A_x1097_0A_x0310_0A

> <ROCS_TanimotoCombo>
0.746 

> <ROCS_ShapeTanimoto>
0.205 

> <ROCS_ColorTanimoto>
0.542 

> <ROCS_RefTversky>
0.192 

> <ROCS_RefColorTversky>
0.622 

> <ROCS_RefTverskyCombo>
0.814 

> <ROCS_FitTversky>
1.447 

> <ROCS_FitColorTversky>
0.808 

> <ROCS_FitTverskyCombo>
2.255 

> <ROCS_ColorScore>
-9.291

> <ROCS_Overlap>
1947.952

> <ROCS_Rank>
36                  

$$$$
untitled-dbase-351780_9
  -OEChem-02092408543D

 30 32  0     0  0  0  0  0  0999 V2000
   10.6002   12.3456   21.8652 C   0  0  0  0  0  0  0  0  0  0  0  0
    7.7522   11.6466   23.1625 C   0  0  0  0  0  0  0  0  0  0  0  0
    8.5327   11.8846   25.0917 C   0  0  0  0  0  0  0  0  0  0  0  0
   10.6460    9.5070   24.5154 C   0  0  0  0  0  0  0  0  0  0  0  0
    9.8761    9.2719   22.6114 C   0  0  0  0  0  0  0  0  0  0  0  0
    9.2047   11.4992   23.7302 C   0  0  0  0  0  0  0  0  0  0  0  0
    9.3521    9.9652   23.8598 C   0  0  0  0  0  0  0  0  0  0  0  0
    7.4714   10.8554   24.5108 C   0  0  0  0  0  0  0  0  0  0  0  0
   11.6961   13.3289   21.5420 C   0  0  0  0  0  0  0  0  0  0  0  0
    6.0826   10.8031   25.0789 C   0  0  0  0  0  0  0  0  0  0  0  0
   10.2398   12.3447   23.2070 N   0  0  0  0  0  0  0  0  0  0  0  0
   10.0856   11.6402   20.9993 O   0  0  0  0  0  0  0  0  0  0  0  0
   11.1336    8.9663   23.2629 O   0  0  0  0  0  0  0  0  0  0  0  0
    8.0905    9.5255   24.4244 O   0  0  0  0  0  0  0  0  0  0  0  0
    6.1465   10.4561   26.4583 O   0  0  0  0  0  0  0  0  0  0  0  0
   11.0646   14.4758   20.3501 Cl  0  0  0  0  0  0  0  0  0  0  0  0
    7.3459   12.6619   23.0907 H   0  0  0  0  0  0  0  0  0  0  0  0
    7.5307   11.1040   22.2387 H   0  0  0  0  0  0  0  0  0  0  0  0
    9.0526   11.5678   26.0006 H   0  0  0  0  0  0  0  0  0  0  0  0
    8.2027   12.9232   25.2082 H   0  0  0  0  0  0  0  0  0  0  0  0
   11.3091   10.2860   24.9025 H   0  0  0  0  0  0  0  0  0  0  0  0
   10.5357    8.7207   25.2687 H   0  0  0  0  0  0  0  0  0  0  0  0
    9.3461    8.3576   22.3265 H   0  0  0  0  0  0  0  0  0  0  0  0
   10.0239    9.8937   21.7238 H   0  0  0  0  0  0  0  0  0  0  0  0
   12.0327   13.8860   22.4198 H   0  0  0  0  0  0  0  0  0  0  0  0
   12.5470   12.7954   21.1098 H   0  0  0  0  0  0  0  0  0  0  0  0
    5.4715   10.0501   24.5628 H   0  0  0  0  0  0  0  0  0  0  0  0
    5.5818   11.7769   24.9920 H   0  0  0  0  0  0  0  0  0  0  0  0
   10.7304   12.9700   23.8459 H   0  0  0  0  0  0  0  0  0  0  0  0
    5.2321   10.4343   26.7817 H   0  0  0  0  0  0  0  0  0  0  0  0
  1  9  1  0  0  0  0
  1 11  1  0  0  0  0
  1 12  2  0  0  0  0
  2  6  1  0  0  0  0
  2  8  1  0  0  0  0
  3  6  1  0  0  0  0
  3  8  1  0  0  0  0
  4  7  1  0  0  0  0
  4 13  1  0  0  0  0
  5  7  1  0  0  0  0
  5 13  1  0  0  0  0
  6  7  1  0  0  0  0
  6 11  1  0  0  0  0
  7 14  1  0  0  0  0
  8 10  1  0  0  0  0
  8 14  1  0  0  0  0
  9 16  1  0  0  0  0
 10 15  1  0  0  0  0
  2 17  1  0  0  0  0
  2 18  1  0  0  0  0
  3 19  1  0  0  0  0
  3 20  1  0  0  0  0
  4 21  1  0  0  0  0
  4 22  1  0  0  0  0
  5 23  1  0  0  0  0
  5 24  1  0  0  0  0
  9 25  1  0  0  0  0
  9 26  1  0  0  0  0
 10 27  1  0  0  0  0
 10 28  1  0  0  0  0
 11 29  1  0  0  0  0
 15 30  1  0  0  0  0
M  END
> <id>
EN300-26582828

> <smiles>
OCC1(CC2(C1)NC(=O)CCl)OC32COC3

> <IUPAC Name>
2-chloro-N-[4-(hydroxymethyl)-3-oxaspiro[bicyclo[2.1.1]hexane-2,3'-oxetan]-1-yl]acetamide

> <CAS>
2490374-64-4

> <URL>
https://www.enaminestore.com/catalog/EN300-26582828

> <ROCS_ShapeQuery>
x0812_0A_x1140_0A_x1097_0A_x0365_0A_x1097_0A_x0310_0A

> <ROCS_TanimotoCombo>
0.746 

> <ROCS_ShapeTanimoto>
0.261 

> <ROCS_ColorTanimoto>
0.485 

> <ROCS_RefTversky>
0.232 

> <ROCS_RefColorTversky>
0.627 

> <ROCS_RefTverskyCombo>
0.859 

> <ROCS_FitTversky>
1.944 

> <ROCS_FitColorTversky>
0.682 

> <ROCS_FitTverskyCombo>
2.625 

> <ROCS_ColorScore>
-9.445

> <ROCS_Overlap>
2346.316

> <ROCS_Rank>
37                  

$$$$
untitled-dbase-571810_8
  -OEChem-02092408543D

 37 38  0     1  0  0  0  0  0999 V2000
   10.2197   12.4731   21.4754 C   0  0  0  0  0  0  0  0  0  0  0  0
    8.3264   11.0844   25.7371 C   0  0  0  0  0  0  0  0  0  0  0  0
    9.6816   11.4439   25.1070 C   0  0  0  0  0  0  0  0  0  0  0  0
    7.6945    9.7742   23.7019 C   0  0  0  0  0  0  0  0  0  0  0  0
    7.9426   12.1513   23.6370 C   0  0  0  0  0  0  0  0  0  0  0  0
    7.3792   11.0383   24.5249 C   0  0  2  0  0  0  0  0  0  0  0  0
    9.0345   10.1268   23.0333 C   0  0  1  0  0  0  0  0  0  0  0  0
    9.3416   11.5288   23.6057 C   0  0  2  0  0  0  0  0  0  0  0  0
    9.6897   14.9982   21.0413 C   0  0  0  0  0  0  0  0  0  0  0  0
   12.1449   15.4082   20.7051 C   0  0  0  0  0  0  0  0  0  0  0  0
   10.8173   14.2357   18.9244 C   0  0  0  0  0  0  0  0  0  0  0  0
   10.9809   14.4596   20.4270 C   0  0  0  0  0  0  0  0  0  0  0  0
   10.3047   12.2595   22.8441 N   0  0  0  0  0  0  0  0  0  0  0  0
    9.3168   12.0667   20.7513 O   0  0  0  0  0  0  0  0  0  0  0  0
   10.0262    9.1701   23.3552 O   0  0  0  0  0  0  0  0  0  0  0  0
   11.2901   13.2048   21.0439 O   0  0  0  0  0  0  0  0  0  0  0  0
    8.3637   10.1334   26.2777 H   0  0  0  0  0  0  0  0  0  0  0  0
    8.0201   11.8665   26.4409 H   0  0  0  0  0  0  0  0  0  0  0  0
   10.0197   12.4116   25.4980 H   0  0  0  0  0  0  0  0  0  0  0  0
   10.4516   10.7014   25.3381 H   0  0  0  0  0  0  0  0  0  0  0  0
    7.7394    8.8696   24.3166 H   0  0  0  0  0  0  0  0  0  0  0  0
    6.9246    9.6319   22.9344 H   0  0  0  0  0  0  0  0  0  0  0  0
    7.4604   12.2009   22.6545 H   0  0  0  0  0  0  0  0  0  0  0  0
    7.9109   13.1365   24.1152 H   0  0  0  0  0  0  0  0  0  0  0  0
    6.3246   11.1347   24.7903 H   0  0  0  0  0  0  0  0  0  0  0  0
    8.9075   10.1463   21.9440 H   0  0  0  0  0  0  0  0  0  0  0  0
    8.8517   14.3201   20.8439 H   0  0  0  0  0  0  0  0  0  0  0  0
    9.7826   15.1301   22.1243 H   0  0  0  0  0  0  0  0  0  0  0  0
    9.4180   15.9627   20.5972 H   0  0  0  0  0  0  0  0  0  0  0  0
   13.0734   15.0256   20.2661 H   0  0  0  0  0  0  0  0  0  0  0  0
   12.3267   15.4977   21.7822 H   0  0  0  0  0  0  0  0  0  0  0  0
   11.9566   16.4081   20.3010 H   0  0  0  0  0  0  0  0  0  0  0  0
   11.7434   13.8493   18.4835 H   0  0  0  0  0  0  0  0  0  0  0  0
   10.0100   13.5287   18.7074 H   0  0  0  0  0  0  0  0  0  0  0  0
   10.6008   15.1796   18.4111 H   0  0  0  0  0  0  0  0  0  0  0  0
   11.1094   12.6506   23.3400 H   0  0  0  0  0  0  0  0  0  0  0  0
    9.7097    8.3093   23.0312 H   0  0  0  0  0  0  0  0  0  0  0  0
  1 13  1  0  0  0  0
  1 14  2  0  0  0  0
  1 16  1  0  0  0  0
  2  3  1  0  0  0  0
  2  6  1  0  0  0  0
  3  8  1  0  0  0  0
  4  6  1  0  0  0  0
  4  7  1  0  0  0  0
  5  6  1  6  0  0  0
  5  8  1  0  0  0  0
  7  8  1  0  0  0  0
  7 15  1  1  0  0  0
  8 13  1  6  0  0  0
  9 12  1  0  0  0  0
 10 12  1  0  0  0  0
 11 12  1  0  0  0  0
 12 16  1  0  0  0  0
  2 17  1  0  0  0  0
  2 18  1  0  0  0  0
  3 19  1  0  0  0  0
  3 20  1  0  0  0  0
  4 21  1  0  0  0  0
  4 22  1  0  0  0  0
  5 23  1  0  0  0  0
  5 24  1  0  0  0  0
  6 25  1  0  0  0  0
  7 26  1  0  0  0  0
  9 27  1  0  0  0  0
  9 28  1  0  0  0  0
  9 29  1  0  0  0  0
 10 30  1  0  0  0  0
 10 31  1  0  0  0  0
 10 32  1  0  0  0  0
 11 33  1  0  0  0  0
 11 34  1  0  0  0  0
 11 35  1  0  0  0  0
 13 36  1  0  0  0  0
 15 37  1  0  0  0  0
M  END
> <id>
EN300-43360050

> <smiles>
CC(C)(C)OC(=O)N[C@@]1(CC[C@@H]2C[C@@H]1O)C2 |&1:8,11,13,r|

> <IUPAC Name>
rac-tert-butyl N-[(1R,2R,4R)-2-hydroxybicyclo[2.2.1]heptan-1-yl]carbamate

> <URL>
https://www.enaminestore.com/catalog/EN300-43360050

> <ROCS_ShapeQuery>
x0812_0A_x1140_0A_x1097_0A_x0365_0A_x1097_0A_x0310_0A

> <ROCS_TanimotoCombo>
0.745 

> <ROCS_ShapeTanimoto>
0.218 

> <ROCS_ColorTanimoto>
0.528 

> <ROCS_RefTversky>
0.200 

> <ROCS_RefColorTversky>
0.611 

> <ROCS_RefTverskyCombo>
0.811 

> <ROCS_FitTversky>
1.679 

> <ROCS_FitColorTversky>
0.794 

> <ROCS_FitTverskyCombo>
2.473 

> <ROCS_ColorScore>
-9.132

> <ROCS_Overlap>
2024.595

> <ROCS_Rank>
38                  

$$$$
untitled-dbase-200207_0
  -OEChem-02092408543D

 35 37  0     1  0  0  0  0  0999 V2000
    8.2596   12.9198   23.4473 C   0  0  0  0  0  0  0  0  0  0  0  0
    6.4861   11.1665   23.7587 C   0  0  0  0  0  0  0  0  0  0  0  0
    7.9588   11.8185   25.6864 C   0  0  0  0  0  0  0  0  0  0  0  0
    8.5200   10.6640   22.3742 C   0  0  0  0  0  0  0  0  0  0  0  0
    9.9904   11.3123   24.3000 C   0  0  0  0  0  0  0  0  0  0  0  0
    8.2188    9.5655   24.6118 C   0  0  0  0  0  0  0  0  0  0  0  0
    7.5030   11.7607   22.7568 C   0  0  2  0  0  0  0  0  0  0  0  0
    8.9973   12.4205   24.7118 C   0  0  1  0  0  0  0  0  0  0  0  0
    7.2019   10.6476   25.0248 C   0  0  0  0  0  0  0  0  0  0  0  0
    9.2453   10.1485   23.6278 C   0  0  0  0  0  0  0  0  0  0  0  0
    6.7801   12.2710   21.5067 C   0  0  0  0  0  0  0  0  0  0  0  0
    9.7435   13.5784   25.3808 C   0  0  0  0  0  0  0  0  0  0  0  0
    6.2236   10.0808   25.9510 N   0  0  0  0  0  0  0  0  0  0  0  0
   10.1710    9.1415   23.2415 O   0  0  0  0  0  0  0  0  0  0  0  0
    8.9795   13.3643   22.7469 H   0  0  0  0  0  0  0  0  0  0  0  0
    7.5546   13.7177   23.7169 H   0  0  0  0  0  0  0  0  0  0  0  0
    5.7442   11.9301   24.0310 H   0  0  0  0  0  0  0  0  0  0  0  0
    5.9285   10.3491   23.2805 H   0  0  0  0  0  0  0  0  0  0  0  0
    8.4639   11.4731   26.5991 H   0  0  0  0  0  0  0  0  0  0  0  0
    7.2497   12.5969   26.0002 H   0  0  0  0  0  0  0  0  0  0  0  0
    8.0183    9.8296   21.8656 H   0  0  0  0  0  0  0  0  0  0  0  0
    9.2527   11.0483   21.6516 H   0  0  0  0  0  0  0  0  0  0  0  0
   10.7537   11.7088   23.6168 H   0  0  0  0  0  0  0  0  0  0  0  0
   10.5446   10.9452   25.1745 H   0  0  0  0  0  0  0  0  0  0  0  0
    8.7371    9.1596   25.4918 H   0  0  0  0  0  0  0  0  0  0  0  0
    7.7118    8.7063   24.1510 H   0  0  0  0  0  0  0  0  0  0  0  0
    6.2520   11.4490   21.0295 H   0  0  0  0  0  0  0  0  0  0  0  0
    7.5046   12.6860   20.8102 H   0  0  0  0  0  0  0  0  0  0  0  0
    6.0671   13.0426   21.7870 H   0  0  0  0  0  0  0  0  0  0  0  0
   10.2582   13.2170   26.2678 H   0  0  0  0  0  0  0  0  0  0  0  0
    9.0354   14.3526   25.6660 H   0  0  0  0  0  0  0  0  0  0  0  0
   10.4706   13.9935   24.6868 H   0  0  0  0  0  0  0  0  0  0  0  0
    6.4541    9.1273   26.0993 H   0  0  0  0  0  0  0  0  0  0  0  0
    6.2716   10.5904   26.8010 H   0  0  0  0  0  0  0  0  0  0  0  0
   10.6101    8.8386   24.0527 H   0  0  0  0  0  0  0  0  0  0  0  0
  1  7  1  0  0  0  0
  1  8  1  0  0  0  0
  2  7  1  0  0  0  0
  2  9  1  0  0  0  0
  3  8  1  0  0  0  0
  3  9  1  0  0  0  0
  4  7  1  0  0  0  0
  4 10  1  0  0  0  0
  5  8  1  0  0  0  0
  5 10  1  0  0  0  0
  6  9  1  0  0  0  0
  6 10  1  0  0  0  0
  7 11  1  0  0  0  0
  8 12  1  0  0  0  0
  9 13  1  0  0  0  0
 10 14  1  0  0  0  0
  1 15  1  0  0  0  0
  1 16  1  0  0  0  0
  2 17  1  0  0  0  0
  2 18  1  0  0  0  0
  3 19  1  0  0  0  0
  3 20  1  0  0  0  0
  4 21  1  0  0  0  0
  4 22  1  0  0  0  0
  5 23  1  0  0  0  0
  5 24  1  0  0  0  0
  6 25  1  0  0  0  0
  6 26  1  0  0  0  0
 11 27  1  0  0  0  0
 11 28  1  0  0  0  0
 11 29  1  0  0  0  0
 12 30  1  0  0  0  0
 12 31  1  0  0  0  0
 12 32  1  0  0  0  0
 13 33  1  0  0  0  0
 13 34  1  0  0  0  0
 14 35  1  0  0  0  0
M  END
> <id>
EN300-1722355

> <smiles>
CC1(CC2(C)CC3(N)C1)CC(O)(C2)C3

> <MDLNUMBER>
MFCD01838635

> <IUPAC Name>
3-amino-5,7-dimethyladamantan-1-ol

> <CAS>
63971-25-5

> <Purity>
95

> <URL>
https://www.enaminestore.com/catalog/EN300-1722355

> <ROCS_ShapeQuery>
x0812_0A_x1140_0A_x1097_0A_x0365_0A_x1097_0A_x0310_0A

> <ROCS_TanimotoCombo>
0.744 

> <ROCS_ShapeTanimoto>
0.226 

> <ROCS_ColorTanimoto>
0.518 

> <ROCS_RefTversky>
0.205 

> <ROCS_RefColorTversky>
0.586 

> <ROCS_RefTverskyCombo>
0.791 

> <ROCS_FitTversky>
1.842 

> <ROCS_FitColorTversky>
0.817 

> <ROCS_FitTverskyCombo>
2.659 

> <ROCS_ColorScore>
-8.732

> <ROCS_Overlap>
2075.565

> <ROCS_Rank>
39                  

$$$$
untitled-dbase-473609_0
  -OEChem-02092408543D

 28 29  0     1  0  0  0  0  0999 V2000
    9.7389   12.1111   22.4285 C   0  0  0  0  0  0  0  0  0  0  0  0
    9.6558   10.7692   25.0582 C   0  0  0  0  0  0  0  0  0  0  0  0
    7.3489   11.6875   25.2929 C   0  0  0  0  0  0  0  0  0  0  0  0
    8.5224   11.9330   23.2817 C   0  0  2  0  0  0  0  0  0  0  0  0
    8.7639   11.9997   24.7849 C   0  0  2  0  0  0  0  0  0  0  0  0
    7.9699   10.5121   23.3596 C   0  0  1  0  0  0  0  0  0  0  0  0
    9.0597    9.7174   24.1095 C   0  0  1  0  0  0  0  0  0  0  0  0
   12.5841   14.3265   23.0497 C   0  0  0  0  0  0  0  0  0  0  0  0
   11.7786   13.2959   22.2877 C   0  0  0  0  0  0  0  0  0  0  0  0
    6.8469   10.6903   24.3136 N   0  0  0  0  0  0  0  0  0  0  0  0
    9.9339   11.5119   21.3797 O   0  0  0  0  0  0  0  0  0  0  0  0
   10.0564    9.2470   23.2141 O   0  0  0  0  0  0  0  0  0  0  0  0
   10.5685   13.0279   23.0032 O   0  0  0  0  0  0  0  0  0  0  0  0
   10.7069   10.9783   24.8302 H   0  0  0  0  0  0  0  0  0  0  0  0
    9.5891   10.4528   26.1045 H   0  0  0  0  0  0  0  0  0  0  0  0
    7.3425   11.2898   26.3128 H   0  0  0  0  0  0  0  0  0  0  0  0
    6.7098   12.5761   25.2564 H   0  0  0  0  0  0  0  0  0  0  0  0
    7.7757   12.6610   22.9393 H   0  0  0  0  0  0  0  0  0  0  0  0
    9.1810   12.9350   25.1640 H   0  0  0  0  0  0  0  0  0  0  0  0
    7.6709   10.0785   22.4022 H   0  0  0  0  0  0  0  0  0  0  0  0
    8.6660    8.8529   24.6553 H   0  0  0  0  0  0  0  0  0  0  0  0
   12.0251   15.2607   23.1522 H   0  0  0  0  0  0  0  0  0  0  0  0
   12.8394   13.9559   24.0479 H   0  0  0  0  0  0  0  0  0  0  0  0
   13.5287   14.5345   22.5363 H   0  0  0  0  0  0  0  0  0  0  0  0
   12.3433   12.3640   22.1887 H   0  0  0  0  0  0  0  0  0  0  0  0
   11.5237   13.6680   21.2909 H   0  0  0  0  0  0  0  0  0  0  0  0
    6.6375    9.8114   24.7850 H   0  0  0  0  0  0  0  0  0  0  0  0
   10.7599    8.8549   23.7569 H   0  0  0  0  0  0  0  0  0  0  0  0
  1  4  1  6  0  0  0
  1 11  2  0  0  0  0
  1 13  1  0  0  0  0
  2  5  1  0  0  0  0
  2  7  1  0  0  0  0
  3  5  1  1  0  0  0
  3 10  1  0  0  0  0
  4  5  1  0  0  0  0
  4  6  1  0  0  0  0
  6  7  1  0  0  0  0
  6 10  1  1  0  0  0
  7 12  1  6  0  0  0
  8  9  1  0  0  0  0
  9 13  1  0  0  0  0
  2 14  1  0  0  0  0
  2 15  1  0  0  0  0
  3 16  1  0  0  0  0
  3 17  1  0  0  0  0
  4 18  1  0  0  0  0
  5 19  1  0  0  0  0
  6 20  1  0  0  0  0
  7 21  1  0  0  0  0
  8 22  1  0  0  0  0
  8 23  1  0  0  0  0
  8 24  1  0  0  0  0
  9 25  1  0  0  0  0
  9 26  1  0  0  0  0
 10 27  1  0  0  0  0
 12 28  1  0  0  0  0
M  END
> <id>
EN300-27732014

> <smiles>
CCOC(=O)[C@@H]1[C@H]2CN[C@@H]1[C@@H](O)C2 |&1:5,6,9,10,r|

> <IUPAC Name>
rac-ethyl (1R,4R,6R,7S)-6-hydroxy-2-azabicyclo[2.2.1]heptane-7-carboxylate

> <CAS>
2580092-11-9

> <URL>
https://www.enaminestore.com/catalog/EN300-27732014

> <ROCS_ShapeQuery>
x0812_0A_x1140_0A_x1097_0A_x0365_0A_x1097_0A_x0310_0A

> <ROCS_TanimotoCombo>
0.743 

> <ROCS_ShapeTanimoto>
0.232 

> <ROCS_ColorTanimoto>
0.511 

> <ROCS_RefTversky>
0.209 

> <ROCS_RefColorTversky>
0.599 

> <ROCS_RefTverskyCombo>
0.808 

> <ROCS_FitTversky>
1.955 

> <ROCS_FitColorTversky>
0.776 

> <ROCS_FitTverskyCombo>
2.731 

> <ROCS_ColorScore>
-8.960

> <ROCS_Overlap>
2109.329

> <ROCS_Rank>
40                  

$$$$
untitled-dbase-481130_7
  -OEChem-02092408543D

 40 41  0     1  0  0  0  0  0999 V2000
   11.2610   13.1676   22.6208 C   0  0  0  0  0  0  0  0  0  0  0  0
    6.9513   11.3674   25.0746 C   0  0  0  0  0  0  0  0  0  0  0  0
    6.8449   11.0854   23.5686 C   0  0  0  0  0  0  0  0  0  0  0  0
    9.2301   12.3653   24.7536 C   0  0  0  0  0  0  0  0  0  0  0  0
    8.9981    9.9223   25.2002 C   0  0  0  0  0  0  0  0  0  0  0  0
    8.4199   11.3111   25.5300 C   0  0  2  0  0  0  0  0  0  0  0  0
    8.2495   10.8578   22.9748 C   0  0  1  0  0  0  0  0  0  0  0  0
    9.0741   12.1464   23.2335 C   0  0  2  0  0  0  0  0  0  0  0  0
    8.8564    9.6334   23.6973 C   0  0  1  0  0  0  0  0  0  0  0  0
   12.6509   15.6249   23.0447 C   0  0  0  0  0  0  0  0  0  0  0  0
   10.9583   16.0563   24.8497 C   0  0  0  0  0  0  0  0  0  0  0  0
   12.5033   14.0843   25.0294 C   0  0  0  0  0  0  0  0  0  0  0  0
   11.7210   14.9844   24.0742 C   0  0  0  0  0  0  0  0  0  0  0  0
   10.3543   12.1278   22.5702 N   0  0  0  0  0  0  0  0  0  0  0  0
   12.3571   13.1876   22.0706 O   0  0  0  0  0  0  0  0  0  0  0  0
   10.1309    9.2991   23.1612 O   0  0  0  0  0  0  0  0  0  0  0  0
   10.7561   14.1845   23.3813 O   0  0  0  0  0  0  0  0  0  0  0  0
    6.5250   12.3528   25.2976 H   0  0  0  0  0  0  0  0  0  0  0  0
    6.3549   10.6342   25.6307 H   0  0  0  0  0  0  0  0  0  0  0  0
    6.2120   10.2062   23.3977 H   0  0  0  0  0  0  0  0  0  0  0  0
    6.3506   11.9265   23.0671 H   0  0  0  0  0  0  0  0  0  0  0  0
    8.8819   13.3727   25.0136 H   0  0  0  0  0  0  0  0  0  0  0  0
   10.2831   12.3144   25.0586 H   0  0  0  0  0  0  0  0  0  0  0  0
   10.0452    9.8611   25.5203 H   0  0  0  0  0  0  0  0  0  0  0  0
    8.4514    9.1595   25.7684 H   0  0  0  0  0  0  0  0  0  0  0  0
    8.4897   11.5012   26.6064 H   0  0  0  0  0  0  0  0  0  0  0  0
    8.1765   10.6724   21.8966 H   0  0  0  0  0  0  0  0  0  0  0  0
    8.5431   13.0044   22.8031 H   0  0  0  0  0  0  0  0  0  0  0  0
    8.2134    8.7566   23.5555 H   0  0  0  0  0  0  0  0  0  0  0  0
   13.2002   14.8588   22.4858 H   0  0  0  0  0  0  0  0  0  0  0  0
   12.0975   16.2453   22.3322 H   0  0  0  0  0  0  0  0  0  0  0  0
   13.4055   16.2504   23.5351 H   0  0  0  0  0  0  0  0  0  0  0  0
   10.2898   15.6012   25.5895 H   0  0  0  0  0  0  0  0  0  0  0  0
   10.3216   16.6446   24.1791 H   0  0  0  0  0  0  0  0  0  0  0  0
   11.6378   16.7390   25.3701 H   0  0  0  0  0  0  0  0  0  0  0  0
   11.8365   13.6247   25.7680 H   0  0  0  0  0  0  0  0  0  0  0  0
   13.0275   13.2864   24.4935 H   0  0  0  0  0  0  0  0  0  0  0  0
   13.2397   14.6649   25.5967 H   0  0  0  0  0  0  0  0  0  0  0  0
   10.6038   11.3008   22.0340 H   0  0  0  0  0  0  0  0  0  0  0  0
   10.4362    8.5111   23.6383 H   0  0  0  0  0  0  0  0  0  0  0  0
  1 14  1  0  0  0  0
  1 15  2  0  0  0  0
  1 17  1  0  0  0  0
  2  3  1  0  0  0  0
  2  6  1  0  0  0  0
  3  7  1  1  0  0  0
  4  6  1  6  0  0  0
  4  8  1  0  0  0  0
  5  6  1  0  0  0  0
  5  9  1  0  0  0  0
  7  8  1  0  0  0  0
  7  9  1  0  0  0  0
  8 14  1  6  0  0  0
  9 16  1  6  0  0  0
 10 13  1  0  0  0  0
 11 13  1  0  0  0  0
 12 13  1  0  0  0  0
 13 17  1  0  0  0  0
  2 18  1  0  0  0  0
  2 19  1  0  0  0  0
  3 20  1  0  0  0  0
  3 21  1  0  0  0  0
  4 22  1  0  0  0  0
  4 23  1  0  0  0  0
  5 24  1  0  0  0  0
  5 25  1  0  0  0  0
  6 26  1  0  0  0  0
  7 27  1  0  0  0  0
  8 28  1  0  0  0  0
  9 29  1  0  0  0  0
 10 30  1  0  0  0  0
 10 31  1  0  0  0  0
 10 32  1  0  0  0  0
 11 33  1  0  0  0  0
 11 34  1  0  0  0  0
 11 35  1  0  0  0  0
 12 36  1  0  0  0  0
 12 37  1  0  0  0  0
 12 38  1  0  0  0  0
 14 39  1  0  0  0  0
 16 40  1  0  0  0  0
M  END
> <id>
EN300-27718554

> <smiles>
CC(C)(C)OC(=O)N[C@@H]1C[C@H]2CC[C@@H]1[C@@H](O)C2 |&1:8,10,13,14,r|

> <IUPAC Name>
rac-tert-butyl N-[(1R,2S,4S,6R)-6-hydroxybicyclo[2.2.2]octan-2-yl]carbamate

> <CAS>
2580099-82-5

> <URL>
https://www.enaminestore.com/catalog/EN300-27718554

> <ROCS_ShapeQuery>
x0812_0A_x1140_0A_x1097_0A_x0365_0A_x1097_0A_x0310_0A

> <ROCS_TanimotoCombo>
0.743 

> <ROCS_ShapeTanimoto>
0.236 

> <ROCS_ColorTanimoto>
0.507 

> <ROCS_RefTversky>
0.214 

> <ROCS_RefColorTversky>
0.589 

> <ROCS_RefTverskyCombo>
0.803 

> <ROCS_FitTversky>
1.755 

> <ROCS_FitColorTversky>
0.785 

> <ROCS_FitTverskyCombo>
2.541 

> <ROCS_ColorScore>
-8.789

> <ROCS_Overlap>
2165.708

> <ROCS_Rank>
41                  

$$$$
untitled-dbase-485840_4
  -OEChem-02092408543D

 31 33  0     0  0  0  0  0  0999 V2000
   13.4656   14.8486   20.3902 C   0  0  0  0  0  0  0  0  0  0  0  0
   13.2783   15.1900   21.7296 C   0  0  0  0  0  0  0  0  0  0  0  0
   12.7309   13.8051   19.8272 C   0  0  0  0  0  0  0  0  0  0  0  0
   12.3564   14.4880   22.5060 C   0  0  0  0  0  0  0  0  0  0  0  0
   11.8089   13.1031   20.6035 C   0  0  0  0  0  0  0  0  0  0  0  0
   11.6216   13.4445   21.9429 C   0  0  0  0  0  0  0  0  0  0  0  0
    9.8784   11.6745   22.3337 C   0  0  0  0  0  0  0  0  0  0  0  0
    9.1110   11.8782   24.8963 C   0  0  0  0  0  0  0  0  0  0  0  0
    7.5043   11.6403   23.5831 C   0  0  0  0  0  0  0  0  0  0  0  0
    8.1375    9.6239   24.8346 C   0  0  0  0  0  0  0  0  0  0  0  0
    9.0112   11.1865   23.4826 C   0  0  0  0  0  0  0  0  0  0  0  0
    7.7507   11.1042   25.0397 C   0  0  0  0  0  0  0  0  0  0  0  0
    6.7958   11.4086   26.1542 C   0  0  0  0  0  0  0  0  0  0  0  0
   10.6863   12.7325   22.7307 N   0  0  0  0  0  0  0  0  0  0  0  0
    9.8142   11.1445   21.2292 O   0  0  0  0  0  0  0  0  0  0  0  0
    9.0324    9.7511   23.7168 O   0  0  0  0  0  0  0  0  0  0  0  0
    6.3877   12.6964   26.1095 F   0  0  0  0  0  0  0  0  0  0  0  0
    5.6963   10.6257   26.0825 F   0  0  0  0  0  0  0  0  0  0  0  0
    7.3707   11.2010   27.3598 F   0  0  0  0  0  0  0  0  0  0  0  0
   14.1829   15.3955   19.7852 H   0  0  0  0  0  0  0  0  0  0  0  0
   13.8496   16.0030   22.1681 H   0  0  0  0  0  0  0  0  0  0  0  0
   12.8762   13.5401   18.7839 H   0  0  0  0  0  0  0  0  0  0  0  0
   12.2188   14.7631   23.5487 H   0  0  0  0  0  0  0  0  0  0  0  0
   11.2419   12.2917   20.1539 H   0  0  0  0  0  0  0  0  0  0  0  0
    9.9259   11.5362   25.5412 H   0  0  0  0  0  0  0  0  0  0  0  0
    9.0658   12.9728   24.9196 H   0  0  0  0  0  0  0  0  0  0  0  0
    7.2979   12.7110   23.4745 H   0  0  0  0  0  0  0  0  0  0  0  0
    6.7906   11.0724   22.9787 H   0  0  0  0  0  0  0  0  0  0  0  0
    8.6722    9.2035   25.6912 H   0  0  0  0  0  0  0  0  0  0  0  0
    7.2846    8.9978   24.5572 H   0  0  0  0  0  0  0  0  0  0  0  0
   10.6066   13.0405   23.6976 H   0  0  0  0  0  0  0  0  0  0  0  0
  1  2  1  0  0  0  0
  1  3  2  0  0  0  0
  2  4  2  0  0  0  0
  3  5  1  0  0  0  0
  4  6  1  0  0  0  0
  5  6  2  0  0  0  0
  6 14  1  0  0  0  0
  7 11  1  0  0  0  0
  7 14  1  0  0  0  0
  7 15  2  0  0  0  0
  8 11  1  0  0  0  0
  8 12  1  0  0  0  0
  9 11  1  0  0  0  0
  9 12  1  0  0  0  0
 10 12  1  0  0  0  0
 10 16  1  0  0  0  0
 11 16  1  0  0  0  0
 12 13  1  0  0  0  0
 13 17  1  0  0  0  0
 13 18  1  0  0  0  0
 13 19  1  0  0  0  0
  1 20  1  0  0  0  0
  2 21  1  0  0  0  0
  3 22  1  0  0  0  0
  4 23  1  0  0  0  0
  5 24  1  0  0  0  0
  8 25  1  0  0  0  0
  8 26  1  0  0  0  0
  9 27  1  0  0  0  0
  9 28  1  0  0  0  0
 10 29  1  0  0  0  0
 10 30  1  0  0  0  0
 14 31  1  0  0  0  0
M  END
> <id>
EN300-27755159

> <smiles>
FC(F)(F)C1(CC2(C1)C(=O)NC=3C=CC=CC3)CO2

> <MDLNUMBER>
MFCD33549410

> <IUPAC Name>
N-phenyl-4-(trifluoromethyl)-2-oxabicyclo[2.1.1]hexane-1-carboxamide

> <CAS>
2639420-68-9

> <Purity>
95

> <URL>
https://www.enaminestore.com/catalog/EN300-27755159

> <ROCS_ShapeQuery>
x0812_0A_x1140_0A_x1097_0A_x0365_0A_x1097_0A_x0310_0A

> <ROCS_TanimotoCombo>
0.743 

> <ROCS_ShapeTanimoto>
0.262 

> <ROCS_ColorTanimoto>
0.481 

> <ROCS_RefTversky>
0.236 

> <ROCS_RefColorTversky>
0.564 

> <ROCS_RefTverskyCombo>
0.800 

> <ROCS_FitTversky>
1.750 

> <ROCS_FitColorTversky>
0.765 

> <ROCS_FitTverskyCombo>
2.515 

> <ROCS_ColorScore>
-8.412

> <ROCS_Overlap>
2386.870

> <ROCS_Rank>
42                  

$$$$
untitled-dbase-568119_6
  -OEChem-02092408543D

 31 33  0     0  0  0  0  0  0999 V2000
   13.7191   14.6207   20.4838 C   0  0  0  0  0  0  0  0  0  0  0  0
   13.1947   15.2189   21.6295 C   0  0  0  0  0  0  0  0  0  0  0  0
   13.2820   13.3541   20.0959 C   0  0  0  0  0  0  0  0  0  0  0  0
   12.2332   14.5505   22.3874 C   0  0  0  0  0  0  0  0  0  0  0  0
   12.3205   12.6857   20.8538 C   0  0  0  0  0  0  0  0  0  0  0  0
   11.7961   13.2839   21.9996 C   0  0  0  0  0  0  0  0  0  0  0  0
    9.8741   11.6939   22.3194 C   0  0  0  0  0  0  0  0  0  0  0  0
    7.4502   11.4217   23.4373 C   0  0  0  0  0  0  0  0  0  0  0  0
    8.9125   12.0218   24.8026 C   0  0  0  0  0  0  0  0  0  0  0  0
    8.2816    9.6510   24.9228 C   0  0  0  0  0  0  0  0  0  0  0  0
    9.0101   11.1925   23.4648 C   0  0  0  0  0  0  0  0  0  0  0  0
    7.6718   11.0689   24.9527 C   0  0  0  0  0  0  0  0  0  0  0  0
    6.6090   11.3300   25.9765 C   0  0  0  0  0  0  0  0  0  0  0  0
   10.8205   12.6061   22.7686 N   0  0  0  0  0  0  0  0  0  0  0  0
    9.6950   11.2912   21.1746 O   0  0  0  0  0  0  0  0  0  0  0  0
    9.2226    9.8053   23.8471 O   0  0  0  0  0  0  0  0  0  0  0  0
    5.4763   10.6508   25.6888 F   0  0  0  0  0  0  0  0  0  0  0  0
    7.0143   10.9507   27.2089 F   0  0  0  0  0  0  0  0  0  0  0  0
    6.2974   12.6442   26.0324 F   0  0  0  0  0  0  0  0  0  0  0  0
   14.4672   15.1411   19.8929 H   0  0  0  0  0  0  0  0  0  0  0  0
   13.5341   16.2053   21.9313 H   0  0  0  0  0  0  0  0  0  0  0  0
   13.6898   12.8890   19.2031 H   0  0  0  0  0  0  0  0  0  0  0  0
   11.8315   15.0267   23.2784 H   0  0  0  0  0  0  0  0  0  0  0  0
   11.9873   11.6990   20.5418 H   0  0  0  0  0  0  0  0  0  0  0  0
    7.0986   12.4340   23.2083 H   0  0  0  0  0  0  0  0  0  0  0  0
    6.8688   10.6981   22.8582 H   0  0  0  0  0  0  0  0  0  0  0  0
    9.7224   11.8689   25.5222 H   0  0  0  0  0  0  0  0  0  0  0  0
    8.7078   13.0943   24.7108 H   0  0  0  0  0  0  0  0  0  0  0  0
    8.8113    9.3989   25.8458 H   0  0  0  0  0  0  0  0  0  0  0  0
    7.5493    8.8802   24.6661 H   0  0  0  0  0  0  0  0  0  0  0  0
   10.8241   12.8201   23.7637 H   0  0  0  0  0  0  0  0  0  0  0  0
  1  2  1  0  0  0  0
  1  3  2  0  0  0  0
  2  4  2  0  0  0  0
  3  5  1  0  0  0  0
  4  6  1  0  0  0  0
  5  6  2  0  0  0  0
  6 14  1  0  0  0  0
  7 11  1  1  0  0  0
  7 14  1  0  0  0  0
  7 15  2  0  0  0  0
  8 11  1  0  0  0  0
  8 12  1  0  0  0  0
  9 11  1  0  0  0  0
  9 12  1  0  0  0  0
 10 12  1  0  0  0  0
 10 16  1  0  0  0  0
 11 16  1  0  0  0  0
 12 13  1  1  0  0  0
 13 17  1  0  0  0  0
 13 18  1  0  0  0  0
 13 19  1  0  0  0  0
  1 20  1  0  0  0  0
  2 21  1  0  0  0  0
  3 22  1  0  0  0  0
  4 23  1  0  0  0  0
  5 24  1  0  0  0  0
  8 25  1  0  0  0  0
  8 26  1  0  0  0  0
  9 27  1  0  0  0  0
  9 28  1  0  0  0  0
 10 29  1  0  0  0  0
 10 30  1  0  0  0  0
 14 31  1  0  0  0  0
M  END
> <id>
EN300-37375446

> <smiles>
FC(F)(F)[C@]1(C[C@]2(C1)C(=O)NC=3C=CC=CC3)CO2

> <IUPAC Name>
N-phenyl-4-(trifluoromethyl)-2-oxabicyclo[2.1.1]hexane-1-carboxamide

> <CAS>
2639420-68-9

> <URL>
https://www.enaminestore.com/catalog/EN300-37375446

> <ROCS_ShapeQuery>
x0812_0A_x1140_0A_x1097_0A_x0365_0A_x1097_0A_x0310_0A

> <ROCS_TanimotoCombo>
0.741 

> <ROCS_ShapeTanimoto>
0.262 

> <ROCS_ColorTanimoto>
0.480 

> <ROCS_RefTversky>
0.235 

> <ROCS_RefColorTversky>
0.563 

> <ROCS_RefTverskyCombo>
0.799 

> <ROCS_FitTversky>
1.747 

> <ROCS_FitColorTversky>
0.764 

> <ROCS_FitTverskyCombo>
2.511 

> <ROCS_ColorScore>
-8.403

> <ROCS_Overlap>
2382.593

> <ROCS_Rank>
43                  

$$$$
untitled-dbase-359697_7
  -OEChem-02092408543D

 40 41  0     1  0  0  0  0  0999 V2000
    9.5300   12.1323   22.2848 C   0  0  0  0  0  0  0  0  0  0  0  0
    5.7794    9.8793   24.6108 C   0  0  0  0  0  0  0  0  0  0  0  0
    9.7096   10.8761   24.9545 C   0  0  0  0  0  0  0  0  0  0  0  0
    7.3771   11.7134   25.3555 C   0  0  0  0  0  0  0  0  0  0  0  0
    8.3939   11.9211   23.2350 C   0  0  2  0  0  0  0  0  0  0  0  0
    8.7412   12.0632   24.7230 C   0  0  2  0  0  0  0  0  0  0  0  0
    7.9129   10.4741   23.3994 C   0  0  1  0  0  0  0  0  0  0  0  0
    9.1155    9.7669   24.0603 C   0  0  1  0  0  0  0  0  0  0  0  0
    6.0843    8.2387   26.6293 C   0  0  0  0  0  0  0  0  0  0  0  0
    4.8158    9.8538   28.0755 C   0  0  0  0  0  0  0  0  0  0  0  0
    3.5883    8.4555   26.3885 C   0  0  0  0  0  0  0  0  0  0  0  0
   11.0277   13.7740   21.4814 C   0  0  0  0  0  0  0  0  0  0  0  0
    4.8909    9.1902   26.7022 C   0  0  0  0  0  0  0  0  0  0  0  0
    6.9161   10.6451   24.4643 N   0  0  0  0  0  0  0  0  0  0  0  0
   10.0009   11.2547   21.5740 O   0  0  0  0  0  0  0  0  0  0  0  0
    5.4372    8.9929   23.8320 O   0  0  0  0  0  0  0  0  0  0  0  0
   10.0652    9.3465   23.0942 O   0  0  0  0  0  0  0  0  0  0  0  0
    9.9391   13.4315   22.3450 O   0  0  0  0  0  0  0  0  0  0  0  0
    5.0747   10.2268   25.7316 O   0  0  0  0  0  0  0  0  0  0  0  0
   10.7320   11.1333   24.6561 H   0  0  0  0  0  0  0  0  0  0  0  0
    9.7239   10.5778   26.0081 H   0  0  0  0  0  0  0  0  0  0  0  0
    7.4431   11.3511   26.3856 H   0  0  0  0  0  0  0  0  0  0  0  0
    6.6645   12.5427   25.2987 H   0  0  0  0  0  0  0  0  0  0  0  0
    7.5842   12.5947   22.9270 H   0  0  0  0  0  0  0  0  0  0  0  0
    9.1461   13.0283   25.0335 H   0  0  0  0  0  0  0  0  0  0  0  0
    7.5255    9.9870   22.5017 H   0  0  0  0  0  0  0  0  0  0  0  0
    8.8185    8.8898   24.6459 H   0  0  0  0  0  0  0  0  0  0  0  0
    6.1417    7.7603   25.6451 H   0  0  0  0  0  0  0  0  0  0  0  0
    7.0282    8.7604   26.8180 H   0  0  0  0  0  0  0  0  0  0  0  0
    5.9840    7.4290   27.3612 H   0  0  0  0  0  0  0  0  0  0  0  0
    3.9609   10.5374   28.1323 H   0  0  0  0  0  0  0  0  0  0  0  0
    5.7089   10.4600   28.2655 H   0  0  0  0  0  0  0  0  0  0  0  0
    4.7219    9.1141   28.8771 H   0  0  0  0  0  0  0  0  0  0  0  0
    2.7322    9.1377   26.4407 H   0  0  0  0  0  0  0  0  0  0  0  0
    3.6101    8.0039   25.3913 H   0  0  0  0  0  0  0  0  0  0  0  0
    3.3995    7.6655   27.1244 H   0  0  0  0  0  0  0  0  0  0  0  0
   11.2749   14.8310   21.6072 H   0  0  0  0  0  0  0  0  0  0  0  0
   10.7473   13.5754   20.4440 H   0  0  0  0  0  0  0  0  0  0  0  0
   11.8958   13.1653   21.7452 H   0  0  0  0  0  0  0  0  0  0  0  0
   10.8348    9.0091   23.5822 H   0  0  0  0  0  0  0  0  0  0  0  0
  1  5  1  6  0  0  0
  1 15  2  0  0  0  0
  1 18  1  0  0  0  0
  2 14  1  0  0  0  0
  2 16  2  0  0  0  0
  2 19  1  0  0  0  0
  3  6  1  6  0  0  0
  3  8  1  0  0  0  0
  4  6  1  0  0  0  0
  4 14  1  0  0  0  0
  5  6  1  0  0  0  0
  5  7  1  0  0  0  0
  7  8  1  0  0  0  0
  7 14  1  6  0  0  0
  8 17  1  1  0  0  0
  9 13  1  0  0  0  0
 10 13  1  0  0  0  0
 11 13  1  0  0  0  0
 12 18  1  0  0  0  0
 13 19  1  0  0  0  0
  3 20  1  0  0  0  0
  3 21  1  0  0  0  0
  4 22  1  0  0  0  0
  4 23  1  0  0  0  0
  5 24  1  0  0  0  0
  6 25  1  0  0  0  0
  7 26  1  0  0  0  0
  8 27  1  0  0  0  0
  9 28  1  0  0  0  0
  9 29  1  0  0  0  0
  9 30  1  0  0  0  0
 10 31  1  0  0  0  0
 10 32  1  0  0  0  0
 10 33  1  0  0  0  0
 11 34  1  0  0  0  0
 11 35  1  0  0  0  0
 11 36  1  0  0  0  0
 12 37  1  0  0  0  0
 12 38  1  0  0  0  0
 12 39  1  0  0  0  0
 17 40  1  0  0  0  0
M  END
> <id>
EN300-26665761

> <smiles>
COC(=O)[C@@H]1[C@@H]2C[C@H](O)[C@H]1N(C2)C(=O)OC(C)(C)C |&1:4,5,7,9,r|

> <IUPAC Name>
rac-2-tert-butyl 7-methyl (1R,4R,6R,7S)-6-hydroxy-2-azabicyclo[2.2.1]heptane-2,7-dicarboxylate

> <CAS>
2413846-83-8

> <URL>
https://www.enaminestore.com/catalog/EN300-26665761

> <ROCS_ShapeQuery>
x0812_0A_x1140_0A_x1097_0A_x0365_0A_x1097_0A_x0310_0A

> <ROCS_TanimotoCombo>
0.739 

> <ROCS_ShapeTanimoto>
0.237 

> <ROCS_ColorTanimoto>
0.502 

> <ROCS_RefTversky>
0.217 

> <ROCS_RefColorTversky>
0.593 

> <ROCS_RefTverskyCombo>
0.810 

> <ROCS_FitTversky>
1.638 

> <ROCS_FitColorTversky>
0.767 

> <ROCS_FitTverskyCombo>
2.405 

> <ROCS_ColorScore>
-8.865

> <ROCS_Overlap>
2196.604

> <ROCS_Rank>
44                  

$$$$
untitled-dbase-236375_0
  -OEChem-02092408543D

 22 23  0     1  0  0  0  0  0999 V2000
    7.0734   11.1671   24.2103 C   0  0  0  0  0  0  0  0  0  0  0  0
    9.0624   12.3729   24.7844 C   0  0  0  0  0  0  0  0  0  0  0  0
    8.8446    9.9228   25.2219 C   0  0  0  0  0  0  0  0  0  0  0  0
    8.1197   11.2788   25.3231 C   0  0  2  0  0  0  0  0  0  0  0  0
    8.1251   10.8875   23.1306 C   0  0  1  0  0  0  0  0  0  0  0  0
    8.9960   12.1618   23.2580 C   0  0  2  0  0  0  0  0  0  0  0  0
    8.7896    9.6224   23.7163 C   0  0  1  0  0  0  0  0  0  0  0  0
   10.3024   12.0981   22.6291 N   0  0  0  0  0  0  0  0  0  0  0  0
   10.0730    9.3513   23.1948 O   0  0  0  0  0  0  0  0  0  0  0  0
    6.3708   10.3400   24.3587 H   0  0  0  0  0  0  0  0  0  0  0  0
    6.5163   12.0957   24.0467 H   0  0  0  0  0  0  0  0  0  0  0  0
    8.6893   13.3717   25.0392 H   0  0  0  0  0  0  0  0  0  0  0  0
   10.0737   12.2801   25.1955 H   0  0  0  0  0  0  0  0  0  0  0  0
    9.8629    9.9543   25.6222 H   0  0  0  0  0  0  0  0  0  0  0  0
    8.2836    9.1589   25.7731 H   0  0  0  0  0  0  0  0  0  0  0  0
    7.7295   11.4909   26.3204 H   0  0  0  0  0  0  0  0  0  0  0  0
    7.7334   10.7398   22.1212 H   0  0  0  0  0  0  0  0  0  0  0  0
    8.4507   13.0053   22.8136 H   0  0  0  0  0  0  0  0  0  0  0  0
    8.1593    8.7425   23.5398 H   0  0  0  0  0  0  0  0  0  0  0  0
   11.0005   12.2067   23.3303 H   0  0  0  0  0  0  0  0  0  0  0  0
   10.3986   11.2139   22.1820 H   0  0  0  0  0  0  0  0  0  0  0  0
   10.4207    8.5755   23.6695 H   0  0  0  0  0  0  0  0  0  0  0  0
  1  4  1  6  0  0  0
  1  5  1  6  0  0  0
  2  4  1  0  0  0  0
  2  6  1  0  0  0  0
  3  4  1  0  0  0  0
  3  7  1  0  0  0  0
  5  6  1  0  0  0  0
  5  7  1  0  0  0  0
  6  8  1  1  0  0  0
  7  9  1  1  0  0  0
  1 10  1  0  0  0  0
  1 11  1  0  0  0  0
  2 12  1  0  0  0  0
  2 13  1  0  0  0  0
  3 14  1  0  0  0  0
  3 15  1  0  0  0  0
  4 16  1  0  0  0  0
  5 17  1  0  0  0  0
  6 18  1  0  0  0  0
  7 19  1  0  0  0  0
  8 20  1  0  0  0  0
  8 21  1  0  0  0  0
  9 22  1  0  0  0  0
M  END
> <id>
EN300-7430205

> <smiles>
Cl.N[C@@H]1C[C@@H]2C[C@H](O)[C@H]1C2 |&1:2,6,&2:4,8,r|

> <IUPAC Name>
(1RS,2RS&,4SR,6SR&)-6-aminobicyclo[2.2.1]heptan-2-ol hydrochloride

> <CAS>
2408937-20-0

> <Purity>
95

> <URL>
https://www.enaminestore.com/catalog/EN300-7430205

> <Saltdate>
Cl

> <ROCS_ShapeQuery>
x0812_0A_x1140_0A_x1097_0A_x0365_0A_x1097_0A_x0310_0A

> <ROCS_TanimotoCombo>
0.739 

> <ROCS_ShapeTanimoto>
0.187 

> <ROCS_ColorTanimoto>
0.553 

> <ROCS_RefTversky>
0.171 

> <ROCS_RefColorTversky>
0.608 

> <ROCS_RefTverskyCombo>
0.779 

> <ROCS_FitTversky>
1.916 

> <ROCS_FitColorTversky>
0.859 

> <ROCS_FitTverskyCombo>
2.775 

> <ROCS_ColorScore>
-9.049

> <ROCS_Overlap>
1731.063

> <ROCS_Rank>
45                  

$$$$
untitled-dbase-236378_0
  -OEChem-02092408543D

 22 23  0     1  0  0  0  0  0999 V2000
    7.0734   11.1671   24.2103 C   0  0  0  0  0  0  0  0  0  0  0  0
    9.0624   12.3729   24.7844 C   0  0  0  0  0  0  0  0  0  0  0  0
    8.8446    9.9228   25.2219 C   0  0  0  0  0  0  0  0  0  0  0  0
    8.1197   11.2788   25.3231 C   0  0  2  0  0  0  0  0  0  0  0  0
    8.1251   10.8875   23.1306 C   0  0  1  0  0  0  0  0  0  0  0  0
    8.9960   12.1618   23.2580 C   0  0  2  0  0  0  0  0  0  0  0  0
    8.7896    9.6224   23.7163 C   0  0  1  0  0  0  0  0  0  0  0  0
   10.3024   12.0981   22.6291 N   0  0  0  0  0  0  0  0  0  0  0  0
   10.0730    9.3513   23.1948 O   0  0  0  0  0  0  0  0  0  0  0  0
    6.3708   10.3400   24.3587 H   0  0  0  0  0  0  0  0  0  0  0  0
    6.5163   12.0957   24.0467 H   0  0  0  0  0  0  0  0  0  0  0  0
    8.6893   13.3717   25.0392 H   0  0  0  0  0  0  0  0  0  0  0  0
   10.0737   12.2801   25.1955 H   0  0  0  0  0  0  0  0  0  0  0  0
    9.8629    9.9543   25.6222 H   0  0  0  0  0  0  0  0  0  0  0  0
    8.2836    9.1589   25.7731 H   0  0  0  0  0  0  0  0  0  0  0  0
    7.7295   11.4909   26.3204 H   0  0  0  0  0  0  0  0  0  0  0  0
    7.7334   10.7398   22.1212 H   0  0  0  0  0  0  0  0  0  0  0  0
    8.4507   13.0053   22.8136 H   0  0  0  0  0  0  0  0  0  0  0  0
    8.1593    8.7425   23.5398 H   0  0  0  0  0  0  0  0  0  0  0  0
   11.0005   12.2067   23.3303 H   0  0  0  0  0  0  0  0  0  0  0  0
   10.3986   11.2139   22.1820 H   0  0  0  0  0  0  0  0  0  0  0  0
   10.4207    8.5755   23.6695 H   0  0  0  0  0  0  0  0  0  0  0  0
  1  4  1  6  0  0  0
  1  5  1  6  0  0  0
  2  4  1  0  0  0  0
  2  6  1  0  0  0  0
  3  4  1  0  0  0  0
  3  7  1  0  0  0  0
  5  6  1  0  0  0  0
  5  7  1  0  0  0  0
  6  8  1  1  0  0  0
  7  9  1  1  0  0  0
  1 10  1  0  0  0  0
  1 11  1  0  0  0  0
  2 12  1  0  0  0  0
  2 13  1  0  0  0  0
  3 14  1  0  0  0  0
  3 15  1  0  0  0  0
  4 16  1  0  0  0  0
  5 17  1  0  0  0  0
  6 18  1  0  0  0  0
  7 19  1  0  0  0  0
  8 20  1  0  0  0  0
  8 21  1  0  0  0  0
  9 22  1  0  0  0  0
M  END
> <id>
EN300-7430206

> <smiles>
N[C@@H]1C[C@@H]2C[C@H](O)[C@H]1C2 |&1:1,5,&2:3,7,r|

> <IUPAC Name>
(1RS,2RS&,4SR,6SR&)-6-aminobicyclo[2.2.1]heptan-2-ol

> <CAS>
1932590-16-3

> <URL>
https://www.enaminestore.com/catalog/EN300-7430206

> <ROCS_ShapeQuery>
x0812_0A_x1140_0A_x1097_0A_x0365_0A_x1097_0A_x0310_0A

> <ROCS_TanimotoCombo>
0.739 

> <ROCS_ShapeTanimoto>
0.187 

> <ROCS_ColorTanimoto>
0.553 

> <ROCS_RefTversky>
0.171 

> <ROCS_RefColorTversky>
0.608 

> <ROCS_RefTverskyCombo>
0.779 

> <ROCS_FitTversky>
1.916 

> <ROCS_FitColorTversky>
0.859 

> <ROCS_FitTverskyCombo>
2.775 

> <ROCS_ColorScore>
-9.049

> <ROCS_Overlap>
1731.063

> <ROCS_Rank>
46                  

$$$$
untitled-dbase-567339_1
  -OEChem-02092408543D

 21 22  0     0  0  0  0  0  0999 V2000
    8.8386   11.8125   25.1993 C   0  0  0  0  0  0  0  0  0  0  0  0
    7.7129   11.7523   23.4337 C   0  0  0  0  0  0  0  0  0  0  0  0
    9.2194    9.8400   23.7809 C   0  0  0  0  0  0  0  0  0  0  0  0
    9.2138   11.3835   23.7320 C   0  0  0  0  0  0  0  0  0  0  0  0
    7.5685   10.9668   24.7953 C   0  0  0  0  0  0  0  0  0  0  0  0
   10.3383   12.0433   22.9924 C   0  0  0  0  0  0  0  0  0  0  0  0
    6.3049   11.0278   25.5984 C   0  0  0  0  0  0  0  0  0  0  0  0
    8.0266    9.6087   24.5494 O   0  0  0  0  0  0  0  0  0  0  0  0
   10.1873   11.8175   21.5939 O   0  0  0  0  0  0  0  0  0  0  0  0
    5.8097   12.2851   25.6355 F   0  0  0  0  0  0  0  0  0  0  0  0
    5.3523   10.2261   25.0722 F   0  0  0  0  0  0  0  0  0  0  0  0
    6.5171   10.6319   26.8735 F   0  0  0  0  0  0  0  0  0  0  0  0
    9.4589   11.3947   25.9976 H   0  0  0  0  0  0  0  0  0  0  0  0
    8.6866   12.8824   25.3801 H   0  0  0  0  0  0  0  0  0  0  0  0
    7.4515   12.8162   23.4428 H   0  0  0  0  0  0  0  0  0  0  0  0
    7.2650   11.2767   22.5563 H   0  0  0  0  0  0  0  0  0  0  0  0
    9.1168    9.3851   22.7915 H   0  0  0  0  0  0  0  0  0  0  0  0
   10.0864    9.4365   24.3119 H   0  0  0  0  0  0  0  0  0  0  0  0
   11.3118   11.6364   23.3016 H   0  0  0  0  0  0  0  0  0  0  0  0
   10.3465   13.1290   23.1649 H   0  0  0  0  0  0  0  0  0  0  0  0
   10.9332   12.2603   21.1599 H   0  0  0  0  0  0  0  0  0  0  0  0
  1  4  1  0  0  0  0
  1  5  1  0  0  0  0
  2  4  1  0  0  0  0
  2  5  1  0  0  0  0
  3  4  1  0  0  0  0
  3  8  1  0  0  0  0
  4  6  1  1  0  0  0
  5  7  1  1  0  0  0
  5  8  1  0  0  0  0
  6  9  1  0  0  0  0
  7 10  1  0  0  0  0
  7 11  1  0  0  0  0
  7 12  1  0  0  0  0
  1 13  1  0  0  0  0
  1 14  1  0  0  0  0
  2 15  1  0  0  0  0
  2 16  1  0  0  0  0
  3 17  1  0  0  0  0
  3 18  1  0  0  0  0
  6 19  1  0  0  0  0
  6 20  1  0  0  0  0
  9 21  1  0  0  0  0
M  END
> <id>
EN300-37375433

> <smiles>
OC[C@]1(C[C@]2(C1)C(F)(F)F)CO2

> <IUPAC Name>
[1-(trifluoromethyl)-2-oxabicyclo[2.1.1]hexan-4-yl]methanol

> <CAS>
2648956-81-2

> <URL>
https://www.enaminestore.com/catalog/EN300-37375433

> <ROCS_ShapeQuery>
x0812_0A_x1140_0A_x1097_0A_x0365_0A_x1097_0A_x0310_0A

> <ROCS_TanimotoCombo>
0.739 

> <ROCS_ShapeTanimoto>
0.228 

> <ROCS_ColorTanimoto>
0.511 

> <ROCS_RefTversky>
0.205 

> <ROCS_RefColorTversky>
0.567 

> <ROCS_RefTverskyCombo>
0.772 

> <ROCS_FitTversky>
1.979 

> <ROCS_FitColorTversky>
0.839 

> <ROCS_FitTverskyCombo>
2.818 

> <ROCS_ColorScore>
-8.430

> <ROCS_Overlap>
2069.257

> <ROCS_Rank>
47                  

$$$$
untitled-dbase-487645_1
  -OEChem-02092408543D

 21 22  0     0  0  0  0  0  0999 V2000
    8.8363   11.8131   25.2003 C   0  0  0  0  0  0  0  0  0  0  0  0
    7.7118   11.7514   23.4338 C   0  0  0  0  0  0  0  0  0  0  0  0
    9.2200    9.8406   23.7825 C   0  0  0  0  0  0  0  0  0  0  0  0
    9.2129   11.3842   23.7332 C   0  0  0  0  0  0  0  0  0  0  0  0
    7.5672   10.9661   24.7955 C   0  0  0  0  0  0  0  0  0  0  0  0
   10.3370   12.0448   22.9938 C   0  0  0  0  0  0  0  0  0  0  0  0
    6.3028   11.0260   25.5974 C   0  0  0  0  0  0  0  0  0  0  0  0
    8.0269    9.6082   24.5503 O   0  0  0  0  0  0  0  0  0  0  0  0
   10.1868   11.8181   21.5954 O   0  0  0  0  0  0  0  0  0  0  0  0
    5.8062   12.2828   25.6336 F   0  0  0  0  0  0  0  0  0  0  0  0
    5.3515   10.2231   25.0704 F   0  0  0  0  0  0  0  0  0  0  0  0
    6.5141   10.6307   26.8727 F   0  0  0  0  0  0  0  0  0  0  0  0
    9.4564   11.3960   25.9990 H   0  0  0  0  0  0  0  0  0  0  0  0
    8.6833   12.8829   25.3807 H   0  0  0  0  0  0  0  0  0  0  0  0
    7.4496   12.8151   23.4425 H   0  0  0  0  0  0  0  0  0  0  0  0
    7.2650   11.2753   22.5562 H   0  0  0  0  0  0  0  0  0  0  0  0
    9.1184    9.3853   22.7932 H   0  0  0  0  0  0  0  0  0  0  0  0
   10.0869    9.4381   24.3142 H   0  0  0  0  0  0  0  0  0  0  0  0
   11.3108   11.6391   23.3035 H   0  0  0  0  0  0  0  0  0  0  0  0
   10.3440   13.1306   23.1658 H   0  0  0  0  0  0  0  0  0  0  0  0
   10.9324   12.2615   21.1614 H   0  0  0  0  0  0  0  0  0  0  0  0
  1  4  1  0  0  0  0
  1  5  1  0  0  0  0
  2  4  1  0  0  0  0
  2  5  1  0  0  0  0
  3  4  1  0  0  0  0
  3  8  1  0  0  0  0
  4  6  1  0  0  0  0
  5  7  1  0  0  0  0
  5  8  1  0  0  0  0
  6  9  1  0  0  0  0
  7 10  1  0  0  0  0
  7 11  1  0  0  0  0
  7 12  1  0  0  0  0
  1 13  1  0  0  0  0
  1 14  1  0  0  0  0
  2 15  1  0  0  0  0
  2 16  1  0  0  0  0
  3 17  1  0  0  0  0
  3 18  1  0  0  0  0
  6 19  1  0  0  0  0
  6 20  1  0  0  0  0
  9 21  1  0  0  0  0
M  END
> <id>
EN300-27719203

> <smiles>
OCC1(CC2(C1)C(F)(F)F)CO2

> <MDLNUMBER>
MFCD34168408

> <IUPAC Name>
[1-(trifluoromethyl)-2-oxabicyclo[2.1.1]hexan-4-yl]methanol

> <CAS>
2648956-81-2

> <Purity>
95

> <URL>
https://www.enaminestore.com/catalog/EN300-27719203

> <ROCS_ShapeQuery>
x0812_0A_x1140_0A_x1097_0A_x0365_0A_x1097_0A_x0310_0A

> <ROCS_TanimotoCombo>
0.739 

> <ROCS_ShapeTanimoto>
0.228 

> <ROCS_ColorTanimoto>
0.511 

> <ROCS_RefTversky>
0.205 

> <ROCS_RefColorTversky>
0.567 

> <ROCS_RefTverskyCombo>
0.772 

> <ROCS_FitTversky>
1.979 

> <ROCS_FitColorTversky>
0.839 

> <ROCS_FitTverskyCombo>
2.818 

> <ROCS_ColorScore>
-8.430

> <ROCS_Overlap>
2068.854

> <ROCS_Rank>
48                  

$$$$
untitled-dbase-479610_3
  -OEChem-02092408543D

 34 35  0     0  0  0  0  0  0999 V2000
    9.9223   12.0209   22.4070 C   0  0  0  0  0  0  0  0  0  0  0  0
    9.1875   11.7880   24.9767 C   0  0  0  0  0  0  0  0  0  0  0  0
    7.5695   11.7117   23.6582 C   0  0  0  0  0  0  0  0  0  0  0  0
    9.1024    9.7975   23.5418 C   0  0  0  0  0  0  0  0  0  0  0  0
    9.0845   11.3398   23.4747 C   0  0  0  0  0  0  0  0  0  0  0  0
    7.8552   10.9460   25.0062 C   0  0  0  0  0  0  0  0  0  0  0  0
   10.6575   14.4037   21.0364 C   0  0  0  0  0  0  0  0  0  0  0  0
   12.3005   14.7512   22.9043 C   0  0  0  0  0  0  0  0  0  0  0  0
   12.5013   12.7342   21.4212 C   0  0  0  0  0  0  0  0  0  0  0  0
    6.9076   11.0254   26.1642 C   0  0  0  0  0  0  0  0  0  0  0  0
   11.5353   13.7168   22.0816 C   0  0  0  0  0  0  0  0  0  0  0  0
    5.7718   10.1753   25.9541 N   0  0  0  0  0  0  0  0  0  0  0  0
    9.8931   11.7241   21.2203 O   0  0  0  0  0  0  0  0  0  0  0  0
    8.2107    9.5822   24.6489 O   0  0  0  0  0  0  0  0  0  0  0  0
   10.6903   12.9908   22.9800 O   0  0  0  0  0  0  0  0  0  0  0  0
   10.0235   11.3737   25.5482 H   0  0  0  0  0  0  0  0  0  0  0  0
    9.1043   12.8610   25.1824 H   0  0  0  0  0  0  0  0  0  0  0  0
    7.3243   12.7771   23.7322 H   0  0  0  0  0  0  0  0  0  0  0  0
    6.8665   11.2253   22.9757 H   0  0  0  0  0  0  0  0  0  0  0  0
    8.6941    9.3304   22.6411 H   0  0  0  0  0  0  0  0  0  0  0  0
   10.0919    9.3964   23.7790 H   0  0  0  0  0  0  0  0  0  0  0  0
   10.1065   13.6646   20.4438 H   0  0  0  0  0  0  0  0  0  0  0  0
    9.9365   15.0850   21.5000 H   0  0  0  0  0  0  0  0  0  0  0  0
   11.2677   14.9753   20.3279 H   0  0  0  0  0  0  0  0  0  0  0  0
   12.9316   14.2628   23.6556 H   0  0  0  0  0  0  0  0  0  0  0  0
   11.6100   15.3996   23.4557 H   0  0  0  0  0  0  0  0  0  0  0  0
   12.9366   15.3796   22.2726 H   0  0  0  0  0  0  0  0  0  0  0  0
   13.1310   12.2414   22.1707 H   0  0  0  0  0  0  0  0  0  0  0  0
   11.9681   11.9626   20.8564 H   0  0  0  0  0  0  0  0  0  0  0  0
   13.1827   13.2563   20.7397 H   0  0  0  0  0  0  0  0  0  0  0  0
    7.4359   10.7096   27.0730 H   0  0  0  0  0  0  0  0  0  0  0  0
    6.5701   12.0642   26.2716 H   0  0  0  0  0  0  0  0  0  0  0  0
    4.9347   10.7242   25.9590 H   0  0  0  0  0  0  0  0  0  0  0  0
    5.8579    9.7110   25.0715 H   0  0  0  0  0  0  0  0  0  0  0  0
  1  5  1  0  0  0  0
  1 13  2  0  0  0  0
  1 15  1  0  0  0  0
  2  5  1  0  0  0  0
  2  6  1  0  0  0  0
  3  5  1  0  0  0  0
  3  6  1  0  0  0  0
  4  5  1  0  0  0  0
  4 14  1  0  0  0  0
  6 10  1  0  0  0  0
  6 14  1  0  0  0  0
  7 11  1  0  0  0  0
  8 11  1  0  0  0  0
  9 11  1  0  0  0  0
 10 12  1  0  0  0  0
 11 15  1  0  0  0  0
  2 16  1  0  0  0  0
  2 17  1  0  0  0  0
  3 18  1  0  0  0  0
  3 19  1  0  0  0  0
  4 20  1  0  0  0  0
  4 21  1  0  0  0  0
  7 22  1  0  0  0  0
  7 23  1  0  0  0  0
  7 24  1  0  0  0  0
  8 25  1  0  0  0  0
  8 26  1  0  0  0  0
  8 27  1  0  0  0  0
  9 28  1  0  0  0  0
  9 29  1  0  0  0  0
  9 30  1  0  0  0  0
 10 31  1  0  0  0  0
 10 32  1  0  0  0  0
 12 33  1  0  0  0  0
 12 34  1  0  0  0  0
M  END
> <id>
EN300-27725449

> <smiles>
CC(C)(C)OC(=O)C1(CC2(CN)C1)CO2

> <IUPAC Name>
tert-butyl 1-(aminomethyl)-2-oxabicyclo[2.1.1]hexane-4-carboxylate

> <CAS>
2580189-75-7

> <URL>
https://www.enaminestore.com/catalog/EN300-27725449

> <ROCS_ShapeQuery>
x0812_0A_x1140_0A_x1097_0A_x0365_0A_x1097_0A_x0310_0A

> <ROCS_TanimotoCombo>
0.737 

> <ROCS_ShapeTanimoto>
0.243 

> <ROCS_ColorTanimoto>
0.494 

> <ROCS_RefTversky>
0.218 

> <ROCS_RefColorTversky>
0.595 

> <ROCS_RefTverskyCombo>
0.812 

> <ROCS_FitTversky>
1.905 

> <ROCS_FitColorTversky>
0.745 

> <ROCS_FitTverskyCombo>
2.650 

> <ROCS_ColorScore>
-8.900

> <ROCS_Overlap>
2204.663

> <ROCS_Rank>
49                  

$$$$
untitled-dbase-314813_0
  -OEChem-02092408543D

 27 28  0     1  0  0  0  0  0999 V2000
   10.2702   11.5112   22.3581 C   0  0  0  0  0  0  0  0  0  0  0  0
    9.3625   12.1719   24.6393 C   0  0  0  0  0  0  0  0  0  0  0  0
    8.0424   11.8660   25.3665 C   0  0  0  0  0  0  0  0  0  0  0  0
    7.8555   11.1982   23.0739 C   0  0  0  0  0  0  0  0  0  0  0  0
    9.4444    9.7647   24.0121 C   0  0  0  0  0  0  0  0  0  0  0  0
    9.3267   11.1846   23.4633 C   0  0  1  0  0  0  0  0  0  0  0  0
    7.4264   10.7765   24.4706 C   0  0  2  0  0  0  0  0  0  0  0  0
   12.5628   11.8145   21.8721 C   0  0  0  0  0  0  0  0  0  0  0  0
    5.9502   10.5413   24.6766 C   0  0  0  0  0  0  0  0  0  0  0  0
    9.9244   11.7375   21.2064 O   0  0  0  0  0  0  0  0  0  0  0  0
    8.1836    9.5605   24.6941 O   0  0  0  0  0  0  0  0  0  0  0  0
    5.7250   10.1331   26.0192 O   0  0  0  0  0  0  0  0  0  0  0  0
   11.5475   11.5141   22.8350 O   0  0  0  0  0  0  0  0  0  0  0  0
    9.3817   13.2127   24.2949 H   0  0  0  0  0  0  0  0  0  0  0  0
   10.2312   12.0199   25.2892 H   0  0  0  0  0  0  0  0  0  0  0  0
    8.2321   11.5047   26.3826 H   0  0  0  0  0  0  0  0  0  0  0  0
    7.4177   12.7646   25.4147 H   0  0  0  0  0  0  0  0  0  0  0  0
    7.4810   12.1809   22.7677 H   0  0  0  0  0  0  0  0  0  0  0  0
    7.6195   10.4581   22.3006 H   0  0  0  0  0  0  0  0  0  0  0  0
    9.5367    9.0097   23.2239 H   0  0  0  0  0  0  0  0  0  0  0  0
   10.2666    9.6360   24.7229 H   0  0  0  0  0  0  0  0  0  0  0  0
   13.5426   11.7907   22.3552 H   0  0  0  0  0  0  0  0  0  0  0  0
   12.3794   12.8034   21.4445 H   0  0  0  0  0  0  0  0  0  0  0  0
   12.5323   11.0649   21.0779 H   0  0  0  0  0  0  0  0  0  0  0  0
    5.5847    9.7550   24.0066 H   0  0  0  0  0  0  0  0  0  0  0  0
    5.3806   11.4587   24.4904 H   0  0  0  0  0  0  0  0  0  0  0  0
    4.7689    9.9922   26.1126 H   0  0  0  0  0  0  0  0  0  0  0  0
  1  6  1  0  0  0  0
  1 10  2  0  0  0  0
  1 13  1  0  0  0  0
  2  3  1  0  0  0  0
  2  6  1  0  0  0  0
  3  7  1  0  0  0  0
  4  6  1  0  0  0  0
  4  7  1  0  0  0  0
  5  6  1  0  0  0  0
  5 11  1  0  0  0  0
  7  9  1  0  0  0  0
  7 11  1  0  0  0  0
  8 13  1  0  0  0  0
  9 12  1  0  0  0  0
  2 14  1  0  0  0  0
  2 15  1  0  0  0  0
  3 16  1  0  0  0  0
  3 17  1  0  0  0  0
  4 18  1  0  0  0  0
  4 19  1  0  0  0  0
  5 20  1  0  0  0  0
  5 21  1  0  0  0  0
  8 22  1  0  0  0  0
  8 23  1  0  0  0  0
  8 24  1  0  0  0  0
  9 25  1  0  0  0  0
  9 26  1  0  0  0  0
 12 27  1  0  0  0  0
M  END
> <id>
EN300-7455638

> <smiles>
COC(=O)C1(CCC2(CO)C1)CO2

> <MDLNUMBER>
MFCD32199671

> <IUPAC Name>
methyl 1-(hydroxymethyl)-2-oxabicyclo[2.2.1]heptane-4-carboxylate

> <CAS>
2377031-02-0

> <Purity>
95

> <URL>
https://www.enaminestore.com/catalog/EN300-7455638

> <ROCS_ShapeQuery>
x0812_0A_x1140_0A_x1097_0A_x0365_0A_x1097_0A_x0310_0A

> <ROCS_TanimotoCombo>
0.737 

> <ROCS_ShapeTanimoto>
0.223 

> <ROCS_ColorTanimoto>
0.513 

> <ROCS_RefTversky>
0.202 

> <ROCS_RefColorTversky>
0.581 

> <ROCS_RefTverskyCombo>
0.783 

> <ROCS_FitTversky>
1.885 

> <ROCS_FitColorTversky>
0.815 

> <ROCS_FitTverskyCombo>
2.700 

> <ROCS_ColorScore>
-8.658

> <ROCS_Overlap>
2044.214

> <ROCS_Rank>
50                  

$$$$
untitled-dbase-492985_0
  -OEChem-02092408543D

 27 29  0     1  0  0  0  0  0999 V2000
    6.6621   10.5634   23.9376 C   0  0  0  0  0  0  0  0  0  0  0  0
    8.1413   10.8223   25.9529 C   0  0  0  0  0  0  0  0  0  0  0  0
    7.6143   12.8114   24.5177 C   0  0  0  0  0  0  0  0  0  0  0  0
    8.4485   11.5742   22.4956 C   0  0  0  0  0  0  0  0  0  0  0  0
    9.9291   11.8326   24.5115 C   0  0  0  0  0  0  0  0  0  0  0  0
    7.0554   11.4983   25.0960 C   0  0  0  0  0  0  0  0  0  0  0  0
    7.8938   10.2535   23.0686 C   0  0  1  0  0  0  0  0  0  0  0  0
    9.3776   10.5133   25.0901 C   0  0  2  0  0  0  0  0  0  0  0  0
    8.9596    9.5686   23.9458 C   0  0  0  0  0  0  0  0  0  0  0  0
    8.8516   12.5159   23.6470 C   0  0  0  0  0  0  0  0  0  0  0  0
   10.0846    9.2160   23.1477 O   0  0  0  0  0  0  0  0  0  0  0  0
    9.4950   14.0430   22.9787 Cl  0  0  0  0  0  0  0  0  0  0  0  0
    6.2401    9.6323   24.3352 H   0  0  0  0  0  0  0  0  0  0  0  0
    5.8805   11.0319   23.3270 H   0  0  0  0  0  0  0  0  0  0  0  0
    8.4208   11.4767   26.7877 H   0  0  0  0  0  0  0  0  0  0  0  0
    7.7494    9.8963   26.3913 H   0  0  0  0  0  0  0  0  0  0  0  0
    6.8370   13.3115   23.9253 H   0  0  0  0  0  0  0  0  0  0  0  0
    7.8746   13.4924   25.3384 H   0  0  0  0  0  0  0  0  0  0  0  0
    9.3085   11.3683   21.8458 H   0  0  0  0  0  0  0  0  0  0  0  0
    7.6848   12.0464   21.8637 H   0  0  0  0  0  0  0  0  0  0  0  0
   10.2354   12.4918   25.3344 H   0  0  0  0  0  0  0  0  0  0  0  0
   10.8306   11.6327   23.9185 H   0  0  0  0  0  0  0  0  0  0  0  0
    6.1761   11.7114   25.7141 H   0  0  0  0  0  0  0  0  0  0  0  0
    7.6160    9.5966   22.2362 H   0  0  0  0  0  0  0  0  0  0  0  0
   10.1570   10.0421   25.7001 H   0  0  0  0  0  0  0  0  0  0  0  0
    8.5533    8.6367   24.3576 H   0  0  0  0  0  0  0  0  0  0  0  0
    9.7605    8.6091   22.4636 H   0  0  0  0  0  0  0  0  0  0  0  0
  1  6  1  0  0  0  0
  1  7  1  0  0  0  0
  2  6  1  0  0  0  0
  2  8  1  0  0  0  0
  3  6  1  0  0  0  0
  3 10  1  0  0  0  0
  4  7  1  0  0  0  0
  4 10  1  0  0  0  0
  5  8  1  0  0  0  0
  5 10  1  0  0  0  0
  7  9  1  0  0  0  0
  8  9  1  0  0  0  0
  9 11  1  0  0  0  0
 10 12  1  0  0  0  0
  1 13  1  0  0  0  0
  1 14  1  0  0  0  0
  2 15  1  0  0  0  0
  2 16  1  0  0  0  0
  3 17  1  0  0  0  0
  3 18  1  0  0  0  0
  4 19  1  0  0  0  0
  4 20  1  0  0  0  0
  5 21  1  0  0  0  0
  5 22  1  0  0  0  0
  6 23  1  0  0  0  0
  7 24  1  0  0  0  0
  8 25  1  0  0  0  0
  9 26  1  0  0  0  0
 11 27  1  0  0  0  0
M  END
> <id>
EN300-7972236

> <smiles>
OC1C2CC3CC1CC(Cl)(C3)C2

> <IUPAC Name>
5-chloroadamantan-2-ol

> <CAS>
77510-30-6

> <Purity>
95

> <URL>
https://www.enaminestore.com/catalog/EN300-7972236

> <ROCS_ShapeQuery>
x0812_0A_x1140_0A_x1097_0A_x0365_0A_x1097_0A_x0310_0A

> <ROCS_TanimotoCombo>
0.737 

> <ROCS_ShapeTanimoto>
0.213 

> <ROCS_ColorTanimoto>
0.524 

> <ROCS_RefTversky>
0.193 

> <ROCS_RefColorTversky>
0.548 

> <ROCS_RefTverskyCombo>
0.742 

> <ROCS_FitTversky>
1.893 

> <ROCS_FitColorTversky>
0.922 

> <ROCS_FitTverskyCombo>
2.815 

> <ROCS_ColorScore>
-8.115

> <ROCS_Overlap>
1954.650

> <ROCS_Rank>
51                  

$$$$
untitled-dbase-515487_1
  -OEChem-02092408543D

 27 28  0     1  0  0  0  0  0999 V2000
    9.2943   10.0012   23.7562 C   0  0  0  0  0  0  0  0  0  0  0  0
    9.2925   12.2898   22.0876 C   0  0  0  0  0  0  0  0  0  0  0  0
    9.5735   10.5338   25.1433 C   0  0  0  0  0  0  0  0  0  0  0  0
    7.2336   10.5126   24.6405 C   0  0  0  0  0  0  0  0  0  0  0  0
    8.3323   12.6190   24.4082 C   0  0  0  0  0  0  0  0  0  0  0  0
    7.9461   10.5213   23.2835 C   0  0  1  0  0  0  0  0  0  0  0  0
    8.2937   11.3752   25.3295 C   0  0  2  0  0  0  0  0  0  0  0  0
    8.1114   12.0289   22.9874 C   0  0  2  0  0  0  0  0  0  0  0  0
   10.5840   14.0256   21.1374 C   0  0  0  0  0  0  0  0  0  0  0  0
    6.8732   12.6232   22.3108 C   0  0  0  0  0  0  0  0  0  0  0  0
   10.0472    9.2914   23.1080 O   0  0  0  0  0  0  0  0  0  0  0  0
    9.9578   11.4101   21.5579 O   0  0  0  0  0  0  0  0  0  0  0  0
    9.4871   13.6341   21.9690 O   0  0  0  0  0  0  0  0  0  0  0  0
    6.6829   12.0430   21.1176 F   0  0  0  0  0  0  0  0  0  0  0  0
    5.7922   12.4162   23.0756 F   0  0  0  0  0  0  0  0  0  0  0  0
    7.0387   13.9416   22.1347 F   0  0  0  0  0  0  0  0  0  0  0  0
    9.6178    9.7028   25.8521 H   0  0  0  0  0  0  0  0  0  0  0  0
   10.4842   11.1354   25.1664 H   0  0  0  0  0  0  0  0  0  0  0  0
    6.2440   10.9784   24.6212 H   0  0  0  0  0  0  0  0  0  0  0  0
    7.1521    9.5125   25.0813 H   0  0  0  0  0  0  0  0  0  0  0  0
    7.5175   13.3001   24.6822 H   0  0  0  0  0  0  0  0  0  0  0  0
    9.2742   13.1674   24.5152 H   0  0  0  0  0  0  0  0  0  0  0  0
    7.4907    9.9064   22.5068 H   0  0  0  0  0  0  0  0  0  0  0  0
    8.0892   11.6192   26.3741 H   0  0  0  0  0  0  0  0  0  0  0  0
   10.6509   15.1160   21.1108 H   0  0  0  0  0  0  0  0  0  0  0  0
   10.4348   13.6343   20.1279 H   0  0  0  0  0  0  0  0  0  0  0  0
   11.5082   13.6161   21.5519 H   0  0  0  0  0  0  0  0  0  0  0  0
  1  3  1  0  0  0  0
  1  6  1  0  0  0  0
  1 11  2  0  0  0  0
  2  8  1  1  0  0  0
  2 12  2  0  0  0  0
  2 13  1  0  0  0  0
  3  7  1  0  0  0  0
  4  6  1  6  0  0  0
  4  7  1  6  0  0  0
  5  7  1  0  0  0  0
  5  8  1  0  0  0  0
  6  8  1  0  0  0  0
  8 10  1  6  0  0  0
  9 13  1  0  0  0  0
 10 14  1  0  0  0  0
 10 15  1  0  0  0  0
 10 16  1  0  0  0  0
  3 17  1  0  0  0  0
  3 18  1  0  0  0  0
  4 19  1  0  0  0  0
  4 20  1  0  0  0  0
  5 21  1  0  0  0  0
  5 22  1  0  0  0  0
  6 23  1  0  0  0  0
  7 24  1  0  0  0  0
  9 25  1  0  0  0  0
  9 26  1  0  0  0  0
  9 27  1  0  0  0  0
M  END
> <id>
EN300-28318421

> <smiles>
COC(=O)[C@@]1(C[C@H]2C[C@@H]1C(=O)C2)C(F)(F)F |&1:4,6,8,r|

> <IUPAC Name>
rac-methyl (1R,2R,4S)-6-oxo-2-(trifluoromethyl)bicyclo[2.2.1]heptane-2-carboxylate

> <CAS>
2679950-64-0

> <Purity>
95

> <URL>
https://www.enaminestore.com/catalog/EN300-28318421

> <ROCS_ShapeQuery>
x0812_0A_x1140_0A_x1097_0A_x0365_0A_x1097_0A_x0310_0A

> <ROCS_TanimotoCombo>
0.736 

> <ROCS_ShapeTanimoto>
0.213 

> <ROCS_ColorTanimoto>
0.524 

> <ROCS_RefTversky>
0.197 

> <ROCS_RefColorTversky>
0.545 

> <ROCS_RefTverskyCombo>
0.742 

> <ROCS_FitTversky>
1.609 

> <ROCS_FitColorTversky>
0.931 

> <ROCS_FitTverskyCombo>
2.539 

> <ROCS_ColorScore>
-8.067

> <ROCS_Overlap>
1990.472

> <ROCS_Rank>
52                  

$$$$
untitled-dbase-321415_1
  -OEChem-02092408543D

 22 24  0     1  0  0  0  0  0999 V2000
    9.9447   12.3089   22.3996 C   0  0  0  0  0  0  0  0  0  0  0  0
    9.4769   12.0766   24.8924 C   0  0  0  0  0  0  0  0  0  0  0  0
    8.9223   12.3914   23.4870 C   0  0  2  0  0  0  0  0  0  0  0  0
    8.5089   10.9830   25.3724 C   0  0  2  0  0  0  0  0  0  0  0  0
    7.7930   11.3607   23.3603 C   0  0  1  0  0  0  0  0  0  0  0  0
    8.7584    9.6684   24.6816 C   0  0  1  0  0  0  0  0  0  0  0  0
    8.2747    9.9303   23.2864 C   0  0  2  0  0  0  0  0  0  0  0  0
   11.9850   13.2465   21.6633 C   0  0  0  0  0  0  0  0  0  0  0  0
    9.8795   11.5338   21.4551 O   0  0  0  0  0  0  0  0  0  0  0  0
    7.2877   11.4204   24.7230 O   0  0  0  0  0  0  0  0  0  0  0  0
    9.6400    9.6304   23.5666 O   0  0  0  0  0  0  0  0  0  0  0  0
   10.9334   13.2181   22.6336 O   0  0  0  0  0  0  0  0  0  0  0  0
   10.5237   11.7577   24.9077 H   0  0  0  0  0  0  0  0  0  0  0  0
    9.3768   12.9675   25.5234 H   0  0  0  0  0  0  0  0  0  0  0  0
    8.5115   13.4080   23.4845 H   0  0  0  0  0  0  0  0  0  0  0  0
    8.3902   10.9126   26.4558 H   0  0  0  0  0  0  0  0  0  0  0  0
    7.0151   11.6129   22.6355 H   0  0  0  0  0  0  0  0  0  0  0  0
    8.4267    8.7745   25.1844 H   0  0  0  0  0  0  0  0  0  0  0  0
    7.6148    9.2132   22.8253 H   0  0  0  0  0  0  0  0  0  0  0  0
   12.7203   14.0046   21.9438 H   0  0  0  0  0  0  0  0  0  0  0  0
   11.5678   13.4747   20.6792 H   0  0  0  0  0  0  0  0  0  0  0  0
   12.4680   12.2669   21.6338 H   0  0  0  0  0  0  0  0  0  0  0  0
  1  3  1  1  0  0  0
  1  9  2  0  0  0  0
  1 12  1  0  0  0  0
  2  3  1  0  0  0  0
  2  4  1  0  0  0  0
  3  5  1  0  0  0  0
  4  6  1  0  0  0  0
  4 10  1  6  0  0  0
  5  7  1  0  0  0  0
  5 10  1  6  0  0  0
  6  7  1  0  0  0  0
  6 11  1  1  0  0  0
  7 11  1  1  0  0  0
  8 12  1  0  0  0  0
  2 13  1  0  0  0  0
  2 14  1  0  0  0  0
  3 15  1  0  0  0  0
  4 16  1  0  0  0  0
  5 17  1  0  0  0  0
  6 18  1  0  0  0  0
  7 19  1  0  0  0  0
  8 20  1  0  0  0  0
  8 21  1  0  0  0  0
  8 22  1  0  0  0  0
M  END
> <id>
EN300-366804

> <smiles>
COC(=O)[C@@H]1C[C@H]2O[C@@H]1[C@H]3O[C@H]32 |&1:4,6,8,9,11,r|

> <IUPAC Name>
rac-methyl (1R,2S,4R,5S,6R)-3,8-dioxatricyclo[3.2.1.0,2,4]octane-6-carboxylate

> <CAS>
785807-06-9

> <Purity>
95

> <URL>
https://www.enaminestore.com/catalog/EN300-366804

> <MP>
75-76

> <ROCS_ShapeQuery>
x0812_0A_x1140_0A_x1097_0A_x0365_0A_x1097_0A_x0310_0A

> <ROCS_TanimotoCombo>
0.736 

> <ROCS_ShapeTanimoto>
0.221 

> <ROCS_ColorTanimoto>
0.515 

> <ROCS_RefTversky>
0.200 

> <ROCS_RefColorTversky>
0.786 

> <ROCS_RefTverskyCombo>
0.986 

> <ROCS_FitTversky>
1.906 

> <ROCS_FitColorTversky>
0.599 

> <ROCS_FitTverskyCombo>
2.505 

> <ROCS_ColorScore>
-12.107

> <ROCS_Overlap>
2024.758

> <ROCS_Rank>
53                  

$$$$
untitled-dbase-570591_3
  -OEChem-02092408543D

 27 28  0     0  0  0  0  0  0999 V2000
    9.8068   12.0881   22.3919 C   0  0  0  0  0  0  0  0  0  0  0  0
    9.1355   11.8152   24.9751 C   0  0  0  0  0  0  0  0  0  0  0  0
    7.5058   11.6086   23.6851 C   0  0  0  0  0  0  0  0  0  0  0  0
    9.1779    9.8156   23.5508 C   0  0  0  0  0  0  0  0  0  0  0  0
    9.0414   11.3517   23.4771 C   0  0  0  0  0  0  0  0  0  0  0  0
    7.8718   10.8746   25.0314 C   0  0  0  0  0  0  0  0  0  0  0  0
   11.9953   14.9925   22.7967 C   0  0  0  0  0  0  0  0  0  0  0  0
    6.9409   10.8888   26.2054 C   0  0  0  0  0  0  0  0  0  0  0  0
   11.2808   13.8994   22.0310 C   0  0  0  0  0  0  0  0  0  0  0  0
    9.7801   11.7830   21.2073 O   0  0  0  0  0  0  0  0  0  0  0  0
    8.3239    9.5396   24.6739 O   0  0  0  0  0  0  0  0  0  0  0  0
    5.6823   10.3404   25.8240 O   0  0  0  0  0  0  0  0  0  0  0  0
   10.5086   13.1168   22.9471 O   0  0  0  0  0  0  0  0  0  0  0  0
   10.0105   11.4694   25.5334 H   0  0  0  0  0  0  0  0  0  0  0  0
    8.9754   12.8802   25.1769 H   0  0  0  0  0  0  0  0  0  0  0  0
    7.1820   12.6530   23.7580 H   0  0  0  0  0  0  0  0  0  0  0  0
    6.8305   11.0663   23.0168 H   0  0  0  0  0  0  0  0  0  0  0  0
    8.7907    9.3139   22.6595 H   0  0  0  0  0  0  0  0  0  0  0  0
   10.1988    9.4918   23.7721 H   0  0  0  0  0  0  0  0  0  0  0  0
   11.2793   15.6489   23.2992 H   0  0  0  0  0  0  0  0  0  0  0  0
   12.6673   14.5625   23.5466 H   0  0  0  0  0  0  0  0  0  0  0  0
   12.6139   15.5945   22.1229 H   0  0  0  0  0  0  0  0  0  0  0  0
    6.7716   11.9129   26.5683 H   0  0  0  0  0  0  0  0  0  0  0  0
    7.3374   10.2886   27.0370 H   0  0  0  0  0  0  0  0  0  0  0  0
   12.0024   13.2466   21.5309 H   0  0  0  0  0  0  0  0  0  0  0  0
   10.6091   14.3308   21.2828 H   0  0  0  0  0  0  0  0  0  0  0  0
    5.1173   10.3707   26.6116 H   0  0  0  0  0  0  0  0  0  0  0  0
  1  5  1  1  0  0  0
  1 10  2  0  0  0  0
  1 13  1  0  0  0  0
  2  5  1  0  0  0  0
  2  6  1  0  0  0  0
  3  5  1  0  0  0  0
  3  6  1  0  0  0  0
  4  5  1  0  0  0  0
  4 11  1  0  0  0  0
  6  8  1  1  0  0  0
  6 11  1  0  0  0  0
  7  9  1  0  0  0  0
  8 12  1  0  0  0  0
  9 13  1  0  0  0  0
  2 14  1  0  0  0  0
  2 15  1  0  0  0  0
  3 16  1  0  0  0  0
  3 17  1  0  0  0  0
  4 18  1  0  0  0  0
  4 19  1  0  0  0  0
  7 20  1  0  0  0  0
  7 21  1  0  0  0  0
  7 22  1  0  0  0  0
  8 23  1  0  0  0  0
  8 24  1  0  0  0  0
  9 25  1  0  0  0  0
  9 26  1  0  0  0  0
 12 27  1  0  0  0  0
M  END
> <id>
EN300-37375226

> <smiles>
CCOC(=O)[C@]1(C[C@@]2(CO)C1)CO2

> <IUPAC Name>
ethyl (1r,4r)-1-(hydroxymethyl)-2-oxabicyclo[2.1.1]hexane-4-carboxylate

> <CAS>
2241139-97-7

> <URL>
https://www.enaminestore.com/catalog/EN300-37375226

> <ROCS_ShapeQuery>
x0812_0A_x1140_0A_x1097_0A_x0365_0A_x1097_0A_x0310_0A

> <ROCS_TanimotoCombo>
0.736 

> <ROCS_ShapeTanimoto>
0.232 

> <ROCS_ColorTanimoto>
0.504 

> <ROCS_RefTversky>
0.208 

> <ROCS_RefColorTversky>
0.582 

> <ROCS_RefTverskyCombo>
0.790 

> <ROCS_FitTversky>
1.968 

> <ROCS_FitColorTversky>
0.790 

> <ROCS_FitTverskyCombo>
2.758 

> <ROCS_ColorScore>
-8.686

> <ROCS_Overlap>
2105.923

> <ROCS_Rank>
54                  

$$$$
untitled-dbase-254063_3
  -OEChem-02092408543D

 27 28  0     0  0  0  0  0  0999 V2000
    9.8067   12.0882   22.3918 C   0  0  0  0  0  0  0  0  0  0  0  0
    9.1356   11.8151   24.9750 C   0  0  0  0  0  0  0  0  0  0  0  0
    7.5059   11.6085   23.6852 C   0  0  0  0  0  0  0  0  0  0  0  0
    9.1777    9.8156   23.5508 C   0  0  0  0  0  0  0  0  0  0  0  0
    9.0414   11.3517   23.4771 C   0  0  0  0  0  0  0  0  0  0  0  0
    7.8718   10.8746   25.0315 C   0  0  0  0  0  0  0  0  0  0  0  0
   11.9947   14.9930   22.7965 C   0  0  0  0  0  0  0  0  0  0  0  0
    6.9408   10.8886   26.2054 C   0  0  0  0  0  0  0  0  0  0  0  0
   11.2804   13.8998   22.0308 C   0  0  0  0  0  0  0  0  0  0  0  0
    9.7800   11.7831   21.2072 O   0  0  0  0  0  0  0  0  0  0  0  0
    8.3239    9.5397   24.6742 O   0  0  0  0  0  0  0  0  0  0  0  0
    5.6823   10.3402   25.8238 O   0  0  0  0  0  0  0  0  0  0  0  0
   10.5084   13.1170   22.9470 O   0  0  0  0  0  0  0  0  0  0  0  0
   10.0103   11.4689   25.5337 H   0  0  0  0  0  0  0  0  0  0  0  0
    8.9746   12.8800   25.1773 H   0  0  0  0  0  0  0  0  0  0  0  0
    7.1817   12.6526   23.7586 H   0  0  0  0  0  0  0  0  0  0  0  0
    6.8304   11.0662   23.0172 H   0  0  0  0  0  0  0  0  0  0  0  0
    8.7908    9.3136   22.6594 H   0  0  0  0  0  0  0  0  0  0  0  0
   10.1987    9.4922   23.7726 H   0  0  0  0  0  0  0  0  0  0  0  0
   11.2787   15.6492   23.2990 H   0  0  0  0  0  0  0  0  0  0  0  0
   12.6669   14.5631   23.5464 H   0  0  0  0  0  0  0  0  0  0  0  0
   12.6132   15.5951   22.1226 H   0  0  0  0  0  0  0  0  0  0  0  0
    6.7715   11.9126   26.5684 H   0  0  0  0  0  0  0  0  0  0  0  0
    7.3373   10.2882   27.0369 H   0  0  0  0  0  0  0  0  0  0  0  0
   12.0021   13.2471   21.5307 H   0  0  0  0  0  0  0  0  0  0  0  0
   10.6086   14.3310   21.2826 H   0  0  0  0  0  0  0  0  0  0  0  0
    5.1172   10.3704   26.6114 H   0  0  0  0  0  0  0  0  0  0  0  0
  1  5  1  0  0  0  0
  1 10  2  0  0  0  0
  1 13  1  0  0  0  0
  2  5  1  0  0  0  0
  2  6  1  0  0  0  0
  3  5  1  0  0  0  0
  3  6  1  0  0  0  0
  4  5  1  0  0  0  0
  4 11  1  0  0  0  0
  6  8  1  0  0  0  0
  6 11  1  0  0  0  0
  7  9  1  0  0  0  0
  8 12  1  0  0  0  0
  9 13  1  0  0  0  0
  2 14  1  0  0  0  0
  2 15  1  0  0  0  0
  3 16  1  0  0  0  0
  3 17  1  0  0  0  0
  4 18  1  0  0  0  0
  4 19  1  0  0  0  0
  7 20  1  0  0  0  0
  7 21  1  0  0  0  0
  7 22  1  0  0  0  0
  8 23  1  0  0  0  0
  8 24  1  0  0  0  0
  9 25  1  0  0  0  0
  9 26  1  0  0  0  0
 12 27  1  0  0  0  0
M  END
> <id>
EN300-2007890

> <smiles>
CCOC(=O)C1(CC2(CO)C1)CO2

> <MDLNUMBER>
MFCD31666936

> <IUPAC Name>
ethyl 1-(hydroxymethyl)-2-oxabicyclo[2.1.1]hexane-4-carboxylate

> <CAS>
2241139-97-7

> <Purity>
95

> <URL>
https://www.enaminestore.com/catalog/EN300-2007890

> <ROCS_ShapeQuery>
x0812_0A_x1140_0A_x1097_0A_x0365_0A_x1097_0A_x0310_0A

> <ROCS_TanimotoCombo>
0.736 

> <ROCS_ShapeTanimoto>
0.232 

> <ROCS_ColorTanimoto>
0.504 

> <ROCS_RefTversky>
0.208 

> <ROCS_RefColorTversky>
0.582 

> <ROCS_RefTverskyCombo>
0.790 

> <ROCS_FitTversky>
1.968 

> <ROCS_FitColorTversky>
0.790 

> <ROCS_FitTverskyCombo>
2.758 

> <ROCS_ColorScore>
-8.685

> <ROCS_Overlap>
2105.881

> <ROCS_Rank>
55                  

$$$$
untitled-dbase-340093_2
  -OEChem-02092408543D

 41 43  0     1  0  0  0  0  0999 V2000
    3.3024   10.6005   28.0085 C   0  0  0  0  0  0  0  0  0  0  0  0
    4.3508   10.0401   27.3977 C   0  0  0  0  0  0  0  0  0  0  0  0
    5.2034   10.8409   26.4791 C   0  0  0  0  0  0  0  0  0  0  0  0
    8.2628   12.9202   23.4585 C   0  0  0  0  0  0  0  0  0  0  0  0
    6.4876   11.1675   23.7623 C   0  0  0  0  0  0  0  0  0  0  0  0
    7.9603   11.8102   25.6931 C   0  0  0  0  0  0  0  0  0  0  0  0
    8.5214   10.6686   22.3765 C   0  0  0  0  0  0  0  0  0  0  0  0
    9.9918   11.3077   24.3053 C   0  0  0  0  0  0  0  0  0  0  0  0
    8.2185    9.5613   24.6094 C   0  0  0  0  0  0  0  0  0  0  0  0
    7.5053   11.7647   22.7631 C   0  0  2  0  0  0  0  0  0  0  0  0
    8.9996   12.4151   24.7212 C   0  0  1  0  0  0  0  0  0  0  0  0
    7.2025   10.6427   25.0266 C   0  0  0  0  0  0  0  0  0  0  0  0
    9.2458   10.1473   23.6282 C   0  0  0  0  0  0  0  0  0  0  0  0
    6.7828   12.2805   21.5151 C   0  0  0  0  0  0  0  0  0  0  0  0
    9.7473   13.5692   25.3956 C   0  0  0  0  0  0  0  0  0  0  0  0
    6.2339   10.0871   25.9468 N   0  0  0  0  0  0  0  0  0  0  0  0
    4.9909   12.0266   26.2466 O   0  0  0  0  0  0  0  0  0  0  0  0
   10.1704    9.1410   23.2384 O   0  0  0  0  0  0  0  0  0  0  0  0
    2.6844   10.0096   28.6764 H   0  0  0  0  0  0  0  0  0  0  0  0
    3.0318   11.6412   27.8679 H   0  0  0  0  0  0  0  0  0  0  0  0
    4.5874    8.9951   27.5662 H   0  0  0  0  0  0  0  0  0  0  0  0
    8.9835   13.3668   22.7601 H   0  0  0  0  0  0  0  0  0  0  0  0
    7.5585   13.7178   23.7312 H   0  0  0  0  0  0  0  0  0  0  0  0
    5.7493   11.9320   24.0406 H   0  0  0  0  0  0  0  0  0  0  0  0
    5.9307   10.3517   23.2813 H   0  0  0  0  0  0  0  0  0  0  0  0
    8.4646   11.4576   26.6032 H   0  0  0  0  0  0  0  0  0  0  0  0
    7.2510   12.5881   26.0073 H   0  0  0  0  0  0  0  0  0  0  0  0
    8.0192    9.8369   21.8637 H   0  0  0  0  0  0  0  0  0  0  0  0
    9.2548   11.0552   21.6558 H   0  0  0  0  0  0  0  0  0  0  0  0
   10.7556   11.7063   23.6239 H   0  0  0  0  0  0  0  0  0  0  0  0
   10.5453   10.9365   25.1785 H   0  0  0  0  0  0  0  0  0  0  0  0
    8.7353    9.1537   25.4890 H   0  0  0  0  0  0  0  0  0  0  0  0
    7.7101    8.7066   24.1425 H   0  0  0  0  0  0  0  0  0  0  0  0
    6.2541   11.4607   21.0346 H   0  0  0  0  0  0  0  0  0  0  0  0
    7.5076   12.6977   20.8203 H   0  0  0  0  0  0  0  0  0  0  0  0
    6.0703   13.0515   21.7985 H   0  0  0  0  0  0  0  0  0  0  0  0
   10.2611   13.2030   26.2812 H   0  0  0  0  0  0  0  0  0  0  0  0
    9.0401   14.3430   25.6840 H   0  0  0  0  0  0  0  0  0  0  0  0
   10.4751   13.9861   24.7036 H   0  0  0  0  0  0  0  0  0  0  0  0
    6.3523    9.1169   26.2206 H   0  0  0  0  0  0  0  0  0  0  0  0
   10.6089    8.8343   24.0485 H   0  0  0  0  0  0  0  0  0  0  0  0
  1  2  2  0  0  0  0
  2  3  1  0  0  0  0
  3 16  1  0  0  0  0
  3 17  2  0  0  0  0
  4 10  1  0  0  0  0
  4 11  1  0  0  0  0
  5 10  1  0  0  0  0
  5 12  1  0  0  0  0
  6 11  1  0  0  0  0
  6 12  1  0  0  0  0
  7 10  1  0  0  0  0
  7 13  1  0  0  0  0
  8 11  1  0  0  0  0
  8 13  1  0  0  0  0
  9 12  1  0  0  0  0
  9 13  1  0  0  0  0
 10 14  1  0  0  0  0
 11 15  1  0  0  0  0
 12 16  1  0  0  0  0
 13 18  1  0  0  0  0
  1 19  1  0  0  0  0
  1 20  1  0  0  0  0
  2 21  1  0  0  0  0
  4 22  1  0  0  0  0
  4 23  1  0  0  0  0
  5 24  1  0  0  0  0
  5 25  1  0  0  0  0
  6 26  1  0  0  0  0
  6 27  1  0  0  0  0
  7 28  1  0  0  0  0
  7 29  1  0  0  0  0
  8 30  1  0  0  0  0
  8 31  1  0  0  0  0
  9 32  1  0  0  0  0
  9 33  1  0  0  0  0
 14 34  1  0  0  0  0
 14 35  1  0  0  0  0
 14 36  1  0  0  0  0
 15 37  1  0  0  0  0
 15 38  1  0  0  0  0
 15 39  1  0  0  0  0
 16 40  1  0  0  0  0
 18 41  1  0  0  0  0
M  END
> <id>
EN300-26573850

> <smiles>
CC1(CC2(C)CC3(O)C1)CC(C2)(C3)NC(=O)C=C

> <IUPAC Name>
N-(3-hydroxy-5,7-dimethyladamantan-1-yl)prop-2-enamide

> <CAS>
2361642-69-3

> <URL>
https://www.enaminestore.com/catalog/EN300-26573850

> <ROCS_ShapeQuery>
x0812_0A_x1140_0A_x1097_0A_x0365_0A_x1097_0A_x0310_0A

> <ROCS_TanimotoCombo>
0.736 

> <ROCS_ShapeTanimoto>
0.247 

> <ROCS_ColorTanimoto>
0.489 

> <ROCS_RefTversky>
0.223 

> <ROCS_RefColorTversky>
0.584 

> <ROCS_RefTverskyCombo>
0.807 

> <ROCS_FitTversky>
1.743 

> <ROCS_FitColorTversky>
0.750 

> <ROCS_FitTverskyCombo>
2.493 

> <ROCS_ColorScore>
-8.733

> <ROCS_Overlap>
2261.396

> <ROCS_Rank>
56                  

$$$$
untitled-dbase-81700_0
  -OEChem-02092408543D

 30 31  0     1  0  0  0  0  0999 V2000
    9.0591   10.6623   25.4908 C   0  0  0  0  0  0  0  0  0  0  0  0
    8.8321   12.4722   23.7700 C   0  0  0  0  0  0  0  0  0  0  0  0
    8.2244   11.8946   25.0555 C   0  0  1  0  0  0  0  0  0  0  0  0
    8.1473    9.8684   24.4958 C   0  0  1  0  0  0  0  0  0  0  0  0
    8.8881   11.4338   22.6281 C   0  0  2  0  0  0  0  0  0  0  0  0
    7.0027   10.8986   24.9079 C   0  0  0  0  0  0  0  0  0  0  0  0
    8.7613    9.9538   23.0840 C   0  0  2  0  0  0  0  0  0  0  0  0
    5.9120   11.2803   23.9070 C   0  0  0  0  0  0  0  0  0  0  0  0
    6.2883   10.5381   26.2299 C   0  0  0  0  0  0  0  0  0  0  0  0
    7.9455    9.1207   22.0947 C   0  0  0  0  0  0  0  0  0  0  0  0
   10.0911   11.6419   21.8880 O   0  0  0  0  0  0  0  0  0  0  0  0
   10.0576    9.3466   23.1613 O   0  0  0  0  0  0  0  0  0  0  0  0
   10.1325   10.7044   25.2785 H   0  0  0  0  0  0  0  0  0  0  0  0
    8.9686   10.3778   26.5442 H   0  0  0  0  0  0  0  0  0  0  0  0
    8.2383   13.3335   23.4392 H   0  0  0  0  0  0  0  0  0  0  0  0
    9.8337   12.8676   23.9822 H   0  0  0  0  0  0  0  0  0  0  0  0
    8.1094   12.6604   25.8300 H   0  0  0  0  0  0  0  0  0  0  0  0
    7.9622    8.8327   24.8061 H   0  0  0  0  0  0  0  0  0  0  0  0
    8.0758   11.6742   21.9337 H   0  0  0  0  0  0  0  0  0  0  0  0
    5.1352   10.5181   23.9013 H   0  0  0  0  0  0  0  0  0  0  0  0
    6.3404   11.3619   22.9100 H   0  0  0  0  0  0  0  0  0  0  0  0
    5.4736   12.2360   24.1877 H   0  0  0  0  0  0  0  0  0  0  0  0
    5.4749    9.8565   26.0149 H   0  0  0  0  0  0  0  0  0  0  0  0
    5.9031   11.4447   26.6793 H   0  0  0  0  0  0  0  0  0  0  0  0
    7.0000   10.0673   26.8965 H   0  0  0  0  0  0  0  0  0  0  0  0
    8.3889    9.1895   21.1034 H   0  0  0  0  0  0  0  0  0  0  0  0
    6.9237    9.4926   22.0565 H   0  0  0  0  0  0  0  0  0  0  0  0
    7.9363    8.0796   22.4115 H   0  0  0  0  0  0  0  0  0  0  0  0
   10.0472   12.5464   21.5429 H   0  0  0  0  0  0  0  0  0  0  0  0
    9.9091    8.4333   23.4437 H   0  0  0  0  0  0  0  0  0  0  0  0
  1  3  1  1  0  0  0
  1  4  1  1  0  0  0
  2  3  1  0  0  0  0
  2  5  1  0  0  0  0
  3  6  1  0  0  0  0
  4  6  1  0  0  0  0
  4  7  1  0  0  0  0
  5  7  1  0  0  0  0
  5 11  1  1  0  0  0
  6  8  1  0  0  0  0
  6  9  1  0  0  0  0
  7 10  1  0  0  0  0
  7 12  1  1  0  0  0
  1 13  1  0  0  0  0
  1 14  1  0  0  0  0
  2 15  1  0  0  0  0
  2 16  1  0  0  0  0
  3 17  1  0  0  0  0
  4 18  1  0  0  0  0
  5 19  1  0  0  0  0
  8 20  1  0  0  0  0
  8 21  1  0  0  0  0
  8 22  1  0  0  0  0
  9 23  1  0  0  0  0
  9 24  1  0  0  0  0
  9 25  1  0  0  0  0
 10 26  1  0  0  0  0
 10 27  1  0  0  0  0
 10 28  1  0  0  0  0
 11 29  1  0  0  0  0
 12 30  1  0  0  0  0
M  END
> <id>
EN300-303828

> <smiles>
CC1(C)[C@H]2C[C@@H]1[C@](C)(O)[C@H](O)C2

> <MDLNUMBER>
MFCD00276725

> <IUPAC Name>
(1S,2S,3R,5S)-2,6,6-trimethylbicyclo[3.1.1]heptane-2,3-diol

> <CAS>
18680-27-8

> <Purity>
95

> <URL>
https://www.enaminestore.com/catalog/EN300-303828

> <MP>
52-60

> <ROCS_ShapeQuery>
x0812_0A_x1140_0A_x1097_0A_x0365_0A_x1097_0A_x0310_0A

> <ROCS_TanimotoCombo>
0.736 

> <ROCS_ShapeTanimoto>
0.215 

> <ROCS_ColorTanimoto>
0.521 

> <ROCS_RefTversky>
0.195 

> <ROCS_RefColorTversky>
0.601 

> <ROCS_RefTverskyCombo>
0.796 

> <ROCS_FitTversky>
1.929 

> <ROCS_FitColorTversky>
0.797 

> <ROCS_FitTverskyCombo>
2.725 

> <ROCS_ColorScore>
-8.975

> <ROCS_Overlap>
1967.041

> <ROCS_Rank>
57                  

$$$$
untitled-dbase-401097_0
  -OEChem-02092408543D

 31 32  0     1  0  0  0  0  0999 V2000
   10.2688   11.5104   22.3538 C   0  0  0  0  0  0  0  0  0  0  0  0
    9.3641   12.1723   24.6358 C   0  0  0  0  0  0  0  0  0  0  0  0
    8.0452   11.8661   25.3653 C   0  0  0  0  0  0  0  0  0  0  0  0
    7.8553   11.1965   23.0735 C   0  0  0  0  0  0  0  0  0  0  0  0
    9.4465    9.7647   24.0103 C   0  0  0  0  0  0  0  0  0  0  0  0
    9.3271   11.1841   23.4607 C   0  0  1  0  0  0  0  0  0  0  0  0
    7.4286   10.7756   24.4712 C   0  0  2  0  0  0  0  0  0  0  0  0
   13.9130   11.7802   22.5430 C   0  0  0  0  0  0  0  0  0  0  0  0
    5.9528   10.5396   24.6796 C   0  0  0  0  0  0  0  0  0  0  0  0
   12.5604   11.8149   21.8642 C   0  0  0  0  0  0  0  0  0  0  0  0
    5.6966   10.1325   26.0267 N   0  0  0  0  0  0  0  0  0  0  0  0
    9.9211   11.7357   21.2025 O   0  0  0  0  0  0  0  0  0  0  0  0
    8.1869    9.5602   24.6944 O   0  0  0  0  0  0  0  0  0  0  0  0
   11.5468   11.5145   22.8288 O   0  0  0  0  0  0  0  0  0  0  0  0
    9.3821   13.2128   24.2907 H   0  0  0  0  0  0  0  0  0  0  0  0
   10.2338   12.0213   25.2846 H   0  0  0  0  0  0  0  0  0  0  0  0
    8.2367   11.5056   26.3814 H   0  0  0  0  0  0  0  0  0  0  0  0
    7.4201   12.7644   25.4138 H   0  0  0  0  0  0  0  0  0  0  0  0
    7.4797   12.1787   22.7671 H   0  0  0  0  0  0  0  0  0  0  0  0
    7.6186   10.4557   22.3011 H   0  0  0  0  0  0  0  0  0  0  0  0
    9.5382    9.0091   23.2226 H   0  0  0  0  0  0  0  0  0  0  0  0
   10.2699    9.6370   24.7200 H   0  0  0  0  0  0  0  0  0  0  0  0
   13.9655   12.5203   23.3463 H   0  0  0  0  0  0  0  0  0  0  0  0
   14.1088   10.7881   22.9630 H   0  0  0  0  0  0  0  0  0  0  0  0
   14.7118   11.9839   21.8222 H   0  0  0  0  0  0  0  0  0  0  0  0
    5.4249   11.4742   24.4672 H   0  0  0  0  0  0  0  0  0  0  0  0
    5.6318    9.7557   23.9870 H   0  0  0  0  0  0  0  0  0  0  0  0
   12.5145   11.0723   21.0619 H   0  0  0  0  0  0  0  0  0  0  0  0
   12.3660   12.8069   21.4459 H   0  0  0  0  0  0  0  0  0  0  0  0
    5.2582    9.2312   26.0326 H   0  0  0  0  0  0  0  0  0  0  0  0
    6.5583   10.0812   26.5361 H   0  0  0  0  0  0  0  0  0  0  0  0
  1  6  1  0  0  0  0
  1 12  2  0  0  0  0
  1 14  1  0  0  0  0
  2  3  1  0  0  0  0
  2  6  1  0  0  0  0
  3  7  1  0  0  0  0
  4  6  1  0  0  0  0
  4  7  1  0  0  0  0
  5  6  1  0  0  0  0
  5 13  1  0  0  0  0
  7  9  1  0  0  0  0
  7 13  1  0  0  0  0
  8 10  1  0  0  0  0
  9 11  1  0  0  0  0
 10 14  1  0  0  0  0
  2 15  1  0  0  0  0
  2 16  1  0  0  0  0
  3 17  1  0  0  0  0
  3 18  1  0  0  0  0
  4 19  1  0  0  0  0
  4 20  1  0  0  0  0
  5 21  1  0  0  0  0
  5 22  1  0  0  0  0
  8 23  1  0  0  0  0
  8 24  1  0  0  0  0
  8 25  1  0  0  0  0
  9 26  1  0  0  0  0
  9 27  1  0  0  0  0
 10 28  1  0  0  0  0
 10 29  1  0  0  0  0
 11 30  1  0  0  0  0
 11 31  1  0  0  0  0
M  END
> <id>
EN300-6747702

> <smiles>
CCOC(=O)C1(CCC2(CN)C1)CO2

> <IUPAC Name>
ethyl 1-(aminomethyl)-2-oxabicyclo[2.2.1]heptane-4-carboxylate

> <CAS>
2287330-66-7

> <URL>
https://www.enaminestore.com/catalog/EN300-6747702

> <ROCS_ShapeQuery>
x0812_0A_x1140_0A_x1097_0A_x0365_0A_x1097_0A_x0310_0A

> <ROCS_TanimotoCombo>
0.734 

> <ROCS_ShapeTanimoto>
0.223 

> <ROCS_ColorTanimoto>
0.511 

> <ROCS_RefTversky>
0.203 

> <ROCS_RefColorTversky>
0.579 

> <ROCS_RefTverskyCombo>
0.782 

> <ROCS_FitTversky>
1.828 

> <ROCS_FitColorTversky>
0.813 

> <ROCS_FitTverskyCombo>
2.641 

> <ROCS_ColorScore>
-8.632

> <ROCS_Overlap>
2050.004

> <ROCS_Rank>
58                  

$$$$
untitled-dbase-299123_0
  -OEChem-02092408543D

 28 29  0     1  0  0  0  0  0999 V2000
   10.2677   11.5101   22.3535 C   0  0  0  0  0  0  0  0  0  0  0  0
    9.3667   12.1701   24.6375 C   0  0  0  0  0  0  0  0  0  0  0  0
    8.0482   11.8651   25.3680 C   0  0  0  0  0  0  0  0  0  0  0  0
    7.8546   11.1990   23.0755 C   0  0  0  0  0  0  0  0  0  0  0  0
    9.4446    9.7633   24.0085 C   0  0  0  0  0  0  0  0  0  0  0  0
    9.3268   11.1837   23.4610 C   0  0  1  0  0  0  0  0  0  0  0  0
    7.4288   10.7768   24.4731 C   0  0  2  0  0  0  0  0  0  0  0  0
   12.5592   11.8115   21.8616 C   0  0  0  0  0  0  0  0  0  0  0  0
    5.9529   10.5429   24.6829 C   0  0  0  0  0  0  0  0  0  0  0  0
    5.6976   10.1342   26.0296 N   0  0  0  0  0  0  0  0  0  0  0  0
    9.9191   11.7375   21.2029 O   0  0  0  0  0  0  0  0  0  0  0  0
    8.1854    9.5599   24.6937 O   0  0  0  0  0  0  0  0  0  0  0  0
   11.5463   11.5114   22.8270 O   0  0  0  0  0  0  0  0  0  0  0  0
    9.3860   13.2111   24.2938 H   0  0  0  0  0  0  0  0  0  0  0  0
   10.2370   12.0169   25.2850 H   0  0  0  0  0  0  0  0  0  0  0  0
    8.2403   11.5028   26.3834 H   0  0  0  0  0  0  0  0  0  0  0  0
    7.4246   12.7642   25.4185 H   0  0  0  0  0  0  0  0  0  0  0  0
    7.4802   12.1822   22.7709 H   0  0  0  0  0  0  0  0  0  0  0  0
    7.6159   10.4597   22.3023 H   0  0  0  0  0  0  0  0  0  0  0  0
    9.5341    9.0087   23.2195 H   0  0  0  0  0  0  0  0  0  0  0  0
   10.2685    9.6333   24.7170 H   0  0  0  0  0  0  0  0  0  0  0  0
   13.5404   11.7865   22.3421 H   0  0  0  0  0  0  0  0  0  0  0  0
   12.3757   12.8009   21.4352 H   0  0  0  0  0  0  0  0  0  0  0  0
   12.5260   11.0625   21.0669 H   0  0  0  0  0  0  0  0  0  0  0  0
    5.4262   11.4786   24.4723 H   0  0  0  0  0  0  0  0  0  0  0  0
    5.6298    9.7604   23.9896 H   0  0  0  0  0  0  0  0  0  0  0  0
    5.2577    9.2336   26.0348 H   0  0  0  0  0  0  0  0  0  0  0  0
    6.5597   10.0809   26.5380 H   0  0  0  0  0  0  0  0  0  0  0  0
  1  6  1  0  0  0  0
  1 11  2  0  0  0  0
  1 13  1  0  0  0  0
  2  3  1  0  0  0  0
  2  6  1  0  0  0  0
  3  7  1  0  0  0  0
  4  6  1  0  0  0  0
  4  7  1  0  0  0  0
  5  6  1  0  0  0  0
  5 12  1  0  0  0  0
  7  9  1  0  0  0  0
  7 12  1  0  0  0  0
  8 13  1  0  0  0  0
  9 10  1  0  0  0  0
  2 14  1  0  0  0  0
  2 15  1  0  0  0  0
  3 16  1  0  0  0  0
  3 17  1  0  0  0  0
  4 18  1  0  0  0  0
  4 19  1  0  0  0  0
  5 20  1  0  0  0  0
  5 21  1  0  0  0  0
  8 22  1  0  0  0  0
  8 23  1  0  0  0  0
  8 24  1  0  0  0  0
  9 25  1  0  0  0  0
  9 26  1  0  0  0  0
 10 27  1  0  0  0  0
 10 28  1  0  0  0  0
M  END
> <id>
EN300-6733620

> <smiles>
Cl.COC(=O)C1(CCC2(CN)C1)CO2

> <MDLNUMBER>
MFCD31736950

> <IUPAC Name>
methyl 1-(aminomethyl)-2-oxabicyclo[2.2.1]heptane-4-carboxylate hydrochloride

> <CAS>
2260937-37-7

> <Purity>
95

> <URL>
https://www.enaminestore.com/catalog/EN300-6733620

> <Saltdate>
Cl

> <ROCS_ShapeQuery>
x0812_0A_x1140_0A_x1097_0A_x0365_0A_x1097_0A_x0310_0A

> <ROCS_TanimotoCombo>
0.734 

> <ROCS_ShapeTanimoto>
0.223 

> <ROCS_ColorTanimoto>
0.511 

> <ROCS_RefTversky>
0.202 

> <ROCS_RefColorTversky>
0.579 

> <ROCS_RefTverskyCombo>
0.781 

> <ROCS_FitTversky>
1.884 

> <ROCS_FitColorTversky>
0.813 

> <ROCS_FitTverskyCombo>
2.697 

> <ROCS_ColorScore>
-8.632

> <ROCS_Overlap>
2042.294

> <ROCS_Rank>
59                  

$$$$
untitled-dbase-298904_0
  -OEChem-02092408543D

 28 29  0     1  0  0  0  0  0999 V2000
   10.2677   11.5101   22.3535 C   0  0  0  0  0  0  0  0  0  0  0  0
    9.3667   12.1701   24.6375 C   0  0  0  0  0  0  0  0  0  0  0  0
    8.0482   11.8651   25.3680 C   0  0  0  0  0  0  0  0  0  0  0  0
    7.8546   11.1990   23.0755 C   0  0  0  0  0  0  0  0  0  0  0  0
    9.4446    9.7633   24.0085 C   0  0  0  0  0  0  0  0  0  0  0  0
    9.3268   11.1837   23.4610 C   0  0  1  0  0  0  0  0  0  0  0  0
    7.4288   10.7768   24.4731 C   0  0  2  0  0  0  0  0  0  0  0  0
   12.5592   11.8115   21.8616 C   0  0  0  0  0  0  0  0  0  0  0  0
    5.9529   10.5429   24.6829 C   0  0  0  0  0  0  0  0  0  0  0  0
    5.6976   10.1342   26.0296 N   0  0  0  0  0  0  0  0  0  0  0  0
    9.9191   11.7375   21.2029 O   0  0  0  0  0  0  0  0  0  0  0  0
    8.1854    9.5599   24.6937 O   0  0  0  0  0  0  0  0  0  0  0  0
   11.5463   11.5114   22.8270 O   0  0  0  0  0  0  0  0  0  0  0  0
    9.3860   13.2111   24.2938 H   0  0  0  0  0  0  0  0  0  0  0  0
   10.2370   12.0169   25.2850 H   0  0  0  0  0  0  0  0  0  0  0  0
    8.2403   11.5028   26.3834 H   0  0  0  0  0  0  0  0  0  0  0  0
    7.4246   12.7642   25.4185 H   0  0  0  0  0  0  0  0  0  0  0  0
    7.4802   12.1822   22.7709 H   0  0  0  0  0  0  0  0  0  0  0  0
    7.6159   10.4597   22.3023 H   0  0  0  0  0  0  0  0  0  0  0  0
    9.5341    9.0087   23.2195 H   0  0  0  0  0  0  0  0  0  0  0  0
   10.2685    9.6333   24.7170 H   0  0  0  0  0  0  0  0  0  0  0  0
   13.5404   11.7865   22.3421 H   0  0  0  0  0  0  0  0  0  0  0  0
   12.3757   12.8009   21.4352 H   0  0  0  0  0  0  0  0  0  0  0  0
   12.5260   11.0625   21.0669 H   0  0  0  0  0  0  0  0  0  0  0  0
    5.4262   11.4786   24.4723 H   0  0  0  0  0  0  0  0  0  0  0  0
    5.6298    9.7604   23.9896 H   0  0  0  0  0  0  0  0  0  0  0  0
    5.2577    9.2336   26.0348 H   0  0  0  0  0  0  0  0  0  0  0  0
    6.5597   10.0809   26.5380 H   0  0  0  0  0  0  0  0  0  0  0  0
  1  6  1  0  0  0  0
  1 11  2  0  0  0  0
  1 13  1  0  0  0  0
  2  3  1  0  0  0  0
  2  6  1  0  0  0  0
  3  7  1  0  0  0  0
  4  6  1  0  0  0  0
  4  7  1  0  0  0  0
  5  6  1  0  0  0  0
  5 12  1  0  0  0  0
  7  9  1  0  0  0  0
  7 12  1  0  0  0  0
  8 13  1  0  0  0  0
  9 10  1  0  0  0  0
  2 14  1  0  0  0  0
  2 15  1  0  0  0  0
  3 16  1  0  0  0  0
  3 17  1  0  0  0  0
  4 18  1  0  0  0  0
  4 19  1  0  0  0  0
  5 20  1  0  0  0  0
  5 21  1  0  0  0  0
  8 22  1  0  0  0  0
  8 23  1  0  0  0  0
  8 24  1  0  0  0  0
  9 25  1  0  0  0  0
  9 26  1  0  0  0  0
 10 27  1  0  0  0  0
 10 28  1  0  0  0  0
M  END
> <id>
EN300-6733621

> <smiles>
COC(=O)C1(CCC2(CN)C1)CO2

> <MDLNUMBER>
MFCD31736899

> <IUPAC Name>
methyl 1-(aminomethyl)-2-oxabicyclo[2.2.1]heptane-4-carboxylate

> <CAS>
2260936-10-3

> <URL>
https://www.enaminestore.com/catalog/EN300-6733621

> <ROCS_ShapeQuery>
x0812_0A_x1140_0A_x1097_0A_x0365_0A_x1097_0A_x0310_0A

> <ROCS_TanimotoCombo>
0.734 

> <ROCS_ShapeTanimoto>
0.223 

> <ROCS_ColorTanimoto>
0.511 

> <ROCS_RefTversky>
0.202 

> <ROCS_RefColorTversky>
0.579 

> <ROCS_RefTverskyCombo>
0.781 

> <ROCS_FitTversky>
1.884 

> <ROCS_FitColorTversky>
0.813 

> <ROCS_FitTverskyCombo>
2.697 

> <ROCS_ColorScore>
-8.632

> <ROCS_Overlap>
2042.294

> <ROCS_Rank>
60                  

$$$$
untitled-dbase-342365_1
  -OEChem-02092408543D

 26 27  0     1  0  0  0  0  0999 V2000
    6.4476   12.8952   25.3149 C   0  0  0  0  0  0  0  0  0  0  0  0
    7.5245   10.8035   23.1980 C   0  0  0  0  0  0  0  0  0  0  0  0
    7.7298   12.1220   25.1970 C   0  0  2  0  0  0  0  0  0  0  0  0
    8.2014   12.0753   23.7257 C   0  0  1  0  0  0  0  0  0  0  0  0
    8.1226    9.9178   24.2943 C   0  0  2  0  0  0  0  0  0  0  0  0
    7.6364   10.6222   25.5856 C   0  0  2  0  0  0  0  0  0  0  0  0
    9.6891   11.6654   23.7043 C   0  0  1  0  0  0  0  0  0  0  0  0
    9.6369   10.1794   24.1167 C   0  0  2  0  0  0  0  0  0  0  0  0
    6.2907   10.1808   25.9404 N   0  0  0  0  0  0  0  0  0  0  0  0
    5.3892   12.4410   25.7233 O   0  0  0  0  0  0  0  0  0  0  0  0
    6.6205   14.1746   24.9021 O   0  0  0  0  0  0  0  0  0  0  0  0
   10.2133   11.8514   22.3988 O   0  0  0  0  0  0  0  0  0  0  0  0
   10.1532    9.3192   23.1133 O   0  0  0  0  0  0  0  0  0  0  0  0
    6.4311   10.8491   23.2181 H   0  0  0  0  0  0  0  0  0  0  0  0
    7.8500   10.5252   22.1902 H   0  0  0  0  0  0  0  0  0  0  0  0
    8.4569   12.6358   25.8372 H   0  0  0  0  0  0  0  0  0  0  0  0
    7.9750   12.9667   23.1345 H   0  0  0  0  0  0  0  0  0  0  0  0
    7.8510    8.8614   24.2136 H   0  0  0  0  0  0  0  0  0  0  0  0
    8.3086   10.4001   26.4226 H   0  0  0  0  0  0  0  0  0  0  0  0
   10.2789   12.2658   24.4051 H   0  0  0  0  0  0  0  0  0  0  0  0
   10.1813    9.9932   25.0485 H   0  0  0  0  0  0  0  0  0  0  0  0
    5.6886   10.9697   25.9179 H   0  0  0  0  0  0  0  0  0  0  0  0
    6.0022    9.5006   25.2775 H   0  0  0  0  0  0  0  0  0  0  0  0
    5.7925   14.6965   24.9697 H   0  0  0  0  0  0  0  0  0  0  0  0
   10.1133   12.7941   22.1860 H   0  0  0  0  0  0  0  0  0  0  0  0
    9.9949    8.4087   23.4129 H   0  0  0  0  0  0  0  0  0  0  0  0
  1  3  1  1  0  0  0
  1 10  2  0  0  0  0
  1 11  1  0  0  0  0
  2  4  1  1  0  0  0
  2  5  1  1  0  0  0
  3  4  1  0  0  0  0
  3  6  1  0  0  0  0
  4  7  1  0  0  0  0
  5  6  1  0  0  0  0
  5  8  1  0  0  0  0
  6  9  1  1  0  0  0
  7  8  1  0  0  0  0
  7 12  1  1  0  0  0
  8 13  1  1  0  0  0
  2 14  1  0  0  0  0
  2 15  1  0  0  0  0
  3 16  1  0  0  0  0
  4 17  1  0  0  0  0
  5 18  1  0  0  0  0
  6 19  1  0  0  0  0
  7 20  1  0  0  0  0
  8 21  1  0  0  0  0
  9 22  1  0  0  0  0
  9 23  1  0  0  0  0
 11 24  1  0  0  0  0
 12 25  1  0  0  0  0
 13 26  1  0  0  0  0
M  END
> <id>
EN300-26978993

> <smiles>
N[C@@H]1[C@@H]([C@@H]2C[C@H]1[C@@H](O)[C@H]2O)C(=O)O |&1:1,2,3,5,6,8,r|

> <IUPAC Name>
rac-(1R,2S,3R,4S,5S,6R)-3-amino-5,6-dihydroxybicyclo[2.2.1]heptane-2-carboxylic acid

> <CAS>
2490344-54-0

> <Purity>
95

> <URL>
https://www.enaminestore.com/catalog/EN300-26978993

> <ROCS_ShapeQuery>
x0812_0A_x1140_0A_x1097_0A_x0365_0A_x1097_0A_x0310_0A

> <ROCS_TanimotoCombo>
0.734 

> <ROCS_ShapeTanimoto>
0.244 

> <ROCS_ColorTanimoto>
0.490 

> <ROCS_RefTversky>
0.217 

> <ROCS_RefColorTversky>
0.661 

> <ROCS_RefTverskyCombo>
0.878 

> <ROCS_FitTversky>
2.035 

> <ROCS_FitColorTversky>
0.654 

> <ROCS_FitTverskyCombo>
2.688 

> <ROCS_ColorScore>
-10.012

> <ROCS_Overlap>
2196.674

> <ROCS_Rank>
61                  

$$$$
untitled-dbase-570594_3
  -OEChem-02092408543D

 33 34  0     0  0  0  0  0  0999 V2000
    9.7964   12.1021   22.3845 C   0  0  0  0  0  0  0  0  0  0  0  0
    9.1261   11.8342   24.9692 C   0  0  0  0  0  0  0  0  0  0  0  0
    7.5015   11.6258   23.6916 C   0  0  0  0  0  0  0  0  0  0  0  0
    9.0426   11.3397   23.4674 C   0  0  0  0  0  0  0  0  0  0  0  0
    7.8711   10.8822   25.0317 C   0  0  0  0  0  0  0  0  0  0  0  0
    9.1778    9.7912   23.5481 C   0  0  0  0  0  0  0  0  0  0  0  0
    8.6372    9.0774   22.3130 C   0  0  0  0  0  0  0  0  0  0  0  0
   10.5987    9.3294   23.8559 C   0  0  0  0  0  0  0  0  0  0  0  0
   11.8853   15.0768   22.8052 C   0  0  0  0  0  0  0  0  0  0  0  0
    6.9434   10.8999   26.2089 C   0  0  0  0  0  0  0  0  0  0  0  0
   11.2139   13.9601   22.0345 C   0  0  0  0  0  0  0  0  0  0  0  0
    9.7907   11.7949   21.2001 O   0  0  0  0  0  0  0  0  0  0  0  0
    8.3211    9.5399   24.6783 O   0  0  0  0  0  0  0  0  0  0  0  0
    5.6880   10.3390   25.8359 O   0  0  0  0  0  0  0  0  0  0  0  0
   10.4592   13.1537   22.9446 O   0  0  0  0  0  0  0  0  0  0  0  0
    9.9909   11.5221   25.5589 H   0  0  0  0  0  0  0  0  0  0  0  0
    8.9531   12.9020   25.1503 H   0  0  0  0  0  0  0  0  0  0  0  0
    7.1983   12.6769   23.7701 H   0  0  0  0  0  0  0  0  0  0  0  0
    6.7899   11.1114   23.0419 H   0  0  0  0  0  0  0  0  0  0  0  0
    8.7576    8.0005   22.4246 H   0  0  0  0  0  0  0  0  0  0  0  0
    9.1804    9.4057   21.4276 H   0  0  0  0  0  0  0  0  0  0  0  0
    7.5796    9.3056   22.1861 H   0  0  0  0  0  0  0  0  0  0  0  0
   10.6337    8.2414   23.9003 H   0  0  0  0  0  0  0  0  0  0  0  0
   10.9209    9.7344   24.8145 H   0  0  0  0  0  0  0  0  0  0  0  0
   11.2780    9.6752   23.0776 H   0  0  0  0  0  0  0  0  0  0  0  0
   11.1437   15.7101   23.3000 H   0  0  0  0  0  0  0  0  0  0  0  0
   12.5639   14.6698   23.5620 H   0  0  0  0  0  0  0  0  0  0  0  0
   12.4902   15.6978   22.1363 H   0  0  0  0  0  0  0  0  0  0  0  0
    6.7681   11.9259   26.5630 H   0  0  0  0  0  0  0  0  0  0  0  0
    7.3472   10.3099   27.0440 H   0  0  0  0  0  0  0  0  0  0  0  0
   11.9611   13.3305   21.5422 H   0  0  0  0  0  0  0  0  0  0  0  0
   10.5356   14.3684   21.2795 H   0  0  0  0  0  0  0  0  0  0  0  0
    5.1249   10.3719   26.6249 H   0  0  0  0  0  0  0  0  0  0  0  0
  1  4  1  1  0  0  0
  1 12  2  0  0  0  0
  1 15  1  0  0  0  0
  2  4  1  0  0  0  0
  2  5  1  0  0  0  0
  3  4  1  0  0  0  0
  3  5  1  0  0  0  0
  4  6  1  0  0  0  0
  5 10  1  1  0  0  0
  5 13  1  0  0  0  0
  6  7  1  0  0  0  0
  6  8  1  0  0  0  0
  6 13  1  0  0  0  0
  9 11  1  0  0  0  0
 10 14  1  0  0  0  0
 11 15  1  0  0  0  0
  2 16  1  0  0  0  0
  2 17  1  0  0  0  0
  3 18  1  0  0  0  0
  3 19  1  0  0  0  0
  7 20  1  0  0  0  0
  7 21  1  0  0  0  0
  7 22  1  0  0  0  0
  8 23  1  0  0  0  0
  8 24  1  0  0  0  0
  8 25  1  0  0  0  0
  9 26  1  0  0  0  0
  9 27  1  0  0  0  0
  9 28  1  0  0  0  0
 10 29  1  0  0  0  0
 10 30  1  0  0  0  0
 11 31  1  0  0  0  0
 11 32  1  0  0  0  0
 14 33  1  0  0  0  0
M  END
> <id>
EN300-37375243

> <smiles>
CCOC(=O)[C@]1(C[C@@]2(CO)C1)C(C)(C)O2

> <IUPAC Name>
ethyl 1-(hydroxymethyl)-3,3-dimethyl-2-oxabicyclo[2.1.1]hexane-4-carboxylate

> <CAS>
2230802-74-9

> <URL>
https://www.enaminestore.com/catalog/EN300-37375243

> <ROCS_ShapeQuery>
x0812_0A_x1140_0A_x1097_0A_x0365_0A_x1097_0A_x0310_0A

> <ROCS_TanimotoCombo>
0.734 

> <ROCS_ShapeTanimoto>
0.258 

> <ROCS_ColorTanimoto>
0.476 

> <ROCS_RefTversky>
0.228 

> <ROCS_RefColorTversky>
0.579 

> <ROCS_RefTverskyCombo>
0.808 

> <ROCS_FitTversky>
2.003 

> <ROCS_FitColorTversky>
0.727 

> <ROCS_FitTverskyCombo>
2.730 

> <ROCS_ColorScore>
-8.671

> <ROCS_Overlap>
2309.978

> <ROCS_Rank>
62                  

$$$$
untitled-dbase-254039_3
  -OEChem-02092408543D

 33 34  0     0  0  0  0  0  0999 V2000
    9.7965   12.1023   22.3845 C   0  0  0  0  0  0  0  0  0  0  0  0
    9.1262   11.8340   24.9692 C   0  0  0  0  0  0  0  0  0  0  0  0
    7.5016   11.6258   23.6916 C   0  0  0  0  0  0  0  0  0  0  0  0
    9.0425   11.3396   23.4673 C   0  0  0  0  0  0  0  0  0  0  0  0
    7.8711   10.8821   25.0317 C   0  0  0  0  0  0  0  0  0  0  0  0
    9.1775    9.7912   23.5478 C   0  0  0  0  0  0  0  0  0  0  0  0
    8.6360    9.0780   22.3127 C   0  0  0  0  0  0  0  0  0  0  0  0
   10.5983    9.3287   23.8547 C   0  0  0  0  0  0  0  0  0  0  0  0
   11.8855   15.0767   22.8064 C   0  0  0  0  0  0  0  0  0  0  0  0
    6.9437   10.8999   26.2087 C   0  0  0  0  0  0  0  0  0  0  0  0
   11.2142   13.9603   22.0353 C   0  0  0  0  0  0  0  0  0  0  0  0
    9.7909   11.7955   21.2001 O   0  0  0  0  0  0  0  0  0  0  0  0
    8.3212    9.5398   24.6783 O   0  0  0  0  0  0  0  0  0  0  0  0
    5.6881   10.3392   25.8360 O   0  0  0  0  0  0  0  0  0  0  0  0
   10.4593   13.1538   22.9451 O   0  0  0  0  0  0  0  0  0  0  0  0
    9.9911   11.5217   25.5584 H   0  0  0  0  0  0  0  0  0  0  0  0
    8.9534   12.9018   25.1503 H   0  0  0  0  0  0  0  0  0  0  0  0
    7.1988   12.6770   23.7699 H   0  0  0  0  0  0  0  0  0  0  0  0
    6.7900   11.1114   23.0420 H   0  0  0  0  0  0  0  0  0  0  0  0
    8.7560    8.0010   22.4239 H   0  0  0  0  0  0  0  0  0  0  0  0
    9.1787    9.4064   21.4272 H   0  0  0  0  0  0  0  0  0  0  0  0
    7.5783    9.3065   22.1865 H   0  0  0  0  0  0  0  0  0  0  0  0
   10.6329    8.2407   23.8989 H   0  0  0  0  0  0  0  0  0  0  0  0
   10.9213    9.7335   24.8131 H   0  0  0  0  0  0  0  0  0  0  0  0
   11.2773    9.6743   23.0760 H   0  0  0  0  0  0  0  0  0  0  0  0
   11.1439   15.7100   23.3013 H   0  0  0  0  0  0  0  0  0  0  0  0
   12.5641   14.6695   23.5631 H   0  0  0  0  0  0  0  0  0  0  0  0
   12.4905   15.6980   22.1377 H   0  0  0  0  0  0  0  0  0  0  0  0
    6.7684   11.9259   26.5630 H   0  0  0  0  0  0  0  0  0  0  0  0
    7.3474   10.3099   27.0440 H   0  0  0  0  0  0  0  0  0  0  0  0
   11.9613   13.3309   21.5428 H   0  0  0  0  0  0  0  0  0  0  0  0
   10.5360   14.3690   21.2803 H   0  0  0  0  0  0  0  0  0  0  0  0
    5.1252   10.3722   26.6252 H   0  0  0  0  0  0  0  0  0  0  0  0
  1  4  1  0  0  0  0
  1 12  2  0  0  0  0
  1 15  1  0  0  0  0
  2  4  1  0  0  0  0
  2  5  1  0  0  0  0
  3  4  1  0  0  0  0
  3  5  1  0  0  0  0
  4  6  1  0  0  0  0
  5 10  1  0  0  0  0
  5 13  1  0  0  0  0
  6  7  1  0  0  0  0
  6  8  1  0  0  0  0
  6 13  1  0  0  0  0
  9 11  1  0  0  0  0
 10 14  1  0  0  0  0
 11 15  1  0  0  0  0
  2 16  1  0  0  0  0
  2 17  1  0  0  0  0
  3 18  1  0  0  0  0
  3 19  1  0  0  0  0
  7 20  1  0  0  0  0
  7 21  1  0  0  0  0
  7 22  1  0  0  0  0
  8 23  1  0  0  0  0
  8 24  1  0  0  0  0
  8 25  1  0  0  0  0
  9 26  1  0  0  0  0
  9 27  1  0  0  0  0
  9 28  1  0  0  0  0
 10 29  1  0  0  0  0
 10 30  1  0  0  0  0
 11 31  1  0  0  0  0
 11 32  1  0  0  0  0
 14 33  1  0  0  0  0
M  END
> <id>
EN300-6473688

> <smiles>
CCOC(=O)C1(CC2(CO)C1)C(C)(C)O2

> <MDLNUMBER>
MFCD31666916

> <IUPAC Name>
ethyl 1-(hydroxymethyl)-3,3-dimethyl-2-oxabicyclo[2.1.1]hexane-4-carboxylate

> <CAS>
2230802-74-9

> <Purity>
95

> <URL>
https://www.enaminestore.com/catalog/EN300-6473688

> <ROCS_ShapeQuery>
x0812_0A_x1140_0A_x1097_0A_x0365_0A_x1097_0A_x0310_0A

> <ROCS_TanimotoCombo>
0.734 

> <ROCS_ShapeTanimoto>
0.258 

> <ROCS_ColorTanimoto>
0.476 

> <ROCS_RefTversky>
0.228 

> <ROCS_RefColorTversky>
0.579 

> <ROCS_RefTverskyCombo>
0.808 

> <ROCS_FitTversky>
2.003 

> <ROCS_FitColorTversky>
0.727 

> <ROCS_FitTverskyCombo>
2.730 

> <ROCS_ColorScore>
-8.670

> <ROCS_Overlap>
2310.015

> <ROCS_Rank>
63                  

$$$$
untitled-dbase-169707_8
  -OEChem-02092408543D

 50 52  0     1  0  0  0  0  0999 V2000
    5.1987   10.8132   26.4949 C   0  0  0  0  0  0  0  0  0  0  0  0
    8.2591   12.9197   23.4535 C   0  0  0  0  0  0  0  0  0  0  0  0
    6.4861   11.1655   23.7620 C   0  0  0  0  0  0  0  0  0  0  0  0
    7.9599   11.8133   25.6903 C   0  0  0  0  0  0  0  0  0  0  0  0
    8.5191   10.6664   22.3751 C   0  0  0  0  0  0  0  0  0  0  0  0
    9.9906   11.3105   24.3014 C   0  0  0  0  0  0  0  0  0  0  0  0
    8.2195    9.5628   24.6103 C   0  0  0  0  0  0  0  0  0  0  0  0
    7.5022   11.7621   22.7608 C   0  0  2  0  0  0  0  0  0  0  0  0
    8.9977   12.4176   24.7164 C   0  0  1  0  0  0  0  0  0  0  0  0
    7.2027   10.6438   25.0265 C   0  0  0  0  0  0  0  0  0  0  0  0
    9.2453   10.1482   23.6271 C   0  0  0  0  0  0  0  0  0  0  0  0
    6.7780   12.2749   21.5126 C   0  0  0  0  0  0  0  0  0  0  0  0
    9.7447   13.5737   25.3880 C   0  0  0  0  0  0  0  0  0  0  0  0
    3.7530   11.8136   28.7441 C   0  0  0  0  0  0  0  0  0  0  0  0
    3.5283    9.4090   29.4347 C   0  0  0  0  0  0  0  0  0  0  0  0
    5.8058   10.4547   29.2677 C   0  0  0  0  0  0  0  0  0  0  0  0
    4.3911   10.4262   28.6909 C   0  0  0  0  0  0  0  0  0  0  0  0
    6.2356   10.0888   25.9486 N   0  0  0  0  0  0  0  0  0  0  0  0
    4.9590   11.9969   26.2804 O   0  0  0  0  0  0  0  0  0  0  0  0
   10.1706    9.1421   23.2383 O   0  0  0  0  0  0  0  0  0  0  0  0
    4.4649   10.0107   27.3225 O   0  0  0  0  0  0  0  0  0  0  0  0
    8.9787   13.3658   22.7536 H   0  0  0  0  0  0  0  0  0  0  0  0
    7.5542   13.7170   23.7254 H   0  0  0  0  0  0  0  0  0  0  0  0
    5.7472   11.9298   24.0396 H   0  0  0  0  0  0  0  0  0  0  0  0
    5.9297   10.3483   23.2829 H   0  0  0  0  0  0  0  0  0  0  0  0
    8.4655   11.4629   26.6005 H   0  0  0  0  0  0  0  0  0  0  0  0
    7.2501   12.5910   26.0038 H   0  0  0  0  0  0  0  0  0  0  0  0
    8.0174    9.8333   21.8643 H   0  0  0  0  0  0  0  0  0  0  0  0
    9.2515   11.0526   21.6531 H   0  0  0  0  0  0  0  0  0  0  0  0
   10.7534   11.7088   23.6187 H   0  0  0  0  0  0  0  0  0  0  0  0
   10.5454   10.9415   25.1748 H   0  0  0  0  0  0  0  0  0  0  0  0
    8.7376    9.1572   25.4902 H   0  0  0  0  0  0  0  0  0  0  0  0
    7.7116    8.7067   24.1454 H   0  0  0  0  0  0  0  0  0  0  0  0
    6.2498   11.4537   21.0340 H   0  0  0  0  0  0  0  0  0  0  0  0
    7.5018   12.6917   20.8163 H   0  0  0  0  0  0  0  0  0  0  0  0
    6.0650   13.0456   21.7952 H   0  0  0  0  0  0  0  0  0  0  0  0
   10.2597   13.2096   26.2738 H   0  0  0  0  0  0  0  0  0  0  0  0
    9.0369   14.3473   25.6757 H   0  0  0  0  0  0  0  0  0  0  0  0
   10.4714   13.9902   24.6946 H   0  0  0  0  0  0  0  0  0  0  0  0
    4.3692   12.5466   28.2113 H   0  0  0  0  0  0  0  0  0  0  0  0
    2.7514   11.8142   28.3017 H   0  0  0  0  0  0  0  0  0  0  0  0
    3.6748   12.1687   29.7780 H   0  0  0  0  0  0  0  0  0  0  0  0
    3.9824    8.4121   29.3991 H   0  0  0  0  0  0  0  0  0  0  0  0
    2.5423    9.3160   28.9652 H   0  0  0  0  0  0  0  0  0  0  0  0
    3.3878    9.6887   30.4838 H   0  0  0  0  0  0  0  0  0  0  0  0
    6.2637    9.4597   29.2297 H   0  0  0  0  0  0  0  0  0  0  0  0
    6.4496   11.1525   28.7224 H   0  0  0  0  0  0  0  0  0  0  0  0
    5.7902   10.7478   30.3237 H   0  0  0  0  0  0  0  0  0  0  0  0
    6.3260    9.1122   26.2072 H   0  0  0  0  0  0  0  0  0  0  0  0
   10.6103    8.8374   24.0485 H   0  0  0  0  0  0  0  0  0  0  0  0
  1 18  1  0  0  0  0
  1 19  2  0  0  0  0
  1 21  1  0  0  0  0
  2  8  1  0  0  0  0
  2  9  1  0  0  0  0
  3  8  1  0  0  0  0
  3 10  1  0  0  0  0
  4  9  1  0  0  0  0
  4 10  1  0  0  0  0
  5  8  1  0  0  0  0
  5 11  1  0  0  0  0
  6  9  1  0  0  0  0
  6 11  1  0  0  0  0
  7 10  1  0  0  0  0
  7 11  1  0  0  0  0
  8 12  1  0  0  0  0
  9 13  1  0  0  0  0
 10 18  1  0  0  0  0
 11 20  1  0  0  0  0
 14 17  1  0  0  0  0
 15 17  1  0  0  0  0
 16 17  1  0  0  0  0
 17 21  1  0  0  0  0
  2 22  1  0  0  0  0
  2 23  1  0  0  0  0
  3 24  1  0  0  0  0
  3 25  1  0  0  0  0
  4 26  1  0  0  0  0
  4 27  1  0  0  0  0
  5 28  1  0  0  0  0
  5 29  1  0  0  0  0
  6 30  1  0  0  0  0
  6 31  1  0  0  0  0
  7 32  1  0  0  0  0
  7 33  1  0  0  0  0
 12 34  1  0  0  0  0
 12 35  1  0  0  0  0
 12 36  1  0  0  0  0
 13 37  1  0  0  0  0
 13 38  1  0  0  0  0
 13 39  1  0  0  0  0
 14 40  1  0  0  0  0
 14 41  1  0  0  0  0
 14 42  1  0  0  0  0
 15 43  1  0  0  0  0
 15 44  1  0  0  0  0
 15 45  1  0  0  0  0
 16 46  1  0  0  0  0
 16 47  1  0  0  0  0
 16 48  1  0  0  0  0
 18 49  1  0  0  0  0
 20 50  1  0  0  0  0
M  END
> <id>
EN300-7548425

> <smiles>
CC(C)(C)OC(=O)NC1(CC2(C)CC3(C)CC(O)(C2)C1)C3

> <IUPAC Name>
tert-butyl N-(3-hydroxy-5,7-dimethyladamantan-1-yl)carbamate

> <CAS>
356572-10-6

> <URL>
https://www.enaminestore.com/catalog/EN300-7548425

> <ROCS_ShapeQuery>
x0812_0A_x1140_0A_x1097_0A_x0365_0A_x1097_0A_x0310_0A

> <ROCS_TanimotoCombo>
0.734 

> <ROCS_ShapeTanimoto>
0.245 

> <ROCS_ColorTanimoto>
0.489 

> <ROCS_RefTversky>
0.224 

> <ROCS_RefColorTversky>
0.584 

> <ROCS_RefTverskyCombo>
0.808 

> <ROCS_FitTversky>
1.593 

> <ROCS_FitColorTversky>
0.750 

> <ROCS_FitTverskyCombo>
2.343 

> <ROCS_ColorScore>
-8.733

> <ROCS_Overlap>
2271.149

> <ROCS_Rank>
64                  

$$$$
untitled-dbase-565487_4
  -OEChem-02092408543D

 25 26  0     0  0  0  0  0  0999 V2000
    7.9027   11.7488   23.2070 C   0  0  0  0  0  0  0  0  0  0  0  0
    8.7140   11.9223   25.1306 C   0  0  0  0  0  0  0  0  0  0  0  0
    9.3888    9.9111   23.8866 C   0  0  0  0  0  0  0  0  0  0  0  0
    9.3432   11.4501   23.7671 C   0  0  0  0  0  0  0  0  0  0  0  0
    7.5566   11.0130   24.5600 C   0  0  0  0  0  0  0  0  0  0  0  0
    6.9159   10.0460   27.1851 C   0  0  0  0  0  0  0  0  0  0  0  0
    6.1750   11.0573   25.1384 C   0  0  0  0  0  0  0  0  0  0  0  0
   10.5546   12.1227   23.1954 C   0  0  0  0  0  0  0  0  0  0  0  0
    5.9744    9.9811   26.0649 N   0  0  0  0  0  0  0  0  0  0  0  0
    8.0918    9.6648   24.4559 O   0  0  0  0  0  0  0  0  0  0  0  0
   10.4722   13.4659   23.3211 F   0  0  0  0  0  0  0  0  0  0  0  0
   11.6801   11.7187   23.8253 F   0  0  0  0  0  0  0  0  0  0  0  0
   10.6947   11.8404   21.8810 F   0  0  0  0  0  0  0  0  0  0  0  0
    7.6104   12.8016   23.1249 H   0  0  0  0  0  0  0  0  0  0  0  0
    7.6229   11.2225   22.2897 H   0  0  0  0  0  0  0  0  0  0  0  0
    9.2045   11.5599   26.0386 H   0  0  0  0  0  0  0  0  0  0  0  0
    8.5007   12.9918   25.2354 H   0  0  0  0  0  0  0  0  0  0  0  0
    9.4681    9.4133   22.9159 H   0  0  0  0  0  0  0  0  0  0  0  0
   10.1664    9.5631   24.5725 H   0  0  0  0  0  0  0  0  0  0  0  0
    6.8018   11.0085   27.7053 H   0  0  0  0  0  0  0  0  0  0  0  0
    6.7090    9.2238   27.8859 H   0  0  0  0  0  0  0  0  0  0  0  0
    7.9442    9.9542   26.8055 H   0  0  0  0  0  0  0  0  0  0  0  0
    6.0420   12.0148   25.6580 H   0  0  0  0  0  0  0  0  0  0  0  0
    5.4486   10.9736   24.3200 H   0  0  0  0  0  0  0  0  0  0  0  0
    6.0982    9.0762   25.5947 H   0  0  0  0  0  0  0  0  0  0  0  0
  1  4  1  0  0  0  0
  1  5  1  0  0  0  0
  2  4  1  0  0  0  0
  2  5  1  0  0  0  0
  3  4  1  0  0  0  0
  3 10  1  0  0  0  0
  4  8  1  1  0  0  0
  5  7  1  1  0  0  0
  5 10  1  0  0  0  0
  6  9  1  0  0  0  0
  7  9  1  0  0  0  0
  8 11  1  0  0  0  0
  8 12  1  0  0  0  0
  8 13  1  0  0  0  0
  1 14  1  0  0  0  0
  1 15  1  0  0  0  0
  2 16  1  0  0  0  0
  2 17  1  0  0  0  0
  3 18  1  0  0  0  0
  3 19  1  0  0  0  0
  6 20  1  0  0  0  0
  6 21  1  0  0  0  0
  6 22  1  0  0  0  0
  7 23  1  0  0  0  0
  7 24  1  0  0  0  0
  9 25  1  0  0  0  0
M  END
> <id>
EN300-26870176

> <smiles>
CNC[C@]1(C[C@]2(C1)C(F)(F)F)OC2

> <IUPAC Name>
methyl({[(1r,4r)-4-(trifluoromethyl)-2-oxabicyclo[2.1.1]hexan-1-yl]methyl})amine

> <URL>
https://www.enaminestore.com/catalog/EN300-26870176

> <ROCS_ShapeQuery>
x0812_0A_x1140_0A_x1097_0A_x0365_0A_x1097_0A_x0310_0A

> <ROCS_TanimotoCombo>
0.733 

> <ROCS_ShapeTanimoto>
0.239 

> <ROCS_ColorTanimoto>
0.494 

> <ROCS_RefTversky>
0.214 

> <ROCS_RefColorTversky>
0.554 

> <ROCS_RefTverskyCombo>
0.768 

> <ROCS_FitTversky>
1.994 

> <ROCS_FitColorTversky>
0.820 

> <ROCS_FitTverskyCombo>
2.814 

> <ROCS_ColorScore>
-8.237

> <ROCS_Overlap>
2159.193

> <ROCS_Rank>
65                  

$$$$
untitled-dbase-560423_4
  -OEChem-02092408543D

 25 26  0     0  0  0  0  0  0999 V2000
    7.9027   11.7488   23.2070 C   0  0  0  0  0  0  0  0  0  0  0  0
    8.7140   11.9223   25.1306 C   0  0  0  0  0  0  0  0  0  0  0  0
    9.3888    9.9111   23.8866 C   0  0  0  0  0  0  0  0  0  0  0  0
    9.3432   11.4501   23.7671 C   0  0  0  0  0  0  0  0  0  0  0  0
    7.5566   11.0130   24.5600 C   0  0  0  0  0  0  0  0  0  0  0  0
    6.9159   10.0460   27.1851 C   0  0  0  0  0  0  0  0  0  0  0  0
    6.1750   11.0573   25.1384 C   0  0  0  0  0  0  0  0  0  0  0  0
   10.5546   12.1227   23.1954 C   0  0  0  0  0  0  0  0  0  0  0  0
    5.9744    9.9811   26.0649 N   0  0  0  0  0  0  0  0  0  0  0  0
    8.0918    9.6648   24.4559 O   0  0  0  0  0  0  0  0  0  0  0  0
   10.4722   13.4659   23.3211 F   0  0  0  0  0  0  0  0  0  0  0  0
   11.6801   11.7187   23.8253 F   0  0  0  0  0  0  0  0  0  0  0  0
   10.6947   11.8404   21.8810 F   0  0  0  0  0  0  0  0  0  0  0  0
    7.6104   12.8016   23.1249 H   0  0  0  0  0  0  0  0  0  0  0  0
    7.6229   11.2225   22.2897 H   0  0  0  0  0  0  0  0  0  0  0  0
    9.2045   11.5599   26.0386 H   0  0  0  0  0  0  0  0  0  0  0  0
    8.5007   12.9918   25.2354 H   0  0  0  0  0  0  0  0  0  0  0  0
    9.4681    9.4133   22.9159 H   0  0  0  0  0  0  0  0  0  0  0  0
   10.1664    9.5631   24.5725 H   0  0  0  0  0  0  0  0  0  0  0  0
    6.8018   11.0085   27.7053 H   0  0  0  0  0  0  0  0  0  0  0  0
    6.7090    9.2238   27.8859 H   0  0  0  0  0  0  0  0  0  0  0  0
    7.9442    9.9542   26.8055 H   0  0  0  0  0  0  0  0  0  0  0  0
    6.0420   12.0148   25.6580 H   0  0  0  0  0  0  0  0  0  0  0  0
    5.4486   10.9736   24.3200 H   0  0  0  0  0  0  0  0  0  0  0  0
    6.0982    9.0762   25.5947 H   0  0  0  0  0  0  0  0  0  0  0  0
  1  4  1  0  0  0  0
  1  5  1  0  0  0  0
  2  4  1  0  0  0  0
  2  5  1  0  0  0  0
  3  4  1  0  0  0  0
  3 10  1  0  0  0  0
  4  8  1  1  0  0  0
  5  7  1  1  0  0  0
  5 10  1  0  0  0  0
  6  9  1  0  0  0  0
  7  9  1  0  0  0  0
  8 11  1  0  0  0  0
  8 12  1  0  0  0  0
  8 13  1  0  0  0  0
  1 14  1  0  0  0  0
  1 15  1  0  0  0  0
  2 16  1  0  0  0  0
  2 17  1  0  0  0  0
  3 18  1  0  0  0  0
  3 19  1  0  0  0  0
  6 20  1  0  0  0  0
  6 21  1  0  0  0  0
  6 22  1  0  0  0  0
  7 23  1  0  0  0  0
  7 24  1  0  0  0  0
  9 25  1  0  0  0  0
M  END
> <id>
EN300-37375466

> <smiles>
Cl.CNC[C@]1(C[C@]2(C1)C(F)(F)F)OC2

> <IUPAC Name>
methyl({[4-(trifluoromethyl)-2-oxabicyclo[2.1.1]hexan-1-yl]methyl})amine hydrochloride

> <CAS>
2648941-54-0

> <URL>
https://www.enaminestore.com/catalog/EN300-37375466

> <ROCS_ShapeQuery>
x0812_0A_x1140_0A_x1097_0A_x0365_0A_x1097_0A_x0310_0A

> <ROCS_TanimotoCombo>
0.733 

> <ROCS_ShapeTanimoto>
0.239 

> <ROCS_ColorTanimoto>
0.494 

> <ROCS_RefTversky>
0.214 

> <ROCS_RefColorTversky>
0.554 

> <ROCS_RefTverskyCombo>
0.768 

> <ROCS_FitTversky>
1.994 

> <ROCS_FitColorTversky>
0.820 

> <ROCS_FitTverskyCombo>
2.814 

> <ROCS_ColorScore>
-8.237

> <ROCS_Overlap>
2159.193

> <ROCS_Rank>
66                  

$$$$
untitled-dbase-559315_3
  -OEChem-02092408543D

 34 35  0     0  0  0  0  0  0999 V2000
    9.8026   12.1018   22.3857 C   0  0  0  0  0  0  0  0  0  0  0  0
    9.1257   11.8334   24.9688 C   0  0  0  0  0  0  0  0  0  0  0  0
    7.5038   11.6280   23.6872 C   0  0  0  0  0  0  0  0  0  0  0  0
    9.0451   11.3399   23.4665 C   0  0  0  0  0  0  0  0  0  0  0  0
    7.8692   10.8832   25.0278 C   0  0  0  0  0  0  0  0  0  0  0  0
    9.1779    9.7912   23.5467 C   0  0  0  0  0  0  0  0  0  0  0  0
    8.6392    9.0788   22.3098 C   0  0  0  0  0  0  0  0  0  0  0  0
   10.5974    9.3271   23.8576 C   0  0  0  0  0  0  0  0  0  0  0  0
   11.8946   15.0732   22.8131 C   0  0  0  0  0  0  0  0  0  0  0  0
    6.9387   10.9016   26.2027 C   0  0  0  0  0  0  0  0  0  0  0  0
   11.2235   13.9579   22.0402 C   0  0  0  0  0  0  0  0  0  0  0  0
    5.6662   10.3395   25.8549 N   0  0  0  0  0  0  0  0  0  0  0  0
    9.7992   11.7952   21.2012 O   0  0  0  0  0  0  0  0  0  0  0  0
    8.3182    9.5404   24.6746 O   0  0  0  0  0  0  0  0  0  0  0  0
   10.4655   13.1522   22.9480 O   0  0  0  0  0  0  0  0  0  0  0  0
    9.9887   11.5198   25.5603 H   0  0  0  0  0  0  0  0  0  0  0  0
    8.9538   12.9014   25.1500 H   0  0  0  0  0  0  0  0  0  0  0  0
    7.2020   12.6796   23.7655 H   0  0  0  0  0  0  0  0  0  0  0  0
    6.7930   11.1151   23.0355 H   0  0  0  0  0  0  0  0  0  0  0  0
    8.7577    8.0017   22.4212 H   0  0  0  0  0  0  0  0  0  0  0  0
    9.1849    9.4068   21.4260 H   0  0  0  0  0  0  0  0  0  0  0  0
    7.5822    9.3086   22.1806 H   0  0  0  0  0  0  0  0  0  0  0  0
   10.6307    8.2391   23.9015 H   0  0  0  0  0  0  0  0  0  0  0  0
   10.9179    9.7312   24.8171 H   0  0  0  0  0  0  0  0  0  0  0  0
   11.2790    9.6724   23.0810 H   0  0  0  0  0  0  0  0  0  0  0  0
   11.1528   15.7073   23.3064 H   0  0  0  0  0  0  0  0  0  0  0  0
   12.5709   14.6648   23.5712 H   0  0  0  0  0  0  0  0  0  0  0  0
   12.5021   15.6938   22.1459 H   0  0  0  0  0  0  0  0  0  0  0  0
    7.3869   10.3149   27.0146 H   0  0  0  0  0  0  0  0  0  0  0  0
    6.8019   11.9414   26.5259 H   0  0  0  0  0  0  0  0  0  0  0  0
   11.9710   13.3275   21.5492 H   0  0  0  0  0  0  0  0  0  0  0  0
   10.5476   14.3676   21.2837 H   0  0  0  0  0  0  0  0  0  0  0  0
    4.9472   11.0223   25.9925 H   0  0  0  0  0  0  0  0  0  0  0  0
    5.6744   10.0567   24.8946 H   0  0  0  0  0  0  0  0  0  0  0  0
  1  4  1  1  0  0  0
  1 13  2  0  0  0  0
  1 15  1  0  0  0  0
  2  4  1  0  0  0  0
  2  5  1  0  0  0  0
  3  4  1  0  0  0  0
  3  5  1  0  0  0  0
  4  6  1  0  0  0  0
  5 10  1  1  0  0  0
  5 14  1  0  0  0  0
  6  7  1  0  0  0  0
  6  8  1  0  0  0  0
  6 14  1  0  0  0  0
  9 11  1  0  0  0  0
 10 12  1  0  0  0  0
 11 15  1  0  0  0  0
  2 16  1  0  0  0  0
  2 17  1  0  0  0  0
  3 18  1  0  0  0  0
  3 19  1  0  0  0  0
  7 20  1  0  0  0  0
  7 21  1  0  0  0  0
  7 22  1  0  0  0  0
  8 23  1  0  0  0  0
  8 24  1  0  0  0  0
  8 25  1  0  0  0  0
  9 26  1  0  0  0  0
  9 27  1  0  0  0  0
  9 28  1  0  0  0  0
 10 29  1  0  0  0  0
 10 30  1  0  0  0  0
 11 31  1  0  0  0  0
 11 32  1  0  0  0  0
 12 33  1  0  0  0  0
 12 34  1  0  0  0  0
M  END
> <id>
EN300-37375202

> <smiles>
CCOC(=O)[C@]1(C[C@@]2(CN)C1)C(C)(C)O2

> <IUPAC Name>
ethyl 1-(aminomethyl)-3,3-dimethyl-2-oxabicyclo[2.1.1]hexane-4-carboxylate

> <CAS>
2225136-76-3

> <URL>
https://www.enaminestore.com/catalog/EN300-37375202

> <ROCS_ShapeQuery>
x0812_0A_x1140_0A_x1097_0A_x0365_0A_x1097_0A_x0310_0A

> <ROCS_TanimotoCombo>
0.733 

> <ROCS_ShapeTanimoto>
0.258 

> <ROCS_ColorTanimoto>
0.475 

> <ROCS_RefTversky>
0.228 

> <ROCS_RefColorTversky>
0.579 

> <ROCS_RefTverskyCombo>
0.807 

> <ROCS_FitTversky>
2.003 

> <ROCS_FitColorTversky>
0.726 

> <ROCS_FitTverskyCombo>
2.729 

> <ROCS_ColorScore>
-8.659

> <ROCS_Overlap>
2309.503

> <ROCS_Rank>
67                  

$$$$
untitled-dbase-165814_3
  -OEChem-02092408543D

 34 35  0     0  0  0  0  0  0999 V2000
    9.8020   12.1023   22.3856 C   0  0  0  0  0  0  0  0  0  0  0  0
    9.1255   11.8339   24.9686 C   0  0  0  0  0  0  0  0  0  0  0  0
    7.5037   11.6273   23.6873 C   0  0  0  0  0  0  0  0  0  0  0  0
    9.0449   11.3400   23.4665 C   0  0  0  0  0  0  0  0  0  0  0  0
    7.8695   10.8831   25.0280 C   0  0  0  0  0  0  0  0  0  0  0  0
    9.1784    9.7914   23.5470 C   0  0  0  0  0  0  0  0  0  0  0  0
    8.6392    9.0789   22.3105 C   0  0  0  0  0  0  0  0  0  0  0  0
   10.5982    9.3276   23.8570 C   0  0  0  0  0  0  0  0  0  0  0  0
   11.8925   15.0749   22.8130 C   0  0  0  0  0  0  0  0  0  0  0  0
    6.9395   10.9014   26.2029 C   0  0  0  0  0  0  0  0  0  0  0  0
   11.2220   13.9592   22.0401 C   0  0  0  0  0  0  0  0  0  0  0  0
    5.6670   10.3384   25.8557 N   0  0  0  0  0  0  0  0  0  0  0  0
    9.7989   11.7957   21.2011 O   0  0  0  0  0  0  0  0  0  0  0  0
    8.3194    9.5405   24.6754 O   0  0  0  0  0  0  0  0  0  0  0  0
   10.4643   13.1531   22.9479 O   0  0  0  0  0  0  0  0  0  0  0  0
    9.9888   11.5208   25.5598 H   0  0  0  0  0  0  0  0  0  0  0  0
    8.9531   12.9018   25.1496 H   0  0  0  0  0  0  0  0  0  0  0  0
    7.2016   12.6787   23.7651 H   0  0  0  0  0  0  0  0  0  0  0  0
    6.7932   11.1136   23.0360 H   0  0  0  0  0  0  0  0  0  0  0  0
    8.7581    8.0018   22.4217 H   0  0  0  0  0  0  0  0  0  0  0  0
    9.1842    9.4070   21.4262 H   0  0  0  0  0  0  0  0  0  0  0  0
    7.5820    9.3083   22.1818 H   0  0  0  0  0  0  0  0  0  0  0  0
   10.6317    8.2396   23.9011 H   0  0  0  0  0  0  0  0  0  0  0  0
   10.9193    9.7320   24.8162 H   0  0  0  0  0  0  0  0  0  0  0  0
   11.2792    9.6729   23.0799 H   0  0  0  0  0  0  0  0  0  0  0  0
   11.1502   15.7086   23.3063 H   0  0  0  0  0  0  0  0  0  0  0  0
   12.5690   14.6669   23.5711 H   0  0  0  0  0  0  0  0  0  0  0  0
   12.4995   15.6958   22.1458 H   0  0  0  0  0  0  0  0  0  0  0  0
    7.3879   10.3152   27.0152 H   0  0  0  0  0  0  0  0  0  0  0  0
    6.8020   11.9412   26.5260 H   0  0  0  0  0  0  0  0  0  0  0  0
   11.9698   13.3292   21.5492 H   0  0  0  0  0  0  0  0  0  0  0  0
   10.5458   14.3686   21.2836 H   0  0  0  0  0  0  0  0  0  0  0  0
    4.9478   11.0210   25.9930 H   0  0  0  0  0  0  0  0  0  0  0  0
    5.6752   10.0551   24.8956 H   0  0  0  0  0  0  0  0  0  0  0  0
  1  4  1  0  0  0  0
  1 13  2  0  0  0  0
  1 15  1  0  0  0  0
  2  4  1  0  0  0  0
  2  5  1  0  0  0  0
  3  4  1  0  0  0  0
  3  5  1  0  0  0  0
  4  6  1  0  0  0  0
  5 10  1  0  0  0  0
  5 14  1  0  0  0  0
  6  7  1  0  0  0  0
  6  8  1  0  0  0  0
  6 14  1  0  0  0  0
  9 11  1  0  0  0  0
 10 12  1  0  0  0  0
 11 15  1  0  0  0  0
  2 16  1  0  0  0  0
  2 17  1  0  0  0  0
  3 18  1  0  0  0  0
  3 19  1  0  0  0  0
  7 20  1  0  0  0  0
  7 21  1  0  0  0  0
  7 22  1  0  0  0  0
  8 23  1  0  0  0  0
  8 24  1  0  0  0  0
  8 25  1  0  0  0  0
  9 26  1  0  0  0  0
  9 27  1  0  0  0  0
  9 28  1  0  0  0  0
 10 29  1  0  0  0  0
 10 30  1  0  0  0  0
 11 31  1  0  0  0  0
 11 32  1  0  0  0  0
 12 33  1  0  0  0  0
 12 34  1  0  0  0  0
M  END
> <id>
EN300-1709260

> <smiles>
CCOC(=O)C1(CC2(CN)C1)C(C)(C)O2

> <MDLNUMBER>
MFCD31665834

> <IUPAC Name>
ethyl 1-(aminomethyl)-3,3-dimethyl-2-oxabicyclo[2.1.1]hexane-4-carboxylate

> <CAS>
2225136-76-3

> <Purity>
95

> <URL>
https://www.enaminestore.com/catalog/EN300-1709260

> <ROCS_ShapeQuery>
x0812_0A_x1140_0A_x1097_0A_x0365_0A_x1097_0A_x0310_0A

> <ROCS_TanimotoCombo>
0.733 

> <ROCS_ShapeTanimoto>
0.258 

> <ROCS_ColorTanimoto>
0.475 

> <ROCS_RefTversky>
0.228 

> <ROCS_RefColorTversky>
0.579 

> <ROCS_RefTverskyCombo>
0.807 

> <ROCS_FitTversky>
2.003 

> <ROCS_FitColorTversky>
0.726 

> <ROCS_FitTverskyCombo>
2.729 

> <ROCS_ColorScore>
-8.659

> <ROCS_Overlap>
2309.435

> <ROCS_Rank>
68                  

$$$$
untitled-dbase-487427_8
  -OEChem-02092408543D

 23 24  0     0  0  0  0  0  0999 V2000
    8.8397   11.8103   25.2034 C   0  0  0  0  0  0  0  0  0  0  0  0
    7.6961   11.8042   23.4482 C   0  0  0  0  0  0  0  0  0  0  0  0
    9.2813    9.9375   23.6718 C   0  0  0  0  0  0  0  0  0  0  0  0
    9.2140   11.4800   23.7105 C   0  0  0  0  0  0  0  0  0  0  0  0
    7.5993   10.9382   24.7645 C   0  0  0  0  0  0  0  0  0  0  0  0
    6.3438   10.9029   25.5817 C   0  0  0  0  0  0  0  0  0  0  0  0
   10.3021   12.2250   22.9980 C   0  0  0  0  0  0  0  0  0  0  0  0
    5.7446   13.4125   25.1290 O   0  0  0  0  0  0  0  0  0  0  0  0
    6.8399   12.7925   27.3268 O   0  0  0  0  0  0  0  0  0  0  0  0
    8.1080    9.6155   24.4376 O   0  0  0  0  0  0  0  0  0  0  0  0
   11.4884   12.0776   23.6288 F   0  0  0  0  0  0  0  0  0  0  0  0
   10.4512   11.7779   21.7313 F   0  0  0  0  0  0  0  0  0  0  0  0
   10.0296   13.5475   22.9382 F   0  0  0  0  0  0  0  0  0  0  0  0
    4.5047   12.3330   26.9018 F   0  0  0  0  0  0  0  0  0  0  0  0
    5.9356   12.4951   26.2344 S   0  0  0  0  0  0  0  0  0  0  0  0
    9.4857   11.3735   25.9706 H   0  0  0  0  0  0  0  0  0  0  0  0
    8.6477   12.8613   25.4460 H   0  0  0  0  0  0  0  0  0  0  0  0
    7.3930   12.8546   23.5202 H   0  0  0  0  0  0  0  0  0  0  0  0
    7.2568   11.3611   22.5497 H   0  0  0  0  0  0  0  0  0  0  0  0
    9.1849    9.5352   22.6593 H   0  0  0  0  0  0  0  0  0  0  0  0
   10.1699    9.5402   24.1705 H   0  0  0  0  0  0  0  0  0  0  0  0
    6.4393   10.2269   26.4424 H   0  0  0  0  0  0  0  0  0  0  0  0
    5.4807   10.5782   24.9850 H   0  0  0  0  0  0  0  0  0  0  0  0
  1  4  1  0  0  0  0
  1  5  1  0  0  0  0
  2  4  1  0  0  0  0
  2  5  1  0  0  0  0
  3  4  1  0  0  0  0
  3 10  1  0  0  0  0
  4  7  1  0  0  0  0
  5  6  1  0  0  0  0
  5 10  1  0  0  0  0
  6 15  1  0  0  0  0
  7 11  1  0  0  0  0
  7 12  1  0  0  0  0
  7 13  1  0  0  0  0
  8 15  2  0  0  0  0
  9 15  2  0  0  0  0
 14 15  1  0  0  0  0
  1 16  1  0  0  0  0
  1 17  1  0  0  0  0
  2 18  1  0  0  0  0
  2 19  1  0  0  0  0
  3 20  1  0  0  0  0
  3 21  1  0  0  0  0
  6 22  1  0  0  0  0
  6 23  1  0  0  0  0
M  END
> <id>
EN300-27695034

> <smiles>
FC(F)(F)C1(CC2(CS(=O)(=O)F)C1)CO2

> <IUPAC Name>
[4-(trifluoromethyl)-2-oxabicyclo[2.1.1]hexan-1-yl]methanesulfonyl fluoride

> <CAS>
2648956-34-5

> <URL>
https://www.enaminestore.com/catalog/EN300-27695034

> <ROCS_ShapeQuery>
x0812_0A_x1140_0A_x1097_0A_x0365_0A_x1097_0A_x0310_0A

> <ROCS_TanimotoCombo>
0.733 

> <ROCS_ShapeTanimoto>
0.259 

> <ROCS_ColorTanimoto>
0.473 

> <ROCS_RefTversky>
0.230 

> <ROCS_RefColorTversky>
0.498 

> <ROCS_RefTverskyCombo>
0.728 

> <ROCS_FitTversky>
2.006 

> <ROCS_FitColorTversky>
0.904 

> <ROCS_FitTverskyCombo>
2.910 

> <ROCS_ColorScore>
-7.361

> <ROCS_Overlap>
2321.797

> <ROCS_Rank>
69                  

$$$$
untitled-dbase-414671_1
  -OEChem-02092408543D

 33 35  0     1  0  0  0  0  0999 V2000
    6.3221   15.5941   26.8933 C   0  0  0  0  0  0  0  0  0  0  0  0
    5.2800   14.8247   26.3760 C   0  0  0  0  0  0  0  0  0  0  0  0
    7.6461   15.2226   26.6594 C   0  0  0  0  0  0  0  0  0  0  0  0
    5.5618   13.6836   25.6249 C   0  0  0  0  0  0  0  0  0  0  0  0
    7.9279   14.0815   25.9083 C   0  0  0  0  0  0  0  0  0  0  0  0
    6.8858   13.3120   25.3910 C   0  0  0  0  0  0  0  0  0  0  0  0
    9.5699   11.6957   24.8270 C   0  0  0  0  0  0  0  0  0  0  0  0
    7.1884   12.0900   24.5869 C   0  0  1  0  0  0  0  0  0  0  0  0
    8.5396   12.2339   23.8241 C   0  0  2  0  0  0  0  0  0  0  0  0
    8.8434   10.3592   25.0020 C   0  0  1  0  0  0  0  0  0  0  0  0
    7.4636   10.8557   25.4960 C   0  0  2  0  0  0  0  0  0  0  0  0
    8.5930   11.1419   22.7288 C   0  0  2  0  0  0  0  0  0  0  0  0
    8.7815    9.8472   23.5453 C   0  0  1  0  0  0  0  0  0  0  0  0
    6.4174    9.8480   25.4055 N   0  0  0  0  0  0  0  0  0  0  0  0
    9.6803   11.4001   21.8542 O   0  0  0  0  0  0  0  0  0  0  0  0
    9.9953    9.1811   23.2291 O   0  0  0  0  0  0  0  0  0  0  0  0
    6.1025   16.4833   27.4770 H   0  0  0  0  0  0  0  0  0  0  0  0
    4.2490   15.1144   26.5571 H   0  0  0  0  0  0  0  0  0  0  0  0
    8.4577   15.8220   27.0610 H   0  0  0  0  0  0  0  0  0  0  0  0
    4.7435   13.0900   25.2260 H   0  0  0  0  0  0  0  0  0  0  0  0
    8.9625   13.7996   25.7312 H   0  0  0  0  0  0  0  0  0  0  0  0
   10.5760   11.5940   24.4068 H   0  0  0  0  0  0  0  0  0  0  0  0
    9.6255   12.2833   25.7494 H   0  0  0  0  0  0  0  0  0  0  0  0
    6.3555   11.9316   23.8924 H   0  0  0  0  0  0  0  0  0  0  0  0
    8.7625   13.2389   23.4554 H   0  0  0  0  0  0  0  0  0  0  0  0
    9.3414    9.6725   25.6916 H   0  0  0  0  0  0  0  0  0  0  0  0
    7.5526   11.1603   26.5476 H   0  0  0  0  0  0  0  0  0  0  0  0
    7.6698   11.1251   22.1399 H   0  0  0  0  0  0  0  0  0  0  0  0
    7.9573    9.1440   23.3929 H   0  0  0  0  0  0  0  0  0  0  0  0
    5.7067   10.1847   24.7975 H   0  0  0  0  0  0  0  0  0  0  0  0
    6.8157    9.0119   25.0444 H   0  0  0  0  0  0  0  0  0  0  0  0
    9.5245   12.2745   21.4605 H   0  0  0  0  0  0  0  0  0  0  0  0
   10.0804    8.4409   23.8522 H   0  0  0  0  0  0  0  0  0  0  0  0
  1  2  1  0  0  0  0
  1  3  2  0  0  0  0
  2  4  2  0  0  0  0
  3  5  1  0  0  0  0
  4  6  1  0  0  0  0
  5  6  2  0  0  0  0
  6  8  1  6  0  0  0
  7  9  1  6  0  0  0
  7 10  1  6  0  0  0
  8  9  1  0  0  0  0
  8 11  1  0  0  0  0
  9 12  1  0  0  0  0
 10 11  1  0  0  0  0
 10 13  1  0  0  0  0
 11 14  1  1  0  0  0
 12 13  1  0  0  0  0
 12 15  1  6  0  0  0
 13 16  1  6  0  0  0
  1 17  1  0  0  0  0
  2 18  1  0  0  0  0
  3 19  1  0  0  0  0
  4 20  1  0  0  0  0
  5 21  1  0  0  0  0
  7 22  1  0  0  0  0
  7 23  1  0  0  0  0
  8 24  1  0  0  0  0
  9 25  1  0  0  0  0
 10 26  1  0  0  0  0
 11 27  1  0  0  0  0
 12 28  1  0  0  0  0
 13 29  1  0  0  0  0
 14 30  1  0  0  0  0
 14 31  1  0  0  0  0
 15 32  1  0  0  0  0
 16 33  1  0  0  0  0
M  END
> <id>
EN300-7470969

> <smiles>
Cl.N[C@@H]1[C@H]([C@H]2C[C@@H]1[C@H](O)[C@@H]2O)C=3C=CC=CC3 |&1:2,3,4,6,7,9,r|

> <IUPAC Name>
rac-(1R,2R,3S,4S,5R,6R)-5-amino-6-phenylbicyclo[2.2.1]heptane-2,3-diol hydrochloride

> <CAS>
2402789-77-7

> <Purity>
95

> <URL>
https://www.enaminestore.com/catalog/EN300-7470969

> <Saltdate>
Cl

> <ROCS_ShapeQuery>
x0812_0A_x1140_0A_x1097_0A_x0365_0A_x1097_0A_x0310_0A

> <ROCS_TanimotoCombo>
0.732 

> <ROCS_ShapeTanimoto>
0.226 

> <ROCS_ColorTanimoto>
0.506 

> <ROCS_RefTversky>
0.207 

> <ROCS_RefColorTversky>
0.635 

> <ROCS_RefTverskyCombo>
0.842 

> <ROCS_FitTversky>
1.720 

> <ROCS_FitColorTversky>
0.714 

> <ROCS_FitTverskyCombo>
2.433 

> <ROCS_ColorScore>
-9.550

> <ROCS_Overlap>
2093.223

> <ROCS_Rank>
70                  

$$$$
untitled-dbase-329669_1
  -OEChem-02092408543D

 33 35  0     1  0  0  0  0  0999 V2000
    6.3221   15.5941   26.8933 C   0  0  0  0  0  0  0  0  0  0  0  0
    5.2800   14.8247   26.3760 C   0  0  0  0  0  0  0  0  0  0  0  0
    7.6461   15.2226   26.6594 C   0  0  0  0  0  0  0  0  0  0  0  0
    5.5618   13.6836   25.6249 C   0  0  0  0  0  0  0  0  0  0  0  0
    7.9279   14.0815   25.9083 C   0  0  0  0  0  0  0  0  0  0  0  0
    6.8858   13.3120   25.3910 C   0  0  0  0  0  0  0  0  0  0  0  0
    9.5699   11.6957   24.8270 C   0  0  0  0  0  0  0  0  0  0  0  0
    7.1884   12.0900   24.5869 C   0  0  1  0  0  0  0  0  0  0  0  0
    8.5396   12.2339   23.8241 C   0  0  2  0  0  0  0  0  0  0  0  0
    8.8434   10.3592   25.0020 C   0  0  1  0  0  0  0  0  0  0  0  0
    7.4636   10.8557   25.4960 C   0  0  2  0  0  0  0  0  0  0  0  0
    8.5930   11.1419   22.7288 C   0  0  2  0  0  0  0  0  0  0  0  0
    8.7815    9.8472   23.5453 C   0  0  1  0  0  0  0  0  0  0  0  0
    6.4174    9.8480   25.4055 N   0  0  0  0  0  0  0  0  0  0  0  0
    9.6803   11.4001   21.8542 O   0  0  0  0  0  0  0  0  0  0  0  0
    9.9953    9.1811   23.2291 O   0  0  0  0  0  0  0  0  0  0  0  0
    6.1025   16.4833   27.4770 H   0  0  0  0  0  0  0  0  0  0  0  0
    4.2490   15.1144   26.5571 H   0  0  0  0  0  0  0  0  0  0  0  0
    8.4577   15.8220   27.0610 H   0  0  0  0  0  0  0  0  0  0  0  0
    4.7435   13.0900   25.2260 H   0  0  0  0  0  0  0  0  0  0  0  0
    8.9625   13.7996   25.7312 H   0  0  0  0  0  0  0  0  0  0  0  0
   10.5760   11.5940   24.4068 H   0  0  0  0  0  0  0  0  0  0  0  0
    9.6255   12.2833   25.7494 H   0  0  0  0  0  0  0  0  0  0  0  0
    6.3555   11.9316   23.8924 H   0  0  0  0  0  0  0  0  0  0  0  0
    8.7625   13.2389   23.4554 H   0  0  0  0  0  0  0  0  0  0  0  0
    9.3414    9.6725   25.6916 H   0  0  0  0  0  0  0  0  0  0  0  0
    7.5526   11.1603   26.5476 H   0  0  0  0  0  0  0  0  0  0  0  0
    7.6698   11.1251   22.1399 H   0  0  0  0  0  0  0  0  0  0  0  0
    7.9573    9.1440   23.3929 H   0  0  0  0  0  0  0  0  0  0  0  0
    5.7067   10.1847   24.7975 H   0  0  0  0  0  0  0  0  0  0  0  0
    6.8157    9.0119   25.0444 H   0  0  0  0  0  0  0  0  0  0  0  0
    9.5245   12.2745   21.4605 H   0  0  0  0  0  0  0  0  0  0  0  0
   10.0804    8.4409   23.8522 H   0  0  0  0  0  0  0  0  0  0  0  0
  1  2  1  0  0  0  0
  1  3  2  0  0  0  0
  2  4  2  0  0  0  0
  3  5  1  0  0  0  0
  4  6  1  0  0  0  0
  5  6  2  0  0  0  0
  6  8  1  6  0  0  0
  7  9  1  6  0  0  0
  7 10  1  6  0  0  0
  8  9  1  0  0  0  0
  8 11  1  0  0  0  0
  9 12  1  0  0  0  0
 10 11  1  0  0  0  0
 10 13  1  0  0  0  0
 11 14  1  1  0  0  0
 12 13  1  0  0  0  0
 12 15  1  6  0  0  0
 13 16  1  6  0  0  0
  1 17  1  0  0  0  0
  2 18  1  0  0  0  0
  3 19  1  0  0  0  0
  4 20  1  0  0  0  0
  5 21  1  0  0  0  0
  7 22  1  0  0  0  0
  7 23  1  0  0  0  0
  8 24  1  0  0  0  0
  9 25  1  0  0  0  0
 10 26  1  0  0  0  0
 11 27  1  0  0  0  0
 12 28  1  0  0  0  0
 13 29  1  0  0  0  0
 14 30  1  0  0  0  0
 14 31  1  0  0  0  0
 15 32  1  0  0  0  0
 16 33  1  0  0  0  0
M  END
> <id>
EN300-7470970

> <smiles>
N[C@@H]1[C@H]([C@H]2C[C@@H]1[C@H](O)[C@@H]2O)C=3C=CC=CC3 |&1:1,2,3,5,6,8,r|

> <IUPAC Name>
rac-(1R,2R,3S,4S,5R,6R)-5-amino-6-phenylbicyclo[2.2.1]heptane-2,3-diol

> <CAS>
2402789-76-6

> <URL>
https://www.enaminestore.com/catalog/EN300-7470970

> <ROCS_ShapeQuery>
x0812_0A_x1140_0A_x1097_0A_x0365_0A_x1097_0A_x0310_0A

> <ROCS_TanimotoCombo>
0.732 

> <ROCS_ShapeTanimoto>
0.226 

> <ROCS_ColorTanimoto>
0.506 

> <ROCS_RefTversky>
0.207 

> <ROCS_RefColorTversky>
0.635 

> <ROCS_RefTverskyCombo>
0.842 

> <ROCS_FitTversky>
1.720 

> <ROCS_FitColorTversky>
0.714 

> <ROCS_FitTverskyCombo>
2.433 

> <ROCS_ColorScore>
-9.550

> <ROCS_Overlap>
2093.223

> <ROCS_Rank>
71                  

$$$$
untitled-dbase-310532_1
  -OEChem-02092408543D

 24 25  0     1  0  0  0  0  0999 V2000
    7.2335   10.6692   23.4773 C   0  0  0  0  0  0  0  0  0  0  0  0
    8.9544   10.2237   25.2867 C   0  0  0  0  0  0  0  0  0  0  0  0
    7.2860   12.1456   25.2873 C   0  0  0  0  0  0  0  0  0  0  0  0
    8.0591   11.8926   23.1023 C   0  0  2  0  0  0  0  0  0  0  0  0
    9.9251   10.4465   24.1160 C   0  0  2  0  0  0  0  0  0  0  0  0
    9.5746   11.6866   23.2818 C   0  0  1  0  0  0  0  0  0  0  0  0
    7.4934   10.6554   24.9772 C   0  0  1  0  0  0  0  0  0  0  0  0
    6.5613    9.8203   25.7208 N   0  0  0  0  0  0  0  0  0  0  0  0
    7.6633   12.8661   24.0978 O   0  0  0  0  0  0  0  0  0  0  0  0
    9.8870    9.2734   23.2952 O   0  0  0  0  0  0  0  0  0  0  0  0
   10.1931   11.6072   22.0009 O   0  0  0  0  0  0  0  0  0  0  0  0
    6.1725   10.8534   23.2651 H   0  0  0  0  0  0  0  0  0  0  0  0
    7.5296    9.7514   22.9615 H   0  0  0  0  0  0  0  0  0  0  0  0
    8.9757    9.1612   25.5843 H   0  0  0  0  0  0  0  0  0  0  0  0
    9.3379   10.7705   26.1641 H   0  0  0  0  0  0  0  0  0  0  0  0
    6.2321   12.3826   25.4827 H   0  0  0  0  0  0  0  0  0  0  0  0
    7.8756   12.4994   26.1409 H   0  0  0  0  0  0  0  0  0  0  0  0
    7.8214   12.2663   22.1101 H   0  0  0  0  0  0  0  0  0  0  0  0
   10.9297   10.5297   24.5021 H   0  0  0  0  0  0  0  0  0  0  0  0
   10.0156   12.5760   23.7840 H   0  0  0  0  0  0  0  0  0  0  0  0
    7.0766    9.1124   26.1925 H   0  0  0  0  0  0  0  0  0  0  0  0
    6.0782   10.3914   26.3762 H   0  0  0  0  0  0  0  0  0  0  0  0
   10.1646    8.5310   23.8556 H   0  0  0  0  0  0  0  0  0  0  0  0
   10.0070   12.4463   21.5519 H   0  0  0  0  0  0  0  0  0  0  0  0
  1  4  1  0  0  0  0
  1  7  1  0  0  0  0
  2  5  1  0  0  0  0
  2  7  1  0  0  0  0
  3  7  1  0  0  0  0
  3  9  1  0  0  0  0
  4  6  1  0  0  0  0
  4  9  1  0  0  0  0
  5  6  1  0  0  0  0
  5 10  1  1  0  0  0
  6 11  1  1  0  0  0
  7  8  1  0  0  0  0
  1 12  1  0  0  0  0
  1 13  1  0  0  0  0
  2 14  1  0  0  0  0
  2 15  1  0  0  0  0
  3 16  1  0  0  0  0
  3 17  1  0  0  0  0
  4 18  1  0  0  0  0
  5 19  1  0  0  0  0
  6 20  1  0  0  0  0
  8 21  1  0  0  0  0
  8 22  1  0  0  0  0
 10 23  1  0  0  0  0
 11 24  1  0  0  0  0
M  END
> <id>
EN300-7440589

> <smiles>
Cl.NC1(COC2C1)C[C@@H](O)[C@H]2O |&1:8,10,r|

> <IUPAC Name>
rac-(3R,4R)-1-amino-6-oxabicyclo[3.2.1]octane-3,4-diol hydrochloride

> <CAS>
2422964-51-8

> <Purity>
95

> <URL>
https://www.enaminestore.com/catalog/EN300-7440589

> <Saltdate>
Cl

> <ROCS_ShapeQuery>
x0812_0A_x1140_0A_x1097_0A_x0365_0A_x1097_0A_x0310_0A

> <ROCS_TanimotoCombo>
0.732 

> <ROCS_ShapeTanimoto>
0.213 

> <ROCS_ColorTanimoto>
0.519 

> <ROCS_RefTversky>
0.193 

> <ROCS_RefColorTversky>
0.637 

> <ROCS_RefTverskyCombo>
0.830 

> <ROCS_FitTversky>
1.966 

> <ROCS_FitColorTversky>
0.737 

> <ROCS_FitTverskyCombo>
2.702 

> <ROCS_ColorScore>
-9.570

> <ROCS_Overlap>
1950.863

> <ROCS_Rank>
72                  

$$$$
untitled-dbase-552434_1
  -OEChem-02092408543D

 24 25  0     1  0  0  0  0  0999 V2000
    7.2335   10.6692   23.4773 C   0  0  0  0  0  0  0  0  0  0  0  0
    8.9544   10.2237   25.2867 C   0  0  0  0  0  0  0  0  0  0  0  0
    7.2860   12.1456   25.2873 C   0  0  0  0  0  0  0  0  0  0  0  0
    8.0591   11.8926   23.1023 C   0  0  2  0  0  0  0  0  0  0  0  0
    9.9251   10.4465   24.1160 C   0  0  2  0  0  0  0  0  0  0  0  0
    9.5746   11.6866   23.2818 C   0  0  1  0  0  0  0  0  0  0  0  0
    7.4934   10.6554   24.9772 C   0  0  1  0  0  0  0  0  0  0  0  0
    6.5613    9.8203   25.7208 N   0  0  0  0  0  0  0  0  0  0  0  0
    7.6633   12.8661   24.0978 O   0  0  0  0  0  0  0  0  0  0  0  0
    9.8870    9.2734   23.2952 O   0  0  0  0  0  0  0  0  0  0  0  0
   10.1931   11.6072   22.0009 O   0  0  0  0  0  0  0  0  0  0  0  0
    6.1725   10.8534   23.2651 H   0  0  0  0  0  0  0  0  0  0  0  0
    7.5296    9.7514   22.9615 H   0  0  0  0  0  0  0  0  0  0  0  0
    8.9757    9.1612   25.5843 H   0  0  0  0  0  0  0  0  0  0  0  0
    9.3379   10.7705   26.1641 H   0  0  0  0  0  0  0  0  0  0  0  0
    6.2321   12.3826   25.4827 H   0  0  0  0  0  0  0  0  0  0  0  0
    7.8756   12.4994   26.1409 H   0  0  0  0  0  0  0  0  0  0  0  0
    7.8214   12.2663   22.1101 H   0  0  0  0  0  0  0  0  0  0  0  0
   10.9297   10.5297   24.5021 H   0  0  0  0  0  0  0  0  0  0  0  0
   10.0156   12.5760   23.7840 H   0  0  0  0  0  0  0  0  0  0  0  0
    7.0766    9.1124   26.1925 H   0  0  0  0  0  0  0  0  0  0  0  0
    6.0782   10.3914   26.3762 H   0  0  0  0  0  0  0  0  0  0  0  0
   10.1646    8.5310   23.8556 H   0  0  0  0  0  0  0  0  0  0  0  0
   10.0070   12.4463   21.5519 H   0  0  0  0  0  0  0  0  0  0  0  0
  1  4  1  0  0  0  0
  1  7  1  0  0  0  0
  2  5  1  0  0  0  0
  2  7  1  0  0  0  0
  3  7  1  0  0  0  0
  3  9  1  0  0  0  0
  4  6  1  0  0  0  0
  4  9  1  0  0  0  0
  5  6  1  0  0  0  0
  5 10  1  1  0  0  0
  6 11  1  1  0  0  0
  7  8  1  0  0  0  0
  1 12  1  0  0  0  0
  1 13  1  0  0  0  0
  2 14  1  0  0  0  0
  2 15  1  0  0  0  0
  3 16  1  0  0  0  0
  3 17  1  0  0  0  0
  4 18  1  0  0  0  0
  5 19  1  0  0  0  0
  6 20  1  0  0  0  0
  8 21  1  0  0  0  0
  8 22  1  0  0  0  0
 10 23  1  0  0  0  0
 11 24  1  0  0  0  0
M  END
> <id>
EN300-7437679

> <smiles>
NC1(COC2C1)C[C@@H](O)[C@H]2O |&1:7,9,r|

> <IUPAC Name>
rac-(3R,4R)-1-amino-6-oxabicyclo[3.2.1]octane-3,4-diol

> <CAS>
2422964-50-7

> <URL>
https://www.enaminestore.com/catalog/EN300-7437679

> <ROCS_ShapeQuery>
x0812_0A_x1140_0A_x1097_0A_x0365_0A_x1097_0A_x0310_0A

> <ROCS_TanimotoCombo>
0.732 

> <ROCS_ShapeTanimoto>
0.213 

> <ROCS_ColorTanimoto>
0.519 

> <ROCS_RefTversky>
0.193 

> <ROCS_RefColorTversky>
0.637 

> <ROCS_RefTverskyCombo>
0.830 

> <ROCS_FitTversky>
1.966 

> <ROCS_FitColorTversky>
0.737 

> <ROCS_FitTverskyCombo>
2.702 

> <ROCS_ColorScore>
-9.570

> <ROCS_Overlap>
1950.863

> <ROCS_Rank>
73                  

$$$$
untitled-dbase-501793_8
  -OEChem-02092408543D

 34 36  0     0  0  0  0  0  0999 V2000
    9.9694   12.0408   22.4723 C   0  0  0  0  0  0  0  0  0  0  0  0
    8.9396   11.9883   24.9539 C   0  0  0  0  0  0  0  0  0  0  0  0
    7.4984   11.6828   23.4653 C   0  0  0  0  0  0  0  0  0  0  0  0
    9.0034    8.9574   22.5681 C   0  0  0  0  0  0  0  0  0  0  0  0
   10.4440    9.2627   24.0553 C   0  0  0  0  0  0  0  0  0  0  0  0
    9.0524   11.3901   23.4941 C   0  0  0  0  0  0  0  0  0  0  0  0
    9.0527    9.8533   23.8090 C   0  0  0  0  0  0  0  0  0  0  0  0
    7.6419   11.0844   24.9224 C   0  0  0  0  0  0  0  0  0  0  0  0
   12.0902   14.9848   22.9457 C   0  0  0  0  0  0  0  0  0  0  0  0
    6.5520   11.3037   25.9323 C   0  0  0  0  0  0  0  0  0  0  0  0
   11.4880   13.8271   22.1783 C   0  0  0  0  0  0  0  0  0  0  0  0
    3.4248   10.8842   26.9001 N   0  5  0  0  0  0  0  0  0  0  0  0
    5.3022   10.7138   25.4412 N   0  0  0  0  0  0  0  0  0  0  0  0
    4.3261   10.8051   26.2055 N   0  3  0  0  0  0  0  0  0  0  0  0
   10.4674    8.8058   22.6537 N   0  0  0  0  0  0  0  0  0  0  0  0
   10.1116   11.6391   21.3253 O   0  0  0  0  0  0  0  0  0  0  0  0
    8.0371    9.6768   24.8287 O   0  0  0  0  0  0  0  0  0  0  0  0
   10.5889   13.1168   23.0357 O   0  0  0  0  0  0  0  0  0  0  0  0
    9.7122   11.6835   25.6660 H   0  0  0  0  0  0  0  0  0  0  0  0
    8.7885   13.0711   25.0303 H   0  0  0  0  0  0  0  0  0  0  0  0
    7.1984   12.7341   23.3878 H   0  0  0  0  0  0  0  0  0  0  0  0
    6.9038   11.0884   22.7653 H   0  0  0  0  0  0  0  0  0  0  0  0
    8.4547    8.0201   22.7183 H   0  0  0  0  0  0  0  0  0  0  0  0
    8.6521    9.4180   21.6402 H   0  0  0  0  0  0  0  0  0  0  0  0
   11.2408    9.9664   24.3127 H   0  0  0  0  0  0  0  0  0  0  0  0
   10.4564    8.4442   24.7848 H   0  0  0  0  0  0  0  0  0  0  0  0
   11.3125   15.6749   23.2845 H   0  0  0  0  0  0  0  0  0  0  0  0
   12.6458   14.6229   23.8171 H   0  0  0  0  0  0  0  0  0  0  0  0
   12.8017   15.5339   22.3202 H   0  0  0  0  0  0  0  0  0  0  0  0
    6.3927   12.3760   26.1117 H   0  0  0  0  0  0  0  0  0  0  0  0
    6.8093   10.8405   26.8951 H   0  0  0  0  0  0  0  0  0  0  0  0
   12.2710   13.1407   21.8424 H   0  0  0  0  0  0  0  0  0  0  0  0
   10.9326   14.1905   21.3085 H   0  0  0  0  0  0  0  0  0  0  0  0
   10.8091    7.8560   22.5176 H   0  0  0  0  0  0  0  0  0  0  0  0
  1  6  1  0  0  0  0
  1 16  2  0  0  0  0
  1 18  1  0  0  0  0
  2  6  1  0  0  0  0
  2  8  1  0  0  0  0
  3  6  1  0  0  0  0
  3  8  1  0  0  0  0
  4  7  1  0  0  0  0
  4 15  1  0  0  0  0
  5  7  1  0  0  0  0
  5 15  1  0  0  0  0
  6  7  1  0  0  0  0
  7 17  1  0  0  0  0
  8 10  1  0  0  0  0
  8 17  1  0  0  0  0
  9 11  1  0  0  0  0
 10 13  1  0  0  0  0
 11 18  1  0  0  0  0
 12 14  2  0  0  0  0
 13 14  2  0  0  0  0
  2 19  1  0  0  0  0
  2 20  1  0  0  0  0
  3 21  1  0  0  0  0
  3 22  1  0  0  0  0
  4 23  1  0  0  0  0
  4 24  1  0  0  0  0
  5 25  1  0  0  0  0
  5 26  1  0  0  0  0
  9 27  1  0  0  0  0
  9 28  1  0  0  0  0
  9 29  1  0  0  0  0
 10 30  1  0  0  0  0
 10 31  1  0  0  0  0
 11 32  1  0  0  0  0
 11 33  1  0  0  0  0
 15 34  1  0  0  0  0
M  CHG  2  12  -1  14   1
M  END
> <id>
EN300-28279119

> <smiles>
CCOC(=O)C1(CC2(CN=[N+]=[N-])C1)C3(CNC3)O2

> <IUPAC Name>
ethyl 4'-(azidomethyl)-3'-oxaspiro[azetidine-3,2'-bicyclo[2.1.1]hexane]-1'-carboxylate

> <CAS>
2680849-86-7

> <URL>
https://www.enaminestore.com/catalog/EN300-28279119

> <ROCS_ShapeQuery>
x0812_0A_x1140_0A_x1097_0A_x0365_0A_x1097_0A_x0310_0A

> <ROCS_TanimotoCombo>
0.732 

> <ROCS_ShapeTanimoto>
0.278 

> <ROCS_ColorTanimoto>
0.454 

> <ROCS_RefTversky>
0.245 

> <ROCS_RefColorTversky>
0.562 

> <ROCS_RefTverskyCombo>
0.807 

> <ROCS_FitTversky>
1.914 

> <ROCS_FitColorTversky>
0.703 

> <ROCS_FitTverskyCombo>
2.617 

> <ROCS_ColorScore>
-8.408

> <ROCS_Overlap>
2483.689

> <ROCS_Rank>
74                  

$$$$
untitled-dbase-475094_4
  -OEChem-02092408543D

 24 25  0     1  0  0  0  0  0999 V2000
    9.2026    9.8846   23.7013 C   0  0  0  0  0  0  0  0  0  0  0  0
   10.0838   11.9330   22.4411 C   0  0  0  0  0  0  0  0  0  0  0  0
    7.9199    9.4908   24.4027 C   0  0  0  0  0  0  0  0  0  0  0  0
    8.1628   11.6684   25.6623 C   0  0  0  0  0  0  0  0  0  0  0  0
    9.4782   11.9721   24.9162 C   0  0  0  0  0  0  0  0  0  0  0  0
    7.7246   11.6231   23.3284 C   0  0  0  0  0  0  0  0  0  0  0  0
    7.3273   10.9003   24.6171 C   0  0  1  0  0  0  0  0  0  0  0  0
    9.2228   11.3922   23.5240 C   0  0  2  0  0  0  0  0  0  0  0  0
   11.9217   13.3625   22.0384 C   0  0  0  0  0  0  0  0  0  0  0  0
   10.0795    9.1092   23.3543 O   0  0  0  0  0  0  0  0  0  0  0  0
    9.9517   11.6543   21.2570 O   0  0  0  0  0  0  0  0  0  0  0  0
   11.0192   12.7680   22.9766 O   0  0  0  0  0  0  0  0  0  0  0  0
    7.3029    8.8920   23.7278 H   0  0  0  0  0  0  0  0  0  0  0  0
    8.1204    8.9682   25.3400 H   0  0  0  0  0  0  0  0  0  0  0  0
    8.3327   11.0864   26.5736 H   0  0  0  0  0  0  0  0  0  0  0  0
    7.6664   12.6050   25.9406 H   0  0  0  0  0  0  0  0  0  0  0  0
    9.6621   13.0522   24.8858 H   0  0  0  0  0  0  0  0  0  0  0  0
   10.3319   11.5001   25.4160 H   0  0  0  0  0  0  0  0  0  0  0  0
    7.3197   11.1466   22.4277 H   0  0  0  0  0  0  0  0  0  0  0  0
    7.4496   12.6840   23.3251 H   0  0  0  0  0  0  0  0  0  0  0  0
    6.2581   10.8900   24.8382 H   0  0  0  0  0  0  0  0  0  0  0  0
   12.6255   14.0091   22.5683 H   0  0  0  0  0  0  0  0  0  0  0  0
   11.3564   13.9443   21.3061 H   0  0  0  0  0  0  0  0  0  0  0  0
   12.4731   12.5712   21.5251 H   0  0  0  0  0  0  0  0  0  0  0  0
  1  3  1  0  0  0  0
  1  8  1  0  0  0  0
  1 10  2  0  0  0  0
  2  8  1  0  0  0  0
  2 11  2  0  0  0  0
  2 12  1  0  0  0  0
  3  7  1  0  0  0  0
  4  5  1  0  0  0  0
  4  7  1  0  0  0  0
  5  8  1  0  0  0  0
  6  7  1  0  0  0  0
  6  8  1  0  0  0  0
  9 12  1  0  0  0  0
  3 13  1  0  0  0  0
  3 14  1  0  0  0  0
  4 15  1  0  0  0  0
  4 16  1  0  0  0  0
  5 17  1  0  0  0  0
  5 18  1  0  0  0  0
  6 19  1  0  0  0  0
  6 20  1  0  0  0  0
  7 21  1  0  0  0  0
  9 22  1  0  0  0  0
  9 23  1  0  0  0  0
  9 24  1  0  0  0  0
M  END
> <id>
EN300-7461205

> <smiles>
COC(=O)C1(CCC2CC1=O)C2

> <MDLNUMBER>
MFCD09869549

> <IUPAC Name>
methyl 2-oxobicyclo[2.2.1]heptane-1-carboxylate

> <CAS>
56505-63-6

> <Purity>
95

> <URL>
https://www.enaminestore.com/catalog/EN300-7461205

> <ROCS_ShapeQuery>
x0812_0A_x1140_0A_x1097_0A_x0365_0A_x1097_0A_x0310_0A

> <ROCS_TanimotoCombo>
0.732 

> <ROCS_ShapeTanimoto>
0.226 

> <ROCS_ColorTanimoto>
0.505 

> <ROCS_RefTversky>
0.204 

> <ROCS_RefColorTversky>
0.533 

> <ROCS_RefTverskyCombo>
0.737 

> <ROCS_FitTversky>
1.971 

> <ROCS_FitColorTversky>
0.907 

> <ROCS_FitTverskyCombo>
2.879 

> <ROCS_ColorScore>
-7.885

> <ROCS_Overlap>
2058.876

> <ROCS_Rank>
75                  

$$$$
untitled-dbase-570586_8
  -OEChem-02092408543D

 39 41  0     0  0  0  0  0  0999 V2000
   10.0241   11.9318   22.4796 C   0  0  0  0  0  0  0  0  0  0  0  0
    8.4085    9.1395   22.2842 C   0  0  0  0  0  0  0  0  0  0  0  0
   10.2911    9.0680   23.9540 C   0  0  0  0  0  0  0  0  0  0  0  0
    9.1578   11.7686   25.0163 C   0  0  0  0  0  0  0  0  0  0  0  0
    7.6036   11.8278   23.6381 C   0  0  0  0  0  0  0  0  0  0  0  0
    8.3746    7.6165   22.3731 C   0  0  0  0  0  0  0  0  0  0  0  0
   10.1429    7.5494   23.9404 C   0  0  0  0  0  0  0  0  0  0  0  0
    9.0909   11.3039   23.5051 C   0  0  0  0  0  0  0  0  0  0  0  0
    8.9752    9.7521   23.5691 C   0  0  0  0  0  0  0  0  0  0  0  0
    7.7661   11.0297   24.9872 C   0  0  0  0  0  0  0  0  0  0  0  0
   12.5481   14.5165   23.0604 C   0  0  0  0  0  0  0  0  0  0  0  0
    6.7808   11.1892   26.1052 C   0  0  0  0  0  0  0  0  0  0  0  0
   11.7488   13.5288   22.2375 C   0  0  0  0  0  0  0  0  0  0  0  0
    3.7035   10.9241   27.2677 N   0  5  0  0  0  0  0  0  0  0  0  0
    5.4407   10.8119   25.6402 N   0  0  0  0  0  0  0  0  0  0  0  0
    4.5388   10.8721   26.4926 N   0  3  0  0  0  0  0  0  0  0  0  0
   10.0394   11.6324   21.2933 O   0  0  0  0  0  0  0  0  0  0  0  0
    9.6683    7.0980   22.6739 O   0  0  0  0  0  0  0  0  0  0  0  0
    8.0185    9.6355   24.6427 O   0  0  0  0  0  0  0  0  0  0  0  0
   10.8169   12.8573   23.0911 O   0  0  0  0  0  0  0  0  0  0  0  0
    9.0406    9.4283   21.4359 H   0  0  0  0  0  0  0  0  0  0  0  0
    7.3936    9.4915   22.0761 H   0  0  0  0  0  0  0  0  0  0  0  0
   10.6329    9.3687   24.9493 H   0  0  0  0  0  0  0  0  0  0  0  0
   11.0701    9.3517   23.2362 H   0  0  0  0  0  0  0  0  0  0  0  0
    9.9243   11.3173   25.6502 H   0  0  0  0  0  0  0  0  0  0  0  0
    9.1460   12.8489   25.2043 H   0  0  0  0  0  0  0  0  0  0  0  0
    7.4651   12.9132   23.7130 H   0  0  0  0  0  0  0  0  0  0  0  0
    6.8646   11.4341   22.9366 H   0  0  0  0  0  0  0  0  0  0  0  0
    7.6573    7.2740   23.1282 H   0  0  0  0  0  0  0  0  0  0  0  0
    8.0633    7.1967   21.4112 H   0  0  0  0  0  0  0  0  0  0  0  0
   11.1164    7.0809   24.1172 H   0  0  0  0  0  0  0  0  0  0  0  0
    9.4643    7.2054   24.7298 H   0  0  0  0  0  0  0  0  0  0  0  0
   11.8932   15.2633   23.5179 H   0  0  0  0  0  0  0  0  0  0  0  0
   13.1026   14.0006   23.8512 H   0  0  0  0  0  0  0  0  0  0  0  0
   13.2872   15.0297   22.4363 H   0  0  0  0  0  0  0  0  0  0  0  0
    6.7512   12.2294   26.4618 H   0  0  0  0  0  0  0  0  0  0  0  0
    7.0485   10.5544   26.9630 H   0  0  0  0  0  0  0  0  0  0  0  0
   12.4097   12.7847   21.7828 H   0  0  0  0  0  0  0  0  0  0  0  0
   11.1948   14.0459   21.4484 H   0  0  0  0  0  0  0  0  0  0  0  0
  1  8  1  1  0  0  0
  1 17  2  0  0  0  0
  1 20  1  0  0  0  0
  2  6  1  0  0  0  0
  2  9  1  0  0  0  0
  3  7  1  0  0  0  0
  3  9  1  0  0  0  0
  4  8  1  0  0  0  0
  4 10  1  0  0  0  0
  5  8  1  0  0  0  0
  5 10  1  0  0  0  0
  6 18  1  0  0  0  0
  7 18  1  0  0  0  0
  8  9  1  0  0  0  0
  9 19  1  0  0  0  0
 10 12  1  1  0  0  0
 10 19  1  0  0  0  0
 11 13  1  0  0  0  0
 12 15  1  0  0  0  0
 13 20  1  0  0  0  0
 14 16  2  0  0  0  0
 15 16  2  0  0  0  0
  2 21  1  0  0  0  0
  2 22  1  0  0  0  0
  3 23  1  0  0  0  0
  3 24  1  0  0  0  0
  4 25  1  0  0  0  0
  4 26  1  0  0  0  0
  5 27  1  0  0  0  0
  5 28  1  0  0  0  0
  6 29  1  0  0  0  0
  6 30  1  0  0  0  0
  7 31  1  0  0  0  0
  7 32  1  0  0  0  0
 11 33  1  0  0  0  0
 11 34  1  0  0  0  0
 11 35  1  0  0  0  0
 12 36  1  0  0  0  0
 12 37  1  0  0  0  0
 13 38  1  0  0  0  0
 13 39  1  0  0  0  0
M  CHG  2  14  -1  16   1
M  END
> <id>
EN300-37375210

> <smiles>
CCOC(=O)[C@]1(C[C@@]2(CN=[N+]=[N-])C1)C3(CCOCC3)O2

> <IUPAC Name>
ethyl 4-(azidomethyl)-3-oxaspiro[bicyclo[2.1.1]hexane-2,4'-oxane]-1-carboxylate

> <CAS>
2225146-56-3

> <URL>
https://www.enaminestore.com/catalog/EN300-37375210

> <ROCS_ShapeQuery>
x0812_0A_x1140_0A_x1097_0A_x0365_0A_x1097_0A_x0310_0A

> <ROCS_TanimotoCombo>
0.732 

> <ROCS_ShapeTanimoto>
0.271 

> <ROCS_ColorTanimoto>
0.461 

> <ROCS_RefTversky>
0.242 

> <ROCS_RefColorTversky>
0.547 

> <ROCS_RefTverskyCombo>
0.790 

> <ROCS_FitTversky>
1.778 

> <ROCS_FitColorTversky>
0.744 

> <ROCS_FitTverskyCombo>
2.521 

> <ROCS_ColorScore>
-8.165

> <ROCS_Overlap>
2453.348

> <ROCS_Rank>
76                  

$$$$
untitled-dbase-388565_8
  -OEChem-02092408543D

 39 41  0     0  0  0  0  0  0999 V2000
   10.0248   11.9310   22.4797 C   0  0  0  0  0  0  0  0  0  0  0  0
    8.4056    9.1410   22.2827 C   0  0  0  0  0  0  0  0  0  0  0  0
   10.2888    9.0660   23.9517 C   0  0  0  0  0  0  0  0  0  0  0  0
    9.1594   11.7671   25.0163 C   0  0  0  0  0  0  0  0  0  0  0  0
    7.6046   11.8292   23.6391 C   0  0  0  0  0  0  0  0  0  0  0  0
    8.3707    7.6181   22.3693 C   0  0  0  0  0  0  0  0  0  0  0  0
   10.1386    7.5476   23.9369 C   0  0  0  0  0  0  0  0  0  0  0  0
    9.0911   11.3035   23.5049 C   0  0  0  0  0  0  0  0  0  0  0  0
    8.9736    9.7518   23.5679 C   0  0  0  0  0  0  0  0  0  0  0  0
    7.7667   11.0300   24.9876 C   0  0  0  0  0  0  0  0  0  0  0  0
   12.5525   14.5118   23.0619 C   0  0  0  0  0  0  0  0  0  0  0  0
    6.7823   11.1898   26.1062 C   0  0  0  0  0  0  0  0  0  0  0  0
   11.7516   13.5259   22.2384 C   0  0  0  0  0  0  0  0  0  0  0  0
    3.7051   10.9282   27.2698 N   0  5  0  0  0  0  0  0  0  0  0  0
    5.4416   10.8146   25.6416 N   0  0  0  0  0  0  0  0  0  0  0  0
    4.5400   10.8755   26.4944 N   0  3  0  0  0  0  0  0  0  0  0  0
   10.0394   11.6326   21.2931 O   0  0  0  0  0  0  0  0  0  0  0  0
    9.6638    7.0980   22.6699 O   0  0  0  0  0  0  0  0  0  0  0  0
    8.0173    9.6356   24.6419 O   0  0  0  0  0  0  0  0  0  0  0  0
   10.8190   12.8549   23.0917 O   0  0  0  0  0  0  0  0  0  0  0  0
    9.0374    9.4303   21.4345 H   0  0  0  0  0  0  0  0  0  0  0  0
    7.3906    9.4943   22.0757 H   0  0  0  0  0  0  0  0  0  0  0  0
   10.6304    9.3649   24.9473 H   0  0  0  0  0  0  0  0  0  0  0  0
   11.0681    9.3494   23.2342 H   0  0  0  0  0  0  0  0  0  0  0  0
    9.9257   11.3146   25.6497 H   0  0  0  0  0  0  0  0  0  0  0  0
    9.1493   12.8473   25.2050 H   0  0  0  0  0  0  0  0  0  0  0  0
    7.4673   12.9146   23.7149 H   0  0  0  0  0  0  0  0  0  0  0  0
    6.8649   11.4369   22.9375 H   0  0  0  0  0  0  0  0  0  0  0  0
    7.6532    7.2754   23.1239 H   0  0  0  0  0  0  0  0  0  0  0  0
    8.0592    7.1998   21.4066 H   0  0  0  0  0  0  0  0  0  0  0  0
   11.1114    7.0779   24.1136 H   0  0  0  0  0  0  0  0  0  0  0  0
    9.4596    7.2036   24.7262 H   0  0  0  0  0  0  0  0  0  0  0  0
   11.8988   15.2591   23.5202 H   0  0  0  0  0  0  0  0  0  0  0  0
   13.1066   13.9945   23.8521 H   0  0  0  0  0  0  0  0  0  0  0  0
   13.2921   15.0245   22.4380 H   0  0  0  0  0  0  0  0  0  0  0  0
    6.7544   12.2299   26.4635 H   0  0  0  0  0  0  0  0  0  0  0  0
    7.0499   10.5541   26.9632 H   0  0  0  0  0  0  0  0  0  0  0  0
   12.4113   12.7813   21.7828 H   0  0  0  0  0  0  0  0  0  0  0  0
   11.1981   14.0445   21.4499 H   0  0  0  0  0  0  0  0  0  0  0  0
  1  8  1  0  0  0  0
  1 17  2  0  0  0  0
  1 20  1  0  0  0  0
  2  6  1  0  0  0  0
  2  9  1  0  0  0  0
  3  7  1  0  0  0  0
  3  9  1  0  0  0  0
  4  8  1  0  0  0  0
  4 10  1  0  0  0  0
  5  8  1  0  0  0  0
  5 10  1  0  0  0  0
  6 18  1  0  0  0  0
  7 18  1  0  0  0  0
  8  9  1  0  0  0  0
  9 19  1  0  0  0  0
 10 12  1  0  0  0  0
 10 19  1  0  0  0  0
 11 13  1  0  0  0  0
 12 15  1  0  0  0  0
 13 20  1  0  0  0  0
 14 16  2  0  0  0  0
 15 16  2  0  0  0  0
  2 21  1  0  0  0  0
  2 22  1  0  0  0  0
  3 23  1  0  0  0  0
  3 24  1  0  0  0  0
  4 25  1  0  0  0  0
  4 26  1  0  0  0  0
  5 27  1  0  0  0  0
  5 28  1  0  0  0  0
  6 29  1  0  0  0  0
  6 30  1  0  0  0  0
  7 31  1  0  0  0  0
  7 32  1  0  0  0  0
 11 33  1  0  0  0  0
 11 34  1  0  0  0  0
 11 35  1  0  0  0  0
 12 36  1  0  0  0  0
 12 37  1  0  0  0  0
 13 38  1  0  0  0  0
 13 39  1  0  0  0  0
M  CHG  2  14  -1  16   1
M  END
> <id>
EN300-1718330

> <smiles>
CCOC(=O)C1(CC2(CN=[N+]=[N-])C1)C3(CCOCC3)O2

> <MDLNUMBER>
MFCD31690108

> <IUPAC Name>
ethyl 4-(azidomethyl)-3-oxaspiro[bicyclo[2.1.1]hexane-2,4'-oxane]-1-carboxylate

> <CAS>
2225146-56-3

> <Purity>
95

> <URL>
https://www.enaminestore.com/catalog/EN300-1718330

> <ROCS_ShapeQuery>
x0812_0A_x1140_0A_x1097_0A_x0365_0A_x1097_0A_x0310_0A

> <ROCS_TanimotoCombo>
0.732 

> <ROCS_ShapeTanimoto>
0.271 

> <ROCS_ColorTanimoto>
0.461 

> <ROCS_RefTversky>
0.242 

> <ROCS_RefColorTversky>
0.547 

> <ROCS_RefTverskyCombo>
0.790 

> <ROCS_FitTversky>
1.778 

> <ROCS_FitColorTversky>
0.744 

> <ROCS_FitTverskyCombo>
2.521 

> <ROCS_ColorScore>
-8.165

> <ROCS_Overlap>
2453.355

> <ROCS_Rank>
77                  

$$$$
untitled-dbase-324790_4
  -OEChem-02092408543D

 31 33  0     0  0  0  0  0  0999 V2000
   13.6502   14.9155   20.6143 C   0  0  0  0  0  0  0  0  0  0  0  0
   13.5142   15.1252   21.9865 C   0  0  0  0  0  0  0  0  0  0  0  0
   12.8358   13.9866   19.9665 C   0  0  0  0  0  0  0  0  0  0  0  0
   12.5638   14.4058   22.7111 C   0  0  0  0  0  0  0  0  0  0  0  0
   11.8854   13.2672   20.6911 C   0  0  0  0  0  0  0  0  0  0  0  0
   11.7494   13.4769   22.0634 C   0  0  0  0  0  0  0  0  0  0  0  0
    9.9004   11.7912   22.3165 C   0  0  0  0  0  0  0  0  0  0  0  0
    9.1895   11.7654   24.9034 C   0  0  0  0  0  0  0  0  0  0  0  0
    7.5503   11.7448   23.6093 C   0  0  0  0  0  0  0  0  0  0  0  0
    8.9232    9.7097   23.5877 C   0  0  0  0  0  0  0  0  0  0  0  0
    9.0276   11.2420   23.4312 C   0  0  0  0  0  0  0  0  0  0  0  0
    7.7948   11.0368   24.9964 C   0  0  0  0  0  0  0  0  0  0  0  0
    6.8748   11.2585   26.1581 C   0  0  0  0  0  0  0  0  0  0  0  0
   10.7853   12.7473   22.7987 N   0  0  0  0  0  0  0  0  0  0  0  0
    9.7780   11.3858   21.1652 O   0  0  0  0  0  0  0  0  0  0  0  0
    8.0346    9.6306   24.7151 O   0  0  0  0  0  0  0  0  0  0  0  0
   14.3895   15.4760   20.0496 H   0  0  0  0  0  0  0  0  0  0  0  0
   14.1474   15.8490   22.4910 H   0  0  0  0  0  0  0  0  0  0  0  0
   12.9413   13.8243   18.8977 H   0  0  0  0  0  0  0  0  0  0  0  0
   12.4667   14.5778   23.7802 H   0  0  0  0  0  0  0  0  0  0  0  0
   11.2562   12.5459   20.1756 H   0  0  0  0  0  0  0  0  0  0  0  0
    9.9986   11.3184   25.4888 H   0  0  0  0  0  0  0  0  0  0  0  0
    9.1956   12.8517   25.0472 H   0  0  0  0  0  0  0  0  0  0  0  0
    7.3923   12.8290   23.6239 H   0  0  0  0  0  0  0  0  0  0  0  0
    6.8001   11.2786   22.9640 H   0  0  0  0  0  0  0  0  0  0  0  0
    8.4649    9.2264   22.7202 H   0  0  0  0  0  0  0  0  0  0  0  0
    9.8811    9.2442   23.8370 H   0  0  0  0  0  0  0  0  0  0  0  0
    5.9524   10.6704   26.0531 H   0  0  0  0  0  0  0  0  0  0  0  0
    6.5879   12.3159   26.2424 H   0  0  0  0  0  0  0  0  0  0  0  0
    7.3508   10.9657   27.1043 H   0  0  0  0  0  0  0  0  0  0  0  0
   10.7466   12.9562   23.7942 H   0  0  0  0  0  0  0  0  0  0  0  0
  1  2  1  0  0  0  0
  1  3  2  0  0  0  0
  2  4  2  0  0  0  0
  3  5  1  0  0  0  0
  4  6  1  0  0  0  0
  5  6  2  0  0  0  0
  6 14  1  0  0  0  0
  7 11  1  0  0  0  0
  7 14  1  0  0  0  0
  7 15  2  0  0  0  0
  8 11  1  0  0  0  0
  8 12  1  0  0  0  0
  9 11  1  0  0  0  0
  9 12  1  0  0  0  0
 10 11  1  0  0  0  0
 10 16  1  0  0  0  0
 12 13  1  0  0  0  0
 12 16  1  0  0  0  0
  1 17  1  0  0  0  0
  2 18  1  0  0  0  0
  3 19  1  0  0  0  0
  4 20  1  0  0  0  0
  5 21  1  0  0  0  0
  8 22  1  0  0  0  0
  8 23  1  0  0  0  0
  9 24  1  0  0  0  0
  9 25  1  0  0  0  0
 10 26  1  0  0  0  0
 10 27  1  0  0  0  0
 13 28  1  0  0  0  0
 13 29  1  0  0  0  0
 13 30  1  0  0  0  0
 14 31  1  0  0  0  0
M  END
> <id>
EN300-7435851

> <smiles>
CC1(CC2(C1)C(=O)NC=3C=CC=CC3)OC2

> <IUPAC Name>
1-methyl-N-phenyl-2-oxabicyclo[2.1.1]hexane-4-carboxamide

> <CAS>
2375271-34-2

> <URL>
https://www.enaminestore.com/catalog/EN300-7435851

> <ROCS_ShapeQuery>
x0812_0A_x1140_0A_x1097_0A_x0365_0A_x1097_0A_x0310_0A

> <ROCS_TanimotoCombo>
0.731 

> <ROCS_ShapeTanimoto>
0.223 

> <ROCS_ColorTanimoto>
0.508 

> <ROCS_RefTversky>
0.205 

> <ROCS_RefColorTversky>
0.585 

> <ROCS_RefTverskyCombo>
0.790 

> <ROCS_FitTversky>
1.697 

> <ROCS_FitColorTversky>
0.794 

> <ROCS_FitTverskyCombo>
2.490 

> <ROCS_ColorScore>
-8.730

> <ROCS_Overlap>
2069.392

> <ROCS_Rank>
78                  

$$$$
untitled-dbase-488418_0
  -OEChem-02092408543D

 17 18  0     0  0  0  0  0  0999 V2000
    7.5373   10.5043   23.5462 C   0  0  0  0  0  0  0  0  0  0  0  0
    9.1382   11.8880   23.7716 C   0  0  0  0  0  0  0  0  0  0  0  0
    8.6829   10.5218   25.3396 C   0  0  0  0  0  0  0  0  0  0  0  0
    7.8658   11.5906   24.5882 C   0  0  0  0  0  0  0  0  0  0  0  0
    9.0577   10.3337   23.8393 C   0  0  0  0  0  0  0  0  0  0  0  0
    6.9288   12.5786   25.1770 C   0  0  0  0  0  0  0  0  0  0  0  0
    9.9410    9.3969   23.2797 O   0  0  0  0  0  0  0  0  0  0  0  0
    5.9077   11.9738   25.8355 F   0  0  0  0  0  0  0  0  0  0  0  0
    7.5500   13.3934   26.0670 F   0  0  0  0  0  0  0  0  0  0  0  0
    6.3746   13.3745   24.2275 F   0  0  0  0  0  0  0  0  0  0  0  0
    6.8730    9.6927   23.8601 H   0  0  0  0  0  0  0  0  0  0  0  0
    7.2555   10.8403   22.5431 H   0  0  0  0  0  0  0  0  0  0  0  0
    9.0070   12.3536   22.7896 H   0  0  0  0  0  0  0  0  0  0  0  0
    9.9700   12.3692   24.2964 H   0  0  0  0  0  0  0  0  0  0  0  0
    9.4716   10.8743   26.0117 H   0  0  0  0  0  0  0  0  0  0  0  0
    8.1264    9.7117   25.8217 H   0  0  0  0  0  0  0  0  0  0  0  0
   10.8228    9.5498   23.6690 H   0  0  0  0  0  0  0  0  0  0  0  0
  1  4  1  0  0  0  0
  1  5  1  0  0  0  0
  2  4  1  0  0  0  0
  2  5  1  0  0  0  0
  3  4  1  0  0  0  0
  3  5  1  0  0  0  0
  4  6  1  0  0  0  0
  5  7  1  0  0  0  0
  6  8  1  0  0  0  0
  6  9  1  0  0  0  0
  6 10  1  0  0  0  0
  1 11  1  0  0  0  0
  1 12  1  0  0  0  0
  2 13  1  0  0  0  0
  2 14  1  0  0  0  0
  3 15  1  0  0  0  0
  3 16  1  0  0  0  0
  7 17  1  0  0  0  0
M  END
> <id>
EN300-22133888

> <smiles>
OC1(CC2(C1)C(F)(F)F)C2

> <MDLNUMBER>
MFCD18826719

> <IUPAC Name>
3-(trifluoromethyl)bicyclo[1.1.1]pentan-1-ol

> <CAS>
585532-19-0

> <Purity>
95

> <URL>
https://www.enaminestore.com/catalog/EN300-22133888

> <ROCS_ShapeQuery>
x0812_0A_x1140_0A_x1097_0A_x0365_0A_x1097_0A_x0310_0A

> <ROCS_TanimotoCombo>
0.731 

> <ROCS_ShapeTanimoto>
0.191 

> <ROCS_ColorTanimoto>
0.540 

> <ROCS_RefTversky>
0.175 

> <ROCS_RefColorTversky>
0.582 

> <ROCS_RefTverskyCombo>
0.757 

> <ROCS_FitTversky>
1.848 

> <ROCS_FitColorTversky>
0.882 

> <ROCS_FitTverskyCombo>
2.730 

> <ROCS_ColorScore>
-8.646

> <ROCS_Overlap>
1771.926

> <ROCS_Rank>
79                  

$$$$
untitled-dbase-40659_0
  -OEChem-02092408543D

 28 29  0     1  0  0  0  0  0999 V2000
    9.2557   11.3558   22.7019 C   0  0  0  0  0  0  0  0  0  0  0  0
    7.9031   11.9837   23.0227 C   0  0  0  0  0  0  0  0  0  0  0  0
    8.4369   11.7184   25.4779 C   0  0  0  0  0  0  0  0  0  0  0  0
    7.3465   11.5408   24.3843 C   0  0  2  0  0  0  0  0  0  0  0  0
    8.9536   10.3188   25.0043 C   0  0  2  0  0  0  0  0  0  0  0  0
    9.8816   10.4717   23.7855 C   0  0  2  0  0  0  0  0  0  0  0  0
    7.4258    9.9904   24.6896 C   0  0  0  0  0  0  0  0  0  0  0  0
   11.2378   11.0346   24.2111 C   0  0  0  0  0  0  0  0  0  0  0  0
    7.0916    9.0494   23.5278 C   0  0  0  0  0  0  0  0  0  0  0  0
    6.6158    9.5213   25.9146 C   0  0  0  0  0  0  0  0  0  0  0  0
    9.8035   11.5467   21.6166 O   0  0  0  0  0  0  0  0  0  0  0  0
   10.0951    9.1824   23.2241 O   0  0  0  0  0  0  0  0  0  0  0  0
    8.0281   13.0721   23.0120 H   0  0  0  0  0  0  0  0  0  0  0  0
    7.2010   11.7098   22.2283 H   0  0  0  0  0  0  0  0  0  0  0  0
    9.1038   12.5773   25.3579 H   0  0  0  0  0  0  0  0  0  0  0  0
    8.0666   11.7566   26.5079 H   0  0  0  0  0  0  0  0  0  0  0  0
    6.3853   12.0137   24.6105 H   0  0  0  0  0  0  0  0  0  0  0  0
    9.3949    9.7046   25.7978 H   0  0  0  0  0  0  0  0  0  0  0  0
   11.6740   10.4003   24.9804 H   0  0  0  0  0  0  0  0  0  0  0  0
   11.1106   12.0405   24.6064 H   0  0  0  0  0  0  0  0  0  0  0  0
   11.9070   11.0689   23.3535 H   0  0  0  0  0  0  0  0  0  0  0  0
    7.1804    8.0173   23.8576 H   0  0  0  0  0  0  0  0  0  0  0  0
    7.7815    9.2257   22.7062 H   0  0  0  0  0  0  0  0  0  0  0  0
    6.0746    9.2339   23.1905 H   0  0  0  0  0  0  0  0  0  0  0  0
    6.7390    8.4508   26.0325 H   0  0  0  0  0  0  0  0  0  0  0  0
    5.5692    9.7561   25.7588 H   0  0  0  0  0  0  0  0  0  0  0  0
    6.9803   10.0330   26.7980 H   0  0  0  0  0  0  0  0  0  0  0  0
   10.6944    9.3021   22.4702 H   0  0  0  0  0  0  0  0  0  0  0  0
  1  2  1  0  0  0  0
  1  6  1  0  0  0  0
  1 11  2  0  0  0  0
  2  4  1  0  0  0  0
  3  4  1  0  0  0  0
  3  5  1  0  0  0  0
  4  7  1  0  0  0  0
  5  6  1  0  0  0  0
  5  7  1  0  0  0  0
  6  8  1  0  0  0  0
  6 12  1  6  0  0  0
  7  9  1  0  0  0  0
  7 10  1  0  0  0  0
  2 13  1  0  0  0  0
  2 14  1  0  0  0  0
  3 15  1  0  0  0  0
  3 16  1  0  0  0  0
  4 17  1  0  0  0  0
  5 18  1  0  0  0  0
  8 19  1  0  0  0  0
  8 20  1  0  0  0  0
  8 21  1  0  0  0  0
  9 22  1  0  0  0  0
  9 23  1  0  0  0  0
  9 24  1  0  0  0  0
 10 25  1  0  0  0  0
 10 26  1  0  0  0  0
 10 27  1  0  0  0  0
 12 28  1  0  0  0  0
M  END
> <id>
EN300-203716

> <smiles>
CC1(C)C2CC1[C@@](C)(O)C(=O)C2

> <MDLNUMBER>
MFCD28397392

> <IUPAC Name>
(2R)-2-hydroxy-2,6,6-trimethylbicyclo[3.1.1]heptan-3-one

> <CAS>
1807938-57-3

> <Purity>
95

> <URL>
https://www.enaminestore.com/catalog/EN300-203716

> <ROCS_ShapeQuery>
x0812_0A_x1140_0A_x1097_0A_x0365_0A_x1097_0A_x0310_0A

> <ROCS_TanimotoCombo>
0.730 

> <ROCS_ShapeTanimoto>
0.204 

> <ROCS_ColorTanimoto>
0.526 

> <ROCS_RefTversky>
0.187 

> <ROCS_RefColorTversky>
0.584 

> <ROCS_RefTverskyCombo>
0.771 

> <ROCS_FitTversky>
1.842 

> <ROCS_FitColorTversky>
0.842 

> <ROCS_FitTverskyCombo>
2.684 

> <ROCS_ColorScore>
-8.686

> <ROCS_Overlap>
1889.739

> <ROCS_Rank>
80                  

$$$$
untitled-dbase-311230_1
  -OEChem-02092408543D

 25 26  0     1  0  0  0  0  0999 V2000
    9.4646   12.1479   22.2870 C   0  0  0  0  0  0  0  0  0  0  0  0
    9.7378   10.8924   24.9463 C   0  0  0  0  0  0  0  0  0  0  0  0
    7.4034   11.6522   25.3856 C   0  0  0  0  0  0  0  0  0  0  0  0
    8.3537   11.9127   23.2616 C   0  0  2  0  0  0  0  0  0  0  0  0
    8.7350   12.0468   24.7309 C   0  0  2  0  0  0  0  0  0  0  0  0
    7.9179   10.4596   23.4317 C   0  0  1  0  0  0  0  0  0  0  0  0
    9.1313    9.7698   24.0898 C   0  0  1  0  0  0  0  0  0  0  0  0
   10.9162   13.8187   21.4593 C   0  0  0  0  0  0  0  0  0  0  0  0
    6.8832   10.5895   24.4878 N   0  0  0  0  0  0  0  0  0  0  0  0
    9.9339   11.2821   21.5609 O   0  0  0  0  0  0  0  0  0  0  0  0
   10.0680    9.3415   23.1121 O   0  0  0  0  0  0  0  0  0  0  0  0
    9.8533   13.4535   22.3452 O   0  0  0  0  0  0  0  0  0  0  0  0
   10.7433   11.1678   24.6092 H   0  0  0  0  0  0  0  0  0  0  0  0
    9.7971   10.6073   26.0020 H   0  0  0  0  0  0  0  0  0  0  0  0
    7.5258   11.2894   26.4112 H   0  0  0  0  0  0  0  0  0  0  0  0
    6.6998   12.4915   25.3896 H   0  0  0  0  0  0  0  0  0  0  0  0
    7.5254   12.5740   22.9763 H   0  0  0  0  0  0  0  0  0  0  0  0
    9.1169   13.0214   25.0418 H   0  0  0  0  0  0  0  0  0  0  0  0
    7.5598    9.9741   22.5206 H   0  0  0  0  0  0  0  0  0  0  0  0
    8.8578    8.8983   24.6947 H   0  0  0  0  0  0  0  0  0  0  0  0
   11.1486   14.8790   21.5853 H   0  0  0  0  0  0  0  0  0  0  0  0
   10.6158   13.6208   20.4272 H   0  0  0  0  0  0  0  0  0  0  0  0
   11.8001   13.2232   21.7000 H   0  0  0  0  0  0  0  0  0  0  0  0
    6.7863    9.7143   25.0008 H   0  0  0  0  0  0  0  0  0  0  0  0
   10.8481    9.0187   23.5923 H   0  0  0  0  0  0  0  0  0  0  0  0
  1  4  1  6  0  0  0
  1 10  2  0  0  0  0
  1 12  1  0  0  0  0
  2  5  1  0  0  0  0
  2  7  1  0  0  0  0
  3  5  1  1  0  0  0
  3  9  1  0  0  0  0
  4  5  1  0  0  0  0
  4  6  1  0  0  0  0
  6  7  1  0  0  0  0
  6  9  1  1  0  0  0
  7 11  1  6  0  0  0
  8 12  1  0  0  0  0
  2 13  1  0  0  0  0
  2 14  1  0  0  0  0
  3 15  1  0  0  0  0
  3 16  1  0  0  0  0
  4 17  1  0  0  0  0
  5 18  1  0  0  0  0
  6 19  1  0  0  0  0
  7 20  1  0  0  0  0
  8 21  1  0  0  0  0
  8 22  1  0  0  0  0
  8 23  1  0  0  0  0
  9 24  1  0  0  0  0
 11 25  1  0  0  0  0
M  END
> <id>
EN300-7444891

> <smiles>
Cl.COC(=O)[C@@H]1[C@H]2CN[C@@H]1[C@@H](O)C2 |&1:5,6,9,10,r|

> <IUPAC Name>
rac-methyl (1R,4R,6R,7S)-6-hydroxy-2-azabicyclo[2.2.1]heptane-7-carboxylate hydrochloride

> <CAS>
2375249-51-5

> <Purity>
95

> <URL>
https://www.enaminestore.com/catalog/EN300-7444891

> <Saltdate>
Cl

> <ROCS_ShapeQuery>
x0812_0A_x1140_0A_x1097_0A_x0365_0A_x1097_0A_x0310_0A

> <ROCS_TanimotoCombo>
0.730 

> <ROCS_ShapeTanimoto>
0.220 

> <ROCS_ColorTanimoto>
0.511 

> <ROCS_RefTversky>
0.199 

> <ROCS_RefColorTversky>
0.599 

> <ROCS_RefTverskyCombo>
0.798 

> <ROCS_FitTversky>
1.929 

> <ROCS_FitColorTversky>
0.775 

> <ROCS_FitTverskyCombo>
2.705 

> <ROCS_ColorScore>
-8.958

> <ROCS_Overlap>
2007.902

> <ROCS_Rank>
81                  

$$$$
untitled-dbase-360111_1
  -OEChem-02092408543D

 25 26  0     1  0  0  0  0  0999 V2000
    9.4646   12.1479   22.2870 C   0  0  0  0  0  0  0  0  0  0  0  0
    9.7378   10.8924   24.9463 C   0  0  0  0  0  0  0  0  0  0  0  0
    7.4034   11.6522   25.3856 C   0  0  0  0  0  0  0  0  0  0  0  0
    8.3537   11.9127   23.2616 C   0  0  2  0  0  0  0  0  0  0  0  0
    8.7350   12.0468   24.7309 C   0  0  2  0  0  0  0  0  0  0  0  0
    7.9179   10.4596   23.4317 C   0  0  1  0  0  0  0  0  0  0  0  0
    9.1313    9.7698   24.0898 C   0  0  1  0  0  0  0  0  0  0  0  0
   10.9162   13.8187   21.4593 C   0  0  0  0  0  0  0  0  0  0  0  0
    6.8832   10.5895   24.4878 N   0  0  0  0  0  0  0  0  0  0  0  0
    9.9339   11.2821   21.5609 O   0  0  0  0  0  0  0  0  0  0  0  0
   10.0680    9.3415   23.1121 O   0  0  0  0  0  0  0  0  0  0  0  0
    9.8533   13.4535   22.3452 O   0  0  0  0  0  0  0  0  0  0  0  0
   10.7433   11.1678   24.6092 H   0  0  0  0  0  0  0  0  0  0  0  0
    9.7971   10.6073   26.0020 H   0  0  0  0  0  0  0  0  0  0  0  0
    7.5258   11.2894   26.4112 H   0  0  0  0  0  0  0  0  0  0  0  0
    6.6998   12.4915   25.3896 H   0  0  0  0  0  0  0  0  0  0  0  0
    7.5254   12.5740   22.9763 H   0  0  0  0  0  0  0  0  0  0  0  0
    9.1169   13.0214   25.0418 H   0  0  0  0  0  0  0  0  0  0  0  0
    7.5598    9.9741   22.5206 H   0  0  0  0  0  0  0  0  0  0  0  0
    8.8578    8.8983   24.6947 H   0  0  0  0  0  0  0  0  0  0  0  0
   11.1486   14.8790   21.5853 H   0  0  0  0  0  0  0  0  0  0  0  0
   10.6158   13.6208   20.4272 H   0  0  0  0  0  0  0  0  0  0  0  0
   11.8001   13.2232   21.7000 H   0  0  0  0  0  0  0  0  0  0  0  0
    6.7863    9.7143   25.0008 H   0  0  0  0  0  0  0  0  0  0  0  0
   10.8481    9.0187   23.5923 H   0  0  0  0  0  0  0  0  0  0  0  0
  1  4  1  6  0  0  0
  1 10  2  0  0  0  0
  1 12  1  0  0  0  0
  2  5  1  0  0  0  0
  2  7  1  0  0  0  0
  3  5  1  1  0  0  0
  3  9  1  0  0  0  0
  4  5  1  0  0  0  0
  4  6  1  0  0  0  0
  6  7  1  0  0  0  0
  6  9  1  1  0  0  0
  7 11  1  6  0  0  0
  8 12  1  0  0  0  0
  2 13  1  0  0  0  0
  2 14  1  0  0  0  0
  3 15  1  0  0  0  0
  3 16  1  0  0  0  0
  4 17  1  0  0  0  0
  5 18  1  0  0  0  0
  6 19  1  0  0  0  0
  7 20  1  0  0  0  0
  8 21  1  0  0  0  0
  8 22  1  0  0  0  0
  8 23  1  0  0  0  0
  9 24  1  0  0  0  0
 11 25  1  0  0  0  0
M  END
> <id>
EN300-7444892

> <smiles>
COC(=O)[C@@H]1[C@H]2CN[C@@H]1[C@@H](O)C2 |&1:4,5,8,9,r|

> <IUPAC Name>
rac-methyl (1R,4R,6R,7S)-6-hydroxy-2-azabicyclo[2.2.1]heptane-7-carboxylate

> <CAS>
2375248-27-2

> <URL>
https://www.enaminestore.com/catalog/EN300-7444892

> <ROCS_ShapeQuery>
x0812_0A_x1140_0A_x1097_0A_x0365_0A_x1097_0A_x0310_0A

> <ROCS_TanimotoCombo>
0.730 

> <ROCS_ShapeTanimoto>
0.220 

> <ROCS_ColorTanimoto>
0.511 

> <ROCS_RefTversky>
0.199 

> <ROCS_RefColorTversky>
0.599 

> <ROCS_RefTverskyCombo>
0.798 

> <ROCS_FitTversky>
1.929 

> <ROCS_FitColorTversky>
0.775 

> <ROCS_FitTverskyCombo>
2.705 

> <ROCS_ColorScore>
-8.958

> <ROCS_Overlap>
2007.902

> <ROCS_Rank>
82                  

$$$$
untitled-dbase-567885_8
  -OEChem-02092408543D

 23 24  0     0  0  0  0  0  0999 V2000
    8.8397   11.8143   25.2026 C   0  0  0  0  0  0  0  0  0  0  0  0
    7.7043   11.7987   23.4422 C   0  0  0  0  0  0  0  0  0  0  0  0
    9.2851    9.9308   23.6855 C   0  0  0  0  0  0  0  0  0  0  0  0
    9.2204   11.4735   23.7137 C   0  0  0  0  0  0  0  0  0  0  0  0
    7.5998   10.9416   24.7636 C   0  0  0  0  0  0  0  0  0  0  0  0
    6.3407   10.9140   25.5755 C   0  0  0  0  0  0  0  0  0  0  0  0
   10.3136   12.2119   23.0020 C   0  0  0  0  0  0  0  0  0  0  0  0
    5.7476   13.4239   25.1054 O   0  0  0  0  0  0  0  0  0  0  0  0
    6.8285   12.8147   27.3139 O   0  0  0  0  0  0  0  0  0  0  0  0
    8.1076    9.6159   24.4478 O   0  0  0  0  0  0  0  0  0  0  0  0
   11.4964   12.0661   23.6397 F   0  0  0  0  0  0  0  0  0  0  0  0
   10.4681   11.7565   21.7389 F   0  0  0  0  0  0  0  0  0  0  0  0
   10.0440   13.5345   22.9326 F   0  0  0  0  0  0  0  0  0  0  0  0
    5.9326   12.5112   26.2159 S   0  0  0  0  0  0  0  0  0  0  0  0
    4.0815   12.3382   27.0740 Cl  0  0  0  0  0  0  0  0  0  0  0  0
    9.4812   11.3815   25.9758 H   0  0  0  0  0  0  0  0  0  0  0  0
    8.6483   12.8673   25.4374 H   0  0  0  0  0  0  0  0  0  0  0  0
    7.4027   12.8501   23.5058 H   0  0  0  0  0  0  0  0  0  0  0  0
    7.2686   11.3504   22.5446 H   0  0  0  0  0  0  0  0  0  0  0  0
    9.1927    9.5220   22.6752 H   0  0  0  0  0  0  0  0  0  0  0  0
   10.1706    9.5350   24.1910 H   0  0  0  0  0  0  0  0  0  0  0  0
    6.4311   10.2434   26.4409 H   0  0  0  0  0  0  0  0  0  0  0  0
    5.4796   10.5871   24.9771 H   0  0  0  0  0  0  0  0  0  0  0  0
  1  4  1  0  0  0  0
  1  5  1  0  0  0  0
  2  4  1  0  0  0  0
  2  5  1  0  0  0  0
  3  4  1  0  0  0  0
  3 10  1  0  0  0  0
  4  7  1  1  0  0  0
  5  6  1  1  0  0  0
  5 10  1  0  0  0  0
  6 14  1  0  0  0  0
  7 11  1  0  0  0  0
  7 12  1  0  0  0  0
  7 13  1  0  0  0  0
  8 14  2  0  0  0  0
  9 14  2  0  0  0  0
 14 15  1  0  0  0  0
  1 16  1  0  0  0  0
  1 17  1  0  0  0  0
  2 18  1  0  0  0  0
  2 19  1  0  0  0  0
  3 20  1  0  0  0  0
  3 21  1  0  0  0  0
  6 22  1  0  0  0  0
  6 23  1  0  0  0  0
M  END
> <id>
EN300-37375410

> <smiles>
FC(F)(F)[C@]1(C[C@@]2(CS(=O)(=O)Cl)C1)CO2

> <IUPAC Name>
[(1r,4r)-4-(trifluoromethyl)-2-oxabicyclo[2.1.1]hexan-1-yl]methanesulfonyl chloride

> <CAS>
2551118-56-8

> <URL>
https://www.enaminestore.com/catalog/EN300-37375410

> <ROCS_ShapeQuery>
x0812_0A_x1140_0A_x1097_0A_x0365_0A_x1097_0A_x0310_0A

> <ROCS_TanimotoCombo>
0.730 

> <ROCS_ShapeTanimoto>
0.257 

> <ROCS_ColorTanimoto>
0.473 

> <ROCS_RefTversky>
0.228 

> <ROCS_RefColorTversky>
0.498 

> <ROCS_RefTverskyCombo>
0.726 

> <ROCS_FitTversky>
2.010 

> <ROCS_FitColorTversky>
0.904 

> <ROCS_FitTverskyCombo>
2.913 

> <ROCS_ColorScore>
-7.361

> <ROCS_Overlap>
2302.128

> <ROCS_Rank>
83                  

$$$$
untitled-dbase-211433_0
  -OEChem-02092408543D

 20 21  0     0  0  0  0  0  0999 V2000
    8.6899   10.5264   25.3374 C   0  0  0  0  0  0  0  0  0  0  0  0
    7.5320   10.4979   23.5521 C   0  0  0  0  0  0  0  0  0  0  0  0
    9.1317   11.8869   23.7616 C   0  0  0  0  0  0  0  0  0  0  0  0
    7.8650   11.5897   24.5872 C   0  0  0  0  0  0  0  0  0  0  0  0
    9.0549   10.3327   23.8354 C   0  0  0  0  0  0  0  0  0  0  0  0
    6.2714   13.4863   24.1820 C   0  0  0  0  0  0  0  0  0  0  0  0
    6.9296   12.5779   25.1783 C   0  0  0  0  0  0  0  0  0  0  0  0
    9.9411    9.3960   23.2803 O   0  0  0  0  0  0  0  0  0  0  0  0
    7.5806   13.3591   26.0933 F   0  0  0  0  0  0  0  0  0  0  0  0
    5.9441   11.9382   25.8789 F   0  0  0  0  0  0  0  0  0  0  0  0
    9.4822   10.8839   26.0029 H   0  0  0  0  0  0  0  0  0  0  0  0
    8.1384    9.7172   25.8269 H   0  0  0  0  0  0  0  0  0  0  0  0
    6.8722    9.6858   23.8738 H   0  0  0  0  0  0  0  0  0  0  0  0
    7.2427   10.8288   22.5494 H   0  0  0  0  0  0  0  0  0  0  0  0
    8.9929   12.3484   22.7789 H   0  0  0  0  0  0  0  0  0  0  0  0
    9.9657   12.3718   24.2791 H   0  0  0  0  0  0  0  0  0  0  0  0
    5.5992   14.1835   24.6930 H   0  0  0  0  0  0  0  0  0  0  0  0
    5.6972   12.8996   23.4574 H   0  0  0  0  0  0  0  0  0  0  0  0
    7.0177   14.0717   23.6330 H   0  0  0  0  0  0  0  0  0  0  0  0
    9.9502    9.5314   22.3138 H   0  0  0  0  0  0  0  0  0  0  0  0
  1  4  1  0  0  0  0
  1  5  1  0  0  0  0
  2  4  1  0  0  0  0
  2  5  1  0  0  0  0
  3  4  1  0  0  0  0
  3  5  1  0  0  0  0
  4  7  1  0  0  0  0
  5  8  1  0  0  0  0
  6  7  1  0  0  0  0
  7  9  1  0  0  0  0
  7 10  1  0  0  0  0
  1 11  1  0  0  0  0
  1 12  1  0  0  0  0
  2 13  1  0  0  0  0
  2 14  1  0  0  0  0
  3 15  1  0  0  0  0
  3 16  1  0  0  0  0
  6 17  1  0  0  0  0
  6 18  1  0  0  0  0
  6 19  1  0  0  0  0
  8 20  1  0  0  0  0
M  END
> <id>
EN300-37299479

> <smiles>
CC(F)(F)C1(CC2(O)C1)C2

> <MDLNUMBER>
MFCD34594577

> <IUPAC Name>
3-(1,1-difluoroethyl)bicyclo[1.1.1]pentan-1-ol

> <CAS>
2751620-81-0

> <Purity>
95

> <URL>
https://www.enaminestore.com/catalog/EN300-37299479

> <ROCS_ShapeQuery>
x0812_0A_x1140_0A_x1097_0A_x0365_0A_x1097_0A_x0310_0A

> <ROCS_TanimotoCombo>
0.730 

> <ROCS_ShapeTanimoto>
0.190 

> <ROCS_ColorTanimoto>
0.540 

> <ROCS_RefTversky>
0.175 

> <ROCS_RefColorTversky>
0.582 

> <ROCS_RefTverskyCombo>
0.757 

> <ROCS_FitTversky>
1.854 

> <ROCS_FitColorTversky>
0.882 

> <ROCS_FitTverskyCombo>
2.736 

> <ROCS_ColorScore>
-8.646

> <ROCS_Overlap>
1765.485

> <ROCS_Rank>
84                  

$$$$
untitled-dbase-497173_2
  -OEChem-02092408543D

 34 35  0     0  0  0  0  0  0999 V2000
   10.4937   12.0992   21.6804 C   0  0  0  0  0  0  0  0  0  0  0  0
    8.9390   11.7866   25.2299 C   0  0  0  0  0  0  0  0  0  0  0  0
    7.6874   11.8869   23.5579 C   0  0  0  0  0  0  0  0  0  0  0  0
    9.2470    9.9820   23.5834 C   0  0  0  0  0  0  0  0  0  0  0  0
    9.1908   11.5051   23.7176 C   0  0  0  0  0  0  0  0  0  0  0  0
    7.6522   10.9523   24.8354 C   0  0  0  0  0  0  0  0  0  0  0  0
   10.6925   13.2083   19.0574 C   0  0  0  0  0  0  0  0  0  0  0  0
   12.9921   13.9482   19.7455 C   0  0  0  0  0  0  0  0  0  0  0  0
   12.4369   11.4999   19.6679 C   0  0  0  0  0  0  0  0  0  0  0  0
    6.4521   10.8945   25.7300 C   0  0  0  0  0  0  0  0  0  0  0  0
   11.8975   12.9023   19.9457 C   0  0  0  0  0  0  0  0  0  0  0  0
   10.1878   12.2651   23.0208 N   0  0  0  0  0  0  0  0  0  0  0  0
    9.9606   11.2934   20.9247 O   0  0  0  0  0  0  0  0  0  0  0  0
    8.1170    9.6371   24.4082 O   0  0  0  0  0  0  0  0  0  0  0  0
   11.4828   12.9684   21.3148 O   0  0  0  0  0  0  0  0  0  0  0  0
    6.8079   10.3441   26.9254 F   0  0  0  0  0  0  0  0  0  0  0  0
    9.6222   11.3027   25.9340 H   0  0  0  0  0  0  0  0  0  0  0  0
    8.7847   12.8290   25.5297 H   0  0  0  0  0  0  0  0  0  0  0  0
    7.4163   12.9385   23.7020 H   0  0  0  0  0  0  0  0  0  0  0  0
    7.1796   11.4983   22.6703 H   0  0  0  0  0  0  0  0  0  0  0  0
    9.0771    9.6331   22.5609 H   0  0  0  0  0  0  0  0  0  0  0  0
   10.1574    9.5455   24.0040 H   0  0  0  0  0  0  0  0  0  0  0  0
    9.9045   12.4598   19.1981 H   0  0  0  0  0  0  0  0  0  0  0  0
   10.2746   14.1975   19.2711 H   0  0  0  0  0  0  0  0  0  0  0  0
   10.9685   13.1709   17.9973 H   0  0  0  0  0  0  0  0  0  0  0  0
   13.8587   13.7325   20.3809 H   0  0  0  0  0  0  0  0  0  0  0  0
   12.6378   14.9442   20.0344 H   0  0  0  0  0  0  0  0  0  0  0  0
   13.3272   13.9880   18.7040 H   0  0  0  0  0  0  0  0  0  0  0  0
   13.3013   11.2801   20.3050 H   0  0  0  0  0  0  0  0  0  0  0  0
   11.6753   10.7330   19.8422 H   0  0  0  0  0  0  0  0  0  0  0  0
   12.7863   11.4148   18.6326 H   0  0  0  0  0  0  0  0  0  0  0  0
    5.6536   10.2732   25.3037 H   0  0  0  0  0  0  0  0  0  0  0  0
    6.0454   11.8938   25.9333 H   0  0  0  0  0  0  0  0  0  0  0  0
   10.7038   12.9719   23.5453 H   0  0  0  0  0  0  0  0  0  0  0  0
  1 12  1  0  0  0  0
  1 13  2  0  0  0  0
  1 15  1  0  0  0  0
  2  5  1  0  0  0  0
  2  6  1  0  0  0  0
  3  5  1  0  0  0  0
  3  6  1  0  0  0  0
  4  5  1  0  0  0  0
  4 14  1  0  0  0  0
  5 12  1  0  0  0  0
  6 10  1  0  0  0  0
  6 14  1  0  0  0  0
  7 11  1  0  0  0  0
  8 11  1  0  0  0  0
  9 11  1  0  0  0  0
 10 16  1  0  0  0  0
 11 15  1  0  0  0  0
  2 17  1  0  0  0  0
  2 18  1  0  0  0  0
  3 19  1  0  0  0  0
  3 20  1  0  0  0  0
  4 21  1  0  0  0  0
  4 22  1  0  0  0  0
  7 23  1  0  0  0  0
  7 24  1  0  0  0  0
  7 25  1  0  0  0  0
  8 26  1  0  0  0  0
  8 27  1  0  0  0  0
  8 28  1  0  0  0  0
  9 29  1  0  0  0  0
  9 30  1  0  0  0  0
  9 31  1  0  0  0  0
 10 32  1  0  0  0  0
 10 33  1  0  0  0  0
 12 34  1  0  0  0  0
M  END
> <id>
EN300-28275601

> <smiles>
CC(C)(C)OC(=O)NC1(CC2(CF)C1)CO2

> <IUPAC Name>
tert-butyl N-[1-(fluoromethyl)-2-oxabicyclo[2.1.1]hexan-4-yl]carbamate

> <CAS>
2680789-74-4

> <URL>
https://www.enaminestore.com/catalog/EN300-28275601

> <ROCS_ShapeQuery>
x0812_0A_x1140_0A_x1097_0A_x0365_0A_x1097_0A_x0310_0A

> <ROCS_TanimotoCombo>
0.730 

> <ROCS_ShapeTanimoto>
0.219 

> <ROCS_ColorTanimoto>
0.511 

> <ROCS_RefTversky>
0.201 

> <ROCS_RefColorTversky>
0.588 

> <ROCS_RefTverskyCombo>
0.788 

> <ROCS_FitTversky>
1.688 

> <ROCS_FitColorTversky>
0.797 

> <ROCS_FitTverskyCombo>
2.485 

> <ROCS_ColorScore>
-8.765

> <ROCS_Overlap>
2032.278

> <ROCS_Rank>
85                  

$$$$
untitled-dbase-469832_5
  -OEChem-02092408543D

 35 37  0     0  0  0  0  0  0999 V2000
    9.9376   12.1242   22.4791 C   0  0  0  0  0  0  0  0  0  0  0  0
   10.1658    8.1033   22.8854 C   0  0  0  0  0  0  0  0  0  0  0  0
    9.0413    9.0182   22.3572 C   0  0  0  0  0  0  0  0  0  0  0  0
   10.5917    9.2548   23.8199 C   0  0  0  0  0  0  0  0  0  0  0  0
    9.0526   11.8352   24.9982 C   0  0  0  0  0  0  0  0  0  0  0  0
    7.5386   11.6051   23.5689 C   0  0  0  0  0  0  0  0  0  0  0  0
    9.0987   11.3611   23.4905 C   0  0  0  0  0  0  0  0  0  0  0  0
    9.1630    9.8067   23.6729 C   0  0  0  0  0  0  0  0  0  0  0  0
    7.7807   10.8970   24.9617 C   0  0  0  0  0  0  0  0  0  0  0  0
   11.9950   15.0891   23.0836 C   0  0  0  0  0  0  0  0  0  0  0  0
    6.7437   10.9978   26.0434 C   0  0  0  0  0  0  0  0  0  0  0  0
   11.3846   13.9789   22.2551 C   0  0  0  0  0  0  0  0  0  0  0  0
    5.4982   10.4410   25.6055 N   0  0  0  0  0  0  0  0  0  0  0  0
   10.0267   11.8232   21.2965 O   0  0  0  0  0  0  0  0  0  0  0  0
    8.2092    9.5162   24.7302 O   0  0  0  0  0  0  0  0  0  0  0  0
   10.5562   13.1705   23.0967 O   0  0  0  0  0  0  0  0  0  0  0  0
    9.7981    7.2188   23.4182 H   0  0  0  0  0  0  0  0  0  0  0  0
   10.9094    7.7915   22.1477 H   0  0  0  0  0  0  0  0  0  0  0  0
    9.3111    9.5678   21.4493 H   0  0  0  0  0  0  0  0  0  0  0  0
    8.0835    8.5171   22.1906 H   0  0  0  0  0  0  0  0  0  0  0  0
   10.8792    8.9436   24.8283 H   0  0  0  0  0  0  0  0  0  0  0  0
   11.3872    9.8846   23.4081 H   0  0  0  0  0  0  0  0  0  0  0  0
    9.8727   11.4982   25.6391 H   0  0  0  0  0  0  0  0  0  0  0  0
    8.8764   12.9028   25.1725 H   0  0  0  0  0  0  0  0  0  0  0  0
    7.2049   12.6487   23.5945 H   0  0  0  0  0  0  0  0  0  0  0  0
    6.9231   11.0501   22.8549 H   0  0  0  0  0  0  0  0  0  0  0  0
   11.2178   15.7225   23.5203 H   0  0  0  0  0  0  0  0  0  0  0  0
   12.6090   14.6757   23.8905 H   0  0  0  0  0  0  0  0  0  0  0  0
   12.6540   15.7114   22.4692 H   0  0  0  0  0  0  0  0  0  0  0  0
    7.1026   10.4482   26.9216 H   0  0  0  0  0  0  0  0  0  0  0  0
    6.6045   12.0560   26.2942 H   0  0  0  0  0  0  0  0  0  0  0  0
   12.1671   13.3492   21.8212 H   0  0  0  0  0  0  0  0  0  0  0  0
   10.7709   14.3936   21.4499 H   0  0  0  0  0  0  0  0  0  0  0  0
    4.7837   11.1420   25.6398 H   0  0  0  0  0  0  0  0  0  0  0  0
    5.5891   10.1085   24.6652 H   0  0  0  0  0  0  0  0  0  0  0  0
  1  7  1  1  0  0  0
  1 14  2  0  0  0  0
  1 16  1  0  0  0  0
  2  3  1  0  0  0  0
  2  4  1  0  0  0  0
  3  8  1  0  0  0  0
  4  8  1  0  0  0  0
  5  7  1  0  0  0  0
  5  9  1  0  0  0  0
  6  7  1  0  0  0  0
  6  9  1  0  0  0  0
  7  8  1  0  0  0  0
  8 15  1  0  0  0  0
  9 11  1  1  0  0  0
  9 15  1  0  0  0  0
 10 12  1  0  0  0  0
 11 13  1  0  0  0  0
 12 16  1  0  0  0  0
  2 17  1  0  0  0  0
  2 18  1  0  0  0  0
  3 19  1  0  0  0  0
  3 20  1  0  0  0  0
  4 21  1  0  0  0  0
  4 22  1  0  0  0  0
  5 23  1  0  0  0  0
  5 24  1  0  0  0  0
  6 25  1  0  0  0  0
  6 26  1  0  0  0  0
 10 27  1  0  0  0  0
 10 28  1  0  0  0  0
 10 29  1  0  0  0  0
 11 30  1  0  0  0  0
 11 31  1  0  0  0  0
 12 32  1  0  0  0  0
 12 33  1  0  0  0  0
 13 34  1  0  0  0  0
 13 35  1  0  0  0  0
M  END
> <id>
EN300-39870125

> <smiles>
Cl.CCOC(=O)[C@]1(C[C@@]2(CN)C1)C3(CCC3)O2

> <IUPAC Name>
ethyl 4-(aminomethyl)-3-oxaspiro[bicyclo[2.1.1]hexane-2,1'-cyclobutane]-1-carboxylate hydrochloride

> <URL>
https://www.enaminestore.com/catalog/EN300-39870125

> <ROCS_ShapeQuery>
x0812_0A_x1140_0A_x1097_0A_x0365_0A_x1097_0A_x0310_0A

> <ROCS_TanimotoCombo>
0.730 

> <ROCS_ShapeTanimoto>
0.268 

> <ROCS_ColorTanimoto>
0.461 

> <ROCS_RefTversky>
0.237 

> <ROCS_RefColorTversky>
0.568 

> <ROCS_RefTverskyCombo>
0.805 

> <ROCS_FitTversky>
1.987 

> <ROCS_FitColorTversky>
0.711 

> <ROCS_FitTverskyCombo>
2.698 

> <ROCS_ColorScore>
-8.502

> <ROCS_Overlap>
2396.492

> <ROCS_Rank>
86                  

$$$$
untitled-dbase-590482_5
  -OEChem-02092408543D

 35 37  0     0  0  0  0  0  0999 V2000
    9.9376   12.1242   22.4791 C   0  0  0  0  0  0  0  0  0  0  0  0
   10.1658    8.1033   22.8854 C   0  0  0  0  0  0  0  0  0  0  0  0
    9.0413    9.0182   22.3572 C   0  0  0  0  0  0  0  0  0  0  0  0
   10.5917    9.2548   23.8199 C   0  0  0  0  0  0  0  0  0  0  0  0
    9.0526   11.8352   24.9982 C   0  0  0  0  0  0  0  0  0  0  0  0
    7.5386   11.6051   23.5689 C   0  0  0  0  0  0  0  0  0  0  0  0
    9.0987   11.3611   23.4905 C   0  0  0  0  0  0  0  0  0  0  0  0
    9.1630    9.8067   23.6729 C   0  0  0  0  0  0  0  0  0  0  0  0
    7.7807   10.8970   24.9617 C   0  0  0  0  0  0  0  0  0  0  0  0
   11.9950   15.0891   23.0836 C   0  0  0  0  0  0  0  0  0  0  0  0
    6.7437   10.9978   26.0434 C   0  0  0  0  0  0  0  0  0  0  0  0
   11.3846   13.9789   22.2551 C   0  0  0  0  0  0  0  0  0  0  0  0
    5.4982   10.4410   25.6055 N   0  0  0  0  0  0  0  0  0  0  0  0
   10.0267   11.8232   21.2965 O   0  0  0  0  0  0  0  0  0  0  0  0
    8.2092    9.5162   24.7302 O   0  0  0  0  0  0  0  0  0  0  0  0
   10.5562   13.1705   23.0967 O   0  0  0  0  0  0  0  0  0  0  0  0
    9.7981    7.2188   23.4182 H   0  0  0  0  0  0  0  0  0  0  0  0
   10.9094    7.7915   22.1477 H   0  0  0  0  0  0  0  0  0  0  0  0
    9.3111    9.5678   21.4493 H   0  0  0  0  0  0  0  0  0  0  0  0
    8.0835    8.5171   22.1906 H   0  0  0  0  0  0  0  0  0  0  0  0
   10.8792    8.9436   24.8283 H   0  0  0  0  0  0  0  0  0  0  0  0
   11.3872    9.8846   23.4081 H   0  0  0  0  0  0  0  0  0  0  0  0
    9.8727   11.4982   25.6391 H   0  0  0  0  0  0  0  0  0  0  0  0
    8.8764   12.9028   25.1725 H   0  0  0  0  0  0  0  0  0  0  0  0
    7.2049   12.6487   23.5945 H   0  0  0  0  0  0  0  0  0  0  0  0
    6.9231   11.0501   22.8549 H   0  0  0  0  0  0  0  0  0  0  0  0
   11.2178   15.7225   23.5203 H   0  0  0  0  0  0  0  0  0  0  0  0
   12.6090   14.6757   23.8905 H   0  0  0  0  0  0  0  0  0  0  0  0
   12.6540   15.7114   22.4692 H   0  0  0  0  0  0  0  0  0  0  0  0
    7.1026   10.4482   26.9216 H   0  0  0  0  0  0  0  0  0  0  0  0
    6.6045   12.0560   26.2942 H   0  0  0  0  0  0  0  0  0  0  0  0
   12.1671   13.3492   21.8212 H   0  0  0  0  0  0  0  0  0  0  0  0
   10.7709   14.3936   21.4499 H   0  0  0  0  0  0  0  0  0  0  0  0
    4.7837   11.1420   25.6398 H   0  0  0  0  0  0  0  0  0  0  0  0
    5.5891   10.1085   24.6652 H   0  0  0  0  0  0  0  0  0  0  0  0
  1  7  1  1  0  0  0
  1 14  2  0  0  0  0
  1 16  1  0  0  0  0
  2  3  1  0  0  0  0
  2  4  1  0  0  0  0
  3  8  1  0  0  0  0
  4  8  1  0  0  0  0
  5  7  1  0  0  0  0
  5  9  1  0  0  0  0
  6  7  1  0  0  0  0
  6  9  1  0  0  0  0
  7  8  1  0  0  0  0
  8 15  1  0  0  0  0
  9 11  1  1  0  0  0
  9 15  1  0  0  0  0
 10 12  1  0  0  0  0
 11 13  1  0  0  0  0
 12 16  1  0  0  0  0
  2 17  1  0  0  0  0
  2 18  1  0  0  0  0
  3 19  1  0  0  0  0
  3 20  1  0  0  0  0
  4 21  1  0  0  0  0
  4 22  1  0  0  0  0
  5 23  1  0  0  0  0
  5 24  1  0  0  0  0
  6 25  1  0  0  0  0
  6 26  1  0  0  0  0
 10 27  1  0  0  0  0
 10 28  1  0  0  0  0
 10 29  1  0  0  0  0
 11 30  1  0  0  0  0
 11 31  1  0  0  0  0
 12 32  1  0  0  0  0
 12 33  1  0  0  0  0
 13 34  1  0  0  0  0
 13 35  1  0  0  0  0
M  END
> <id>
EN300-39870126

> <smiles>
CCOC(=O)[C@]1(C[C@@]2(CN)C1)C3(CCC3)O2

> <IUPAC Name>
ethyl 4-(aminomethyl)-3-oxaspiro[bicyclo[2.1.1]hexane-2,1'-cyclobutane]-1-carboxylate

> <URL>
https://www.enaminestore.com/catalog/EN300-39870126

> <ROCS_ShapeQuery>
x0812_0A_x1140_0A_x1097_0A_x0365_0A_x1097_0A_x0310_0A

> <ROCS_TanimotoCombo>
0.730 

> <ROCS_ShapeTanimoto>
0.268 

> <ROCS_ColorTanimoto>
0.461 

> <ROCS_RefTversky>
0.237 

> <ROCS_RefColorTversky>
0.568 

> <ROCS_RefTverskyCombo>
0.805 

> <ROCS_FitTversky>
1.987 

> <ROCS_FitColorTversky>
0.711 

> <ROCS_FitTverskyCombo>
2.698 

> <ROCS_ColorScore>
-8.502

> <ROCS_Overlap>
2396.492

> <ROCS_Rank>
87                  

$$$$
untitled-dbase-166303_5
  -OEChem-02092408543D

 35 37  0     0  0  0  0  0  0999 V2000
    9.9441   12.1255   22.4790 C   0  0  0  0  0  0  0  0  0  0  0  0
   10.1734    8.1055   22.8861 C   0  0  0  0  0  0  0  0  0  0  0  0
    9.0491    9.0198   22.3566 C   0  0  0  0  0  0  0  0  0  0  0  0
   10.5972    9.2567   23.8219 C   0  0  0  0  0  0  0  0  0  0  0  0
    9.0553   11.8375   24.9966 C   0  0  0  0  0  0  0  0  0  0  0  0
    7.5435   11.6059   23.5653 C   0  0  0  0  0  0  0  0  0  0  0  0
    9.1040   11.3626   23.4893 C   0  0  0  0  0  0  0  0  0  0  0  0
    9.1686    9.8083   23.6725 C   0  0  0  0  0  0  0  0  0  0  0  0
    7.7838   10.8987   24.9587 C   0  0  0  0  0  0  0  0  0  0  0  0
   11.9993   15.0916   23.0854 C   0  0  0  0  0  0  0  0  0  0  0  0
    6.7457   10.9998   26.0392 C   0  0  0  0  0  0  0  0  0  0  0  0
   11.3907   13.9806   22.2564 C   0  0  0  0  0  0  0  0  0  0  0  0
    5.5006   10.4426   25.6005 N   0  0  0  0  0  0  0  0  0  0  0  0
   10.0353   11.8239   21.2967 O   0  0  0  0  0  0  0  0  0  0  0  0
    8.2133    9.5179   24.7286 O   0  0  0  0  0  0  0  0  0  0  0  0
   10.5613   13.1724   23.0972 O   0  0  0  0  0  0  0  0  0  0  0  0
    9.8056    7.2204   23.4178 H   0  0  0  0  0  0  0  0  0  0  0  0
   10.9182    7.7941   22.1495 H   0  0  0  0  0  0  0  0  0  0  0  0
    9.3189    9.5693   21.4486 H   0  0  0  0  0  0  0  0  0  0  0  0
    8.0917    8.5181   22.1886 H   0  0  0  0  0  0  0  0  0  0  0  0
   10.8832    8.9453   24.8306 H   0  0  0  0  0  0  0  0  0  0  0  0
   11.3938    9.8868   23.4125 H   0  0  0  0  0  0  0  0  0  0  0  0
    9.8745   11.5013   25.6392 H   0  0  0  0  0  0  0  0  0  0  0  0
    8.8785   12.9051   25.1703 H   0  0  0  0  0  0  0  0  0  0  0  0
    7.2091   12.6493   23.5898 H   0  0  0  0  0  0  0  0  0  0  0  0
    6.9291   11.0501   22.8506 H   0  0  0  0  0  0  0  0  0  0  0  0
   11.2211   15.7248   23.5205 H   0  0  0  0  0  0  0  0  0  0  0  0
   12.6121   14.6788   23.8935 H   0  0  0  0  0  0  0  0  0  0  0  0
   12.6590   15.7139   22.4717 H   0  0  0  0  0  0  0  0  0  0  0  0
    7.1036   10.4508   26.9183 H   0  0  0  0  0  0  0  0  0  0  0  0
    6.6057   12.0581   26.2896 H   0  0  0  0  0  0  0  0  0  0  0  0
   12.1742   13.3511   21.8242 H   0  0  0  0  0  0  0  0  0  0  0  0
   10.7781   14.3947   21.4501 H   0  0  0  0  0  0  0  0  0  0  0  0
    4.7861   11.1435   25.6336 H   0  0  0  0  0  0  0  0  0  0  0  0
    5.5924   10.1092   24.6607 H   0  0  0  0  0  0  0  0  0  0  0  0
  1  7  1  0  0  0  0
  1 14  2  0  0  0  0
  1 16  1  0  0  0  0
  2  3  1  0  0  0  0
  2  4  1  0  0  0  0
  3  8  1  0  0  0  0
  4  8  1  0  0  0  0
  5  7  1  0  0  0  0
  5  9  1  0  0  0  0
  6  7  1  0  0  0  0
  6  9  1  0  0  0  0
  7  8  1  0  0  0  0
  8 15  1  0  0  0  0
  9 11  1  0  0  0  0
  9 15  1  0  0  0  0
 10 12  1  0  0  0  0
 11 13  1  0  0  0  0
 12 16  1  0  0  0  0
  2 17  1  0  0  0  0
  2 18  1  0  0  0  0
  3 19  1  0  0  0  0
  3 20  1  0  0  0  0
  4 21  1  0  0  0  0
  4 22  1  0  0  0  0
  5 23  1  0  0  0  0
  5 24  1  0  0  0  0
  6 25  1  0  0  0  0
  6 26  1  0  0  0  0
 10 27  1  0  0  0  0
 10 28  1  0  0  0  0
 10 29  1  0  0  0  0
 11 30  1  0  0  0  0
 11 31  1  0  0  0  0
 12 32  1  0  0  0  0
 12 33  1  0  0  0  0
 13 34  1  0  0  0  0
 13 35  1  0  0  0  0
M  END
> <id>
EN300-1720706

> <smiles>
Cl.CCOC(=O)C1(CC2(CN)C1)C3(CCC3)O2

> <MDLNUMBER>
MFCD31666016

> <IUPAC Name>
ethyl 4-(aminomethyl)-3-oxaspiro[bicyclo[2.1.1]hexane-2,1'-cyclobutane]-1-carboxylate hydrochloride

> <CAS>
2490398-53-1

> <Purity>
95

> <URL>
https://www.enaminestore.com/catalog/EN300-1720706

> <Saltdate>
Cl

> <ROCS_ShapeQuery>
x0812_0A_x1140_0A_x1097_0A_x0365_0A_x1097_0A_x0310_0A

> <ROCS_TanimotoCombo>
0.730 

> <ROCS_ShapeTanimoto>
0.268 

> <ROCS_ColorTanimoto>
0.461 

> <ROCS_RefTversky>
0.237 

> <ROCS_RefColorTversky>
0.568 

> <ROCS_RefTverskyCombo>
0.805 

> <ROCS_FitTversky>
1.987 

> <ROCS_FitColorTversky>
0.711 

> <ROCS_FitTverskyCombo>
2.698 

> <ROCS_ColorScore>
-8.500

> <ROCS_Overlap>
2396.931

> <ROCS_Rank>
88                  

$$$$
untitled-dbase-393614_5
  -OEChem-02092408543D

 35 37  0     0  0  0  0  0  0999 V2000
    9.9441   12.1255   22.4790 C   0  0  0  0  0  0  0  0  0  0  0  0
   10.1734    8.1055   22.8861 C   0  0  0  0  0  0  0  0  0  0  0  0
    9.0491    9.0198   22.3566 C   0  0  0  0  0  0  0  0  0  0  0  0
   10.5972    9.2567   23.8219 C   0  0  0  0  0  0  0  0  0  0  0  0
    9.0553   11.8375   24.9966 C   0  0  0  0  0  0  0  0  0  0  0  0
    7.5435   11.6059   23.5653 C   0  0  0  0  0  0  0  0  0  0  0  0
    9.1040   11.3626   23.4893 C   0  0  0  0  0  0  0  0  0  0  0  0
    9.1686    9.8083   23.6725 C   0  0  0  0  0  0  0  0  0  0  0  0
    7.7838   10.8987   24.9587 C   0  0  0  0  0  0  0  0  0  0  0  0
   11.9993   15.0916   23.0854 C   0  0  0  0  0  0  0  0  0  0  0  0
    6.7457   10.9998   26.0392 C   0  0  0  0  0  0  0  0  0  0  0  0
   11.3907   13.9806   22.2564 C   0  0  0  0  0  0  0  0  0  0  0  0
    5.5006   10.4426   25.6005 N   0  0  0  0  0  0  0  0  0  0  0  0
   10.0353   11.8239   21.2967 O   0  0  0  0  0  0  0  0  0  0  0  0
    8.2133    9.5179   24.7286 O   0  0  0  0  0  0  0  0  0  0  0  0
   10.5613   13.1724   23.0972 O   0  0  0  0  0  0  0  0  0  0  0  0
    9.8056    7.2204   23.4178 H   0  0  0  0  0  0  0  0  0  0  0  0
   10.9182    7.7941   22.1495 H   0  0  0  0  0  0  0  0  0  0  0  0
    9.3189    9.5693   21.4486 H   0  0  0  0  0  0  0  0  0  0  0  0
    8.0917    8.5181   22.1886 H   0  0  0  0  0  0  0  0  0  0  0  0
   10.8832    8.9453   24.8306 H   0  0  0  0  0  0  0  0  0  0  0  0
   11.3938    9.8868   23.4125 H   0  0  0  0  0  0  0  0  0  0  0  0
    9.8745   11.5013   25.6392 H   0  0  0  0  0  0  0  0  0  0  0  0
    8.8785   12.9051   25.1703 H   0  0  0  0  0  0  0  0  0  0  0  0
    7.2091   12.6493   23.5898 H   0  0  0  0  0  0  0  0  0  0  0  0
    6.9291   11.0501   22.8506 H   0  0  0  0  0  0  0  0  0  0  0  0
   11.2211   15.7248   23.5205 H   0  0  0  0  0  0  0  0  0  0  0  0
   12.6121   14.6788   23.8935 H   0  0  0  0  0  0  0  0  0  0  0  0
   12.6590   15.7139   22.4717 H   0  0  0  0  0  0  0  0  0  0  0  0
    7.1036   10.4508   26.9183 H   0  0  0  0  0  0  0  0  0  0  0  0
    6.6057   12.0581   26.2896 H   0  0  0  0  0  0  0  0  0  0  0  0
   12.1742   13.3511   21.8242 H   0  0  0  0  0  0  0  0  0  0  0  0
   10.7781   14.3947   21.4501 H   0  0  0  0  0  0  0  0  0  0  0  0
    4.7861   11.1435   25.6336 H   0  0  0  0  0  0  0  0  0  0  0  0
    5.5924   10.1092   24.6607 H   0  0  0  0  0  0  0  0  0  0  0  0
  1  7  1  0  0  0  0
  1 14  2  0  0  0  0
  1 16  1  0  0  0  0
  2  3  1  0  0  0  0
  2  4  1  0  0  0  0
  3  8  1  0  0  0  0
  4  8  1  0  0  0  0
  5  7  1  0  0  0  0
  5  9  1  0  0  0  0
  6  7  1  0  0  0  0
  6  9  1  0  0  0  0
  7  8  1  0  0  0  0
  8 15  1  0  0  0  0
  9 11  1  0  0  0  0
  9 15  1  0  0  0  0
 10 12  1  0  0  0  0
 11 13  1  0  0  0  0
 12 16  1  0  0  0  0
  2 17  1  0  0  0  0
  2 18  1  0  0  0  0
  3 19  1  0  0  0  0
  3 20  1  0  0  0  0
  4 21  1  0  0  0  0
  4 22  1  0  0  0  0
  5 23  1  0  0  0  0
  5 24  1  0  0  0  0
  6 25  1  0  0  0  0
  6 26  1  0  0  0  0
 10 27  1  0  0  0  0
 10 28  1  0  0  0  0
 10 29  1  0  0  0  0
 11 30  1  0  0  0  0
 11 31  1  0  0  0  0
 12 32  1  0  0  0  0
 12 33  1  0  0  0  0
 13 34  1  0  0  0  0
 13 35  1  0  0  0  0
M  END
> <id>
EN300-1720707

> <smiles>
CCOC(=O)C1(CC2(CN)C1)C3(CCC3)O2

> <MDLNUMBER>
MFCD31690030

> <IUPAC Name>
ethyl 4-(aminomethyl)-3-oxaspiro[bicyclo[2.1.1]hexane-2,1'-cyclobutane]-1-carboxylate

> <CAS>
2490398-52-0

> <URL>
https://www.enaminestore.com/catalog/EN300-1720707

> <ROCS_ShapeQuery>
x0812_0A_x1140_0A_x1097_0A_x0365_0A_x1097_0A_x0310_0A

> <ROCS_TanimotoCombo>
0.730 

> <ROCS_ShapeTanimoto>
0.268 

> <ROCS_ColorTanimoto>
0.461 

> <ROCS_RefTversky>
0.237 

> <ROCS_RefColorTversky>
0.568 

> <ROCS_RefTverskyCombo>
0.805 

> <ROCS_FitTversky>
1.987 

> <ROCS_FitColorTversky>
0.711 

> <ROCS_FitTverskyCombo>
2.698 

> <ROCS_ColorScore>
-8.500

> <ROCS_Overlap>
2396.931

> <ROCS_Rank>
89                  

$$$$
untitled-dbase-458649_8
  -OEChem-02092408543D

 23 24  0     0  0  0  0  0  0999 V2000
    8.8067   11.8194   25.2103 C   0  0  0  0  0  0  0  0  0  0  0  0
    7.7132   11.7980   23.4235 C   0  0  0  0  0  0  0  0  0  0  0  0
    9.3007    9.9406   23.7022 C   0  0  0  0  0  0  0  0  0  0  0  0
    9.2247   11.4829   23.7304 C   0  0  0  0  0  0  0  0  0  0  0  0
    7.5835   10.9386   24.7413 C   0  0  0  0  0  0  0  0  0  0  0  0
    6.3056   10.9015   25.5229 C   0  0  0  0  0  0  0  0  0  0  0  0
   10.3289   12.2296   23.0448 C   0  0  0  0  0  0  0  0  0  0  0  0
    5.7065   13.4077   25.0411 O   0  0  0  0  0  0  0  0  0  0  0  0
    6.7387   12.8037   27.2742 O   0  0  0  0  0  0  0  0  0  0  0  0
    8.1078    9.6168   24.4363 O   0  0  0  0  0  0  0  0  0  0  0  0
   11.4976   12.0916   23.7097 F   0  0  0  0  0  0  0  0  0  0  0  0
   10.5159   11.7764   21.7853 F   0  0  0  0  0  0  0  0  0  0  0  0
   10.0517   13.5504   22.9700 F   0  0  0  0  0  0  0  0  0  0  0  0
    5.8713   12.4951   26.1549 S   0  0  0  0  0  0  0  0  0  0  0  0
    4.0015   12.3083   26.9685 Cl  0  0  0  0  0  0  0  0  0  0  0  0
    9.4328   11.3900   25.9978 H   0  0  0  0  0  0  0  0  0  0  0  0
    8.6028   12.8708   25.4415 H   0  0  0  0  0  0  0  0  0  0  0  0
    7.4031   12.8472   23.4811 H   0  0  0  0  0  0  0  0  0  0  0  0
    7.3018   11.3479   22.5154 H   0  0  0  0  0  0  0  0  0  0  0  0
    9.2349    9.5323   22.6896 H   0  0  0  0  0  0  0  0  0  0  0  0
   10.1768    9.5505   24.2280 H   0  0  0  0  0  0  0  0  0  0  0  0
    6.3800   10.2306   26.3897 H   0  0  0  0  0  0  0  0  0  0  0  0
    5.4613   10.5692   24.9039 H   0  0  0  0  0  0  0  0  0  0  0  0
  1  4  1  0  0  0  0
  1  5  1  0  0  0  0
  2  4  1  0  0  0  0
  2  5  1  0  0  0  0
  3  4  1  0  0  0  0
  3 10  1  0  0  0  0
  4  7  1  0  0  0  0
  5  6  1  0  0  0  0
  5 10  1  0  0  0  0
  6 14  1  0  0  0  0
  7 11  1  0  0  0  0
  7 12  1  0  0  0  0
  7 13  1  0  0  0  0
  8 14  2  0  0  0  0
  9 14  2  0  0  0  0
 14 15  1  0  0  0  0
  1 16  1  0  0  0  0
  1 17  1  0  0  0  0
  2 18  1  0  0  0  0
  2 19  1  0  0  0  0
  3 20  1  0  0  0  0
  3 21  1  0  0  0  0
  6 22  1  0  0  0  0
  6 23  1  0  0  0  0
M  END
> <id>
EN300-27193631

> <smiles>
FC(F)(F)C1(CC2(CS(=O)(=O)Cl)C1)CO2

> <MDLNUMBER>
MFCD32874922

> <IUPAC Name>
[4-(trifluoromethyl)-2-oxabicyclo[2.1.1]hexan-1-yl]methanesulfonyl chloride

> <CAS>
2551118-56-8

> <Purity>
95

> <URL>
https://www.enaminestore.com/catalog/EN300-27193631

> <ROCS_ShapeQuery>
x0812_0A_x1140_0A_x1097_0A_x0365_0A_x1097_0A_x0310_0A

> <ROCS_TanimotoCombo>
0.730 

> <ROCS_ShapeTanimoto>
0.256 

> <ROCS_ColorTanimoto>
0.473 

> <ROCS_RefTversky>
0.227 

> <ROCS_RefColorTversky>
0.498 

> <ROCS_RefTverskyCombo>
0.725 

> <ROCS_FitTversky>
2.004 

> <ROCS_FitColorTversky>
0.904 

> <ROCS_FitTverskyCombo>
2.908 

> <ROCS_ColorScore>
-7.362

> <ROCS_Overlap>
2296.155

> <ROCS_Rank>
90                  

$$$$
untitled-dbase-573028_0
  -OEChem-02092408543D

 22 23  0     1  0  0  0  0  0999 V2000
    8.4538   11.0961   25.7651 C   0  0  0  0  0  0  0  0  0  0  0  0
    9.7433   11.4901   25.0272 C   0  0  0  0  0  0  0  0  0  0  0  0
    7.6954    9.7628   23.7890 C   0  0  0  0  0  0  0  0  0  0  0  0
    7.8726   12.1455   23.7019 C   0  0  0  0  0  0  0  0  0  0  0  0
    7.4133   11.0205   24.6335 C   0  0  2  0  0  0  0  0  0  0  0  0
    8.9669   10.1494   23.0139 C   0  0  1  0  0  0  0  0  0  0  0  0
    9.2809   11.5610   23.5581 C   0  0  2  0  0  0  0  0  0  0  0  0
   10.1879   12.3069   22.7136 N   0  0  0  0  0  0  0  0  0  0  0  0
   10.0054    9.2191   23.2591 O   0  0  0  0  0  0  0  0  0  0  0  0
    8.5605   10.1483   26.3020 H   0  0  0  0  0  0  0  0  0  0  0  0
    8.1845   11.8718   26.4907 H   0  0  0  0  0  0  0  0  0  0  0  0
   10.0877   12.4665   25.3903 H   0  0  0  0  0  0  0  0  0  0  0  0
   10.5510   10.7709   25.1962 H   0  0  0  0  0  0  0  0  0  0  0  0
    7.8141    8.8616   24.3993 H   0  0  0  0  0  0  0  0  0  0  0  0
    6.8701    9.5981   23.0864 H   0  0  0  0  0  0  0  0  0  0  0  0
    7.3121   12.1824   22.7611 H   0  0  0  0  0  0  0  0  0  0  0  0
    7.8534   13.1321   24.1781 H   0  0  0  0  0  0  0  0  0  0  0  0
    6.3813   11.0895   24.9830 H   0  0  0  0  0  0  0  0  0  0  0  0
    8.7555   10.1581   21.9375 H   0  0  0  0  0  0  0  0  0  0  0  0
   10.5236   11.7088   21.9900 H   0  0  0  0  0  0  0  0  0  0  0  0
    9.6993   13.0800   22.3167 H   0  0  0  0  0  0  0  0  0  0  0  0
    9.6859    8.3495   22.9633 H   0  0  0  0  0  0  0  0  0  0  0  0
  1  2  1  0  0  0  0
  1  5  1  0  0  0  0
  2  7  1  0  0  0  0
  3  5  1  0  0  0  0
  3  6  1  0  0  0  0
  4  5  1  6  0  0  0
  4  7  1  0  0  0  0
  6  7  1  0  0  0  0
  6  9  1  1  0  0  0
  7  8  1  6  0  0  0
  1 10  1  0  0  0  0
  1 11  1  0  0  0  0
  2 12  1  0  0  0  0
  2 13  1  0  0  0  0
  3 14  1  0  0  0  0
  3 15  1  0  0  0  0
  4 16  1  0  0  0  0
  4 17  1  0  0  0  0
  5 18  1  0  0  0  0
  6 19  1  0  0  0  0
  8 20  1  0  0  0  0
  8 21  1  0  0  0  0
  9 22  1  0  0  0  0
M  END
> <id>
EN300-43350857

> <smiles>
Cl.N[C@@]1(CC[C@@H]2C[C@@H]1O)C2 |&1:2,5,7,r|

> <IUPAC Name>
rac-(1R,2R,4R)-1-aminobicyclo[2.2.1]heptan-2-ol hydrochloride

> <Purity>
95

> <URL>
https://www.enaminestore.com/catalog/EN300-43350857

> <Saltdate>
Cl

> <ROCS_ShapeQuery>
x0812_0A_x1140_0A_x1097_0A_x0365_0A_x1097_0A_x0310_0A

> <ROCS_TanimotoCombo>
0.729 

> <ROCS_ShapeTanimoto>
0.187 

> <ROCS_ColorTanimoto>
0.542 

> <ROCS_RefTversky>
0.172 

> <ROCS_RefColorTversky>
0.600 

> <ROCS_RefTverskyCombo>
0.772 

> <ROCS_FitTversky>
1.916 

> <ROCS_FitColorTversky>
0.848 

> <ROCS_FitTverskyCombo>
2.763 

> <ROCS_ColorScore>
-8.941

> <ROCS_Overlap>
1735.560

> <ROCS_Rank>
91                  

$$$$
untitled-dbase-583628_0
  -OEChem-02092408543D

 22 23  0     1  0  0  0  0  0999 V2000
    8.4538   11.0961   25.7651 C   0  0  0  0  0  0  0  0  0  0  0  0
    9.7433   11.4901   25.0272 C   0  0  0  0  0  0  0  0  0  0  0  0
    7.6954    9.7628   23.7890 C   0  0  0  0  0  0  0  0  0  0  0  0
    7.8726   12.1455   23.7019 C   0  0  0  0  0  0  0  0  0  0  0  0
    7.4133   11.0205   24.6335 C   0  0  2  0  0  0  0  0  0  0  0  0
    8.9669   10.1494   23.0139 C   0  0  1  0  0  0  0  0  0  0  0  0
    9.2809   11.5610   23.5581 C   0  0  2  0  0  0  0  0  0  0  0  0
   10.1879   12.3069   22.7136 N   0  0  0  0  0  0  0  0  0  0  0  0
   10.0054    9.2191   23.2591 O   0  0  0  0  0  0  0  0  0  0  0  0
    8.5605   10.1483   26.3020 H   0  0  0  0  0  0  0  0  0  0  0  0
    8.1845   11.8718   26.4907 H   0  0  0  0  0  0  0  0  0  0  0  0
   10.0877   12.4665   25.3903 H   0  0  0  0  0  0  0  0  0  0  0  0
   10.5510   10.7709   25.1962 H   0  0  0  0  0  0  0  0  0  0  0  0
    7.8141    8.8616   24.3993 H   0  0  0  0  0  0  0  0  0  0  0  0
    6.8701    9.5981   23.0864 H   0  0  0  0  0  0  0  0  0  0  0  0
    7.3121   12.1824   22.7611 H   0  0  0  0  0  0  0  0  0  0  0  0
    7.8534   13.1321   24.1781 H   0  0  0  0  0  0  0  0  0  0  0  0
    6.3813   11.0895   24.9830 H   0  0  0  0  0  0  0  0  0  0  0  0
    8.7555   10.1581   21.9375 H   0  0  0  0  0  0  0  0  0  0  0  0
   10.5236   11.7088   21.9900 H   0  0  0  0  0  0  0  0  0  0  0  0
    9.6993   13.0800   22.3167 H   0  0  0  0  0  0  0  0  0  0  0  0
    9.6859    8.3495   22.9633 H   0  0  0  0  0  0  0  0  0  0  0  0
  1  2  1  0  0  0  0
  1  5  1  0  0  0  0
  2  7  1  0  0  0  0
  3  5  1  0  0  0  0
  3  6  1  0  0  0  0
  4  5  1  6  0  0  0
  4  7  1  0  0  0  0
  6  7  1  0  0  0  0
  6  9  1  1  0  0  0
  7  8  1  6  0  0  0
  1 10  1  0  0  0  0
  1 11  1  0  0  0  0
  2 12  1  0  0  0  0
  2 13  1  0  0  0  0
  3 14  1  0  0  0  0
  3 15  1  0  0  0  0
  4 16  1  0  0  0  0
  4 17  1  0  0  0  0
  5 18  1  0  0  0  0
  6 19  1  0  0  0  0
  8 20  1  0  0  0  0
  8 21  1  0  0  0  0
  9 22  1  0  0  0  0
M  END
> <id>
EN300-39915365

> <smiles>
N[C@@]1(CC[C@@H]2C[C@@H]1O)C2 |&1:1,4,6,r|

> <IUPAC Name>
rac-(1R,2R,4R)-1-aminobicyclo[2.2.1]heptan-2-ol

> <URL>
https://www.enaminestore.com/catalog/EN300-39915365

> <ROCS_ShapeQuery>
x0812_0A_x1140_0A_x1097_0A_x0365_0A_x1097_0A_x0310_0A

> <ROCS_TanimotoCombo>
0.729 

> <ROCS_ShapeTanimoto>
0.187 

> <ROCS_ColorTanimoto>
0.542 

> <ROCS_RefTversky>
0.172 

> <ROCS_RefColorTversky>
0.600 

> <ROCS_RefTverskyCombo>
0.772 

> <ROCS_FitTversky>
1.916 

> <ROCS_FitColorTversky>
0.848 

> <ROCS_FitTverskyCombo>
2.763 

> <ROCS_ColorScore>
-8.941

> <ROCS_Overlap>
1735.560

> <ROCS_Rank>
92                  

$$$$
untitled-dbase-570453_0
  -OEChem-02092408543D

 17 18  0     0  0  0  0  0  0999 V2000
    8.6782   10.4892   25.3282 C   0  0  0  0  0  0  0  0  0  0  0  0
    9.1650   11.8756   23.7860 C   0  0  0  0  0  0  0  0  0  0  0  0
    7.5516   10.5089   23.5204 C   0  0  0  0  0  0  0  0  0  0  0  0
    7.8344   11.6244   24.6115 C   0  0  0  0  0  0  0  0  0  0  0  0
    9.0570   10.3321   23.8354 C   0  0  0  0  0  0  0  0  0  0  0  0
    6.9033   12.6089   25.2026 C   0  0  0  0  0  0  0  0  0  0  0  0
    9.9428    9.3946   23.2780 O   0  0  0  0  0  0  0  0  0  0  0  0
    7.5187   13.4074   26.1142 F   0  0  0  0  0  0  0  0  0  0  0  0
    6.3641   13.4279   24.2615 F   0  0  0  0  0  0  0  0  0  0  0  0
    5.8661   12.0072   25.8425 F   0  0  0  0  0  0  0  0  0  0  0  0
    9.4658   10.8197   26.0131 H   0  0  0  0  0  0  0  0  0  0  0  0
    8.1127    9.6734   25.7904 H   0  0  0  0  0  0  0  0  0  0  0  0
    9.0549   12.3541   22.8073 H   0  0  0  0  0  0  0  0  0  0  0  0
    9.9982   12.3383   24.3249 H   0  0  0  0  0  0  0  0  0  0  0  0
    6.8788    9.6957   23.8114 H   0  0  0  0  0  0  0  0  0  0  0  0
    7.2877   10.8571   22.5164 H   0  0  0  0  0  0  0  0  0  0  0  0
    9.9704    9.5491   22.3150 H   0  0  0  0  0  0  0  0  0  0  0  0
  1  4  1  1  0  0  0
  1  5  1  1  0  0  0
  2  4  1  0  0  0  0
  2  5  1  0  0  0  0
  3  4  1  0  0  0  0
  3  5  1  0  0  0  0
  4  6  1  0  0  0  0
  5  7  1  0  0  0  0
  6  8  1  0  0  0  0
  6  9  1  0  0  0  0
  6 10  1  0  0  0  0
  1 11  1  0  0  0  0
  1 12  1  0  0  0  0
  2 13  1  0  0  0  0
  2 14  1  0  0  0  0
  3 15  1  0  0  0  0
  3 16  1  0  0  0  0
  7 17  1  0  0  0  0
M  END
> <id>
EN300-28221012

> <smiles>
O[C@]1(C[C@]2(C1)C(F)(F)F)C2

> <IUPAC Name>
3-(trifluoromethyl)bicyclo[1.1.1]pentan-1-ol

> <CAS>
585532-19-0

> <URL>
https://www.enaminestore.com/catalog/EN300-28221012

> <ROCS_ShapeQuery>
x0812_0A_x1140_0A_x1097_0A_x0365_0A_x1097_0A_x0310_0A

> <ROCS_TanimotoCombo>
0.729 

> <ROCS_ShapeTanimoto>
0.189 

> <ROCS_ColorTanimoto>
0.540 

> <ROCS_RefTversky>
0.174 

> <ROCS_RefColorTversky>
0.582 

> <ROCS_RefTverskyCombo>
0.756 

> <ROCS_FitTversky>
1.842 

> <ROCS_FitColorTversky>
0.882 

> <ROCS_FitTverskyCombo>
2.724 

> <ROCS_ColorScore>
-8.645

> <ROCS_Overlap>
1758.828

> <ROCS_Rank>
93                  

$$$$
untitled-dbase-507575_7
  -OEChem-02092408543D

 51 54  0     1  0  0  0  0  0999 V2000
    4.6228   12.2838   31.7101 C   0  0  0  0  0  0  0  0  0  0  0  0
    4.1507   10.9726   31.6510 C   0  0  0  0  0  0  0  0  0  0  0  0
    4.6790   13.0577   30.5509 C   0  0  0  0  0  0  0  0  0  0  0  0
    3.7350   10.4352   30.4328 C   0  0  0  0  0  0  0  0  0  0  0  0
    4.2633   12.5203   29.3327 C   0  0  0  0  0  0  0  0  0  0  0  0
    3.7913   11.2091   29.2736 C   0  0  0  0  0  0  0  0  0  0  0  0
    5.1976   10.8121   26.4939 C   0  0  0  0  0  0  0  0  0  0  0  0
    8.2604   12.9195   23.4554 C   0  0  0  0  0  0  0  0  0  0  0  0
    6.4867   11.1657   23.7619 C   0  0  0  0  0  0  0  0  0  0  0  0
    7.9596   11.8118   25.6914 C   0  0  0  0  0  0  0  0  0  0  0  0
    8.5204   10.6668   22.3759 C   0  0  0  0  0  0  0  0  0  0  0  0
    9.9909   11.3093   24.3034 C   0  0  0  0  0  0  0  0  0  0  0  0
    8.2191    9.5619   24.6103 C   0  0  0  0  0  0  0  0  0  0  0  0
    7.5036   11.7626   22.7616 C   0  0  2  0  0  0  0  0  0  0  0  0
    8.9981   12.4165   24.7184 C   0  0  1  0  0  0  0  0  0  0  0  0
    7.2024   10.6430   25.0265 C   0  0  0  0  0  0  0  0  0  0  0  0
    9.2456   10.1476   23.6279 C   0  0  0  0  0  0  0  0  0  0  0  0
    6.7802   12.2763   21.5133 C   0  0  0  0  0  0  0  0  0  0  0  0
    9.7451   13.5718   25.3912 C   0  0  0  0  0  0  0  0  0  0  0  0
    3.3445   10.6315   27.9628 C   0  0  0  0  0  0  0  0  0  0  0  0
    6.2346   10.0877   25.9477 N   0  0  0  0  0  0  0  0  0  0  0  0
    4.9584   11.9960   26.2800 O   0  0  0  0  0  0  0  0  0  0  0  0
   10.1708    9.1414   23.2390 O   0  0  0  0  0  0  0  0  0  0  0  0
    4.4630   10.0094   27.3205 O   0  0  0  0  0  0  0  0  0  0  0  0
    4.9452   12.7025   32.6590 H   0  0  0  0  0  0  0  0  0  0  0  0
    4.1058   10.3702   32.5537 H   0  0  0  0  0  0  0  0  0  0  0  0
    5.0454   14.0789   30.5967 H   0  0  0  0  0  0  0  0  0  0  0  0
    3.3688    9.4125   30.3963 H   0  0  0  0  0  0  0  0  0  0  0  0
    4.3108   13.1306   28.4347 H   0  0  0  0  0  0  0  0  0  0  0  0
    8.9805   13.3658   22.7562 H   0  0  0  0  0  0  0  0  0  0  0  0
    7.5556   13.7169   23.7274 H   0  0  0  0  0  0  0  0  0  0  0  0
    5.7479   11.9301   24.0395 H   0  0  0  0  0  0  0  0  0  0  0  0
    5.9303   10.3489   23.2820 H   0  0  0  0  0  0  0  0  0  0  0  0
    8.4645   11.4607   26.6017 H   0  0  0  0  0  0  0  0  0  0  0  0
    7.2498   12.5896   26.0049 H   0  0  0  0  0  0  0  0  0  0  0  0
    8.0187    9.8341   21.8643 H   0  0  0  0  0  0  0  0  0  0  0  0
    9.2533   11.0531   21.6545 H   0  0  0  0  0  0  0  0  0  0  0  0
   10.7542   11.7077   23.6213 H   0  0  0  0  0  0  0  0  0  0  0  0
   10.5450   10.9396   25.1769 H   0  0  0  0  0  0  0  0  0  0  0  0
    8.7365    9.1557   25.4901 H   0  0  0  0  0  0  0  0  0  0  0  0
    7.7112    8.7063   24.1445 H   0  0  0  0  0  0  0  0  0  0  0  0
    6.2520   11.4556   21.0339 H   0  0  0  0  0  0  0  0  0  0  0  0
    7.5045   12.6933   20.8177 H   0  0  0  0  0  0  0  0  0  0  0  0
    6.0672   13.0471   21.7960 H   0  0  0  0  0  0  0  0  0  0  0  0
   10.2595   13.2071   26.2770 H   0  0  0  0  0  0  0  0  0  0  0  0
    9.0374   14.3455   25.6789 H   0  0  0  0  0  0  0  0  0  0  0  0
   10.4724   13.9886   24.6985 H   0  0  0  0  0  0  0  0  0  0  0  0
    2.5573    9.8846   28.1117 H   0  0  0  0  0  0  0  0  0  0  0  0
    2.9455   11.4152   27.3097 H   0  0  0  0  0  0  0  0  0  0  0  0
    6.3246    9.1109   26.2058 H   0  0  0  0  0  0  0  0  0  0  0  0
   10.6099    8.8361   24.0494 H   0  0  0  0  0  0  0  0  0  0  0  0
  1  2  1  0  0  0  0
  1  3  2  0  0  0  0
  2  4  2  0  0  0  0
  3  5  1  0  0  0  0
  4  6  1  0  0  0  0
  5  6  2  0  0  0  0
  6 20  1  0  0  0  0
  7 21  1  0  0  0  0
  7 22  2  0  0  0  0
  7 24  1  0  0  0  0
  8 14  1  0  0  0  0
  8 15  1  0  0  0  0
  9 14  1  0  0  0  0
  9 16  1  0  0  0  0
 10 15  1  0  0  0  0
 10 16  1  0  0  0  0
 11 14  1  0  0  0  0
 11 17  1  0  0  0  0
 12 15  1  0  0  0  0
 12 17  1  0  0  0  0
 13 16  1  0  0  0  0
 13 17  1  0  0  0  0
 14 18  1  0  0  0  0
 15 19  1  0  0  0  0
 16 21  1  0  0  0  0
 17 23  1  0  0  0  0
 20 24  1  0  0  0  0
  1 25  1  0  0  0  0
  2 26  1  0  0  0  0
  3 27  1  0  0  0  0
  4 28  1  0  0  0  0
  5 29  1  0  0  0  0
  8 30  1  0  0  0  0
  8 31  1  0  0  0  0
  9 32  1  0  0  0  0
  9 33  1  0  0  0  0
 10 34  1  0  0  0  0
 10 35  1  0  0  0  0
 11 36  1  0  0  0  0
 11 37  1  0  0  0  0
 12 38  1  0  0  0  0
 12 39  1  0  0  0  0
 13 40  1  0  0  0  0
 13 41  1  0  0  0  0
 18 42  1  0  0  0  0
 18 43  1  0  0  0  0
 18 44  1  0  0  0  0
 19 45  1  0  0  0  0
 19 46  1  0  0  0  0
 19 47  1  0  0  0  0
 20 48  1  0  0  0  0
 20 49  1  0  0  0  0
 21 50  1  0  0  0  0
 23 51  1  0  0  0  0
M  END
> <id>
EN300-28295440

> <smiles>
CC1(CC2(C)CC3(O)C1)CC(C2)(C3)NC(=O)OCC=4C=CC=CC4

> <IUPAC Name>
benzyl N-(3-hydroxy-5,7-dimethyladamantan-1-yl)carbamate

> <CAS>
356572-20-8

> <URL>
https://www.enaminestore.com/catalog/EN300-28295440

> <ROCS_ShapeQuery>
x0812_0A_x1140_0A_x1097_0A_x0365_0A_x1097_0A_x0310_0A

> <ROCS_TanimotoCombo>
0.729 

> <ROCS_ShapeTanimoto>
0.240 

> <ROCS_ColorTanimoto>
0.489 

> <ROCS_RefTversky>
0.223 

> <ROCS_RefColorTversky>
0.584 

> <ROCS_RefTverskyCombo>
0.807 

> <ROCS_FitTversky>
1.446 

> <ROCS_FitColorTversky>
0.750 

> <ROCS_FitTverskyCombo>
2.197 

> <ROCS_ColorScore>
-8.733

> <ROCS_Overlap>
2265.108

> <ROCS_Rank>
94                  

$$$$
untitled-dbase-570687_6
  -OEChem-02092408543D

 30 31  0     1  0  0  0  0  0999 V2000
    7.6248   12.5310   26.7165 B   0  0  0  0  0  0  0  0  0  0  0  0
   10.1011   11.8574   22.3040 C   0  0  0  0  0  0  0  0  0  0  0  0
    6.9011   11.9311   24.2115 C   0  0  0  0  0  0  0  0  0  0  0  0
    7.6568   11.7170   22.8893 C   0  0  0  0  0  0  0  0  0  0  0  0
    9.2180   12.1241   24.6340 C   0  0  0  0  0  0  0  0  0  0  0  0
    8.0661   10.1397   25.6147 C   0  0  0  0  0  0  0  0  0  0  0  0
    9.2581    9.8800   23.5639 C   0  0  0  0  0  0  0  0  0  0  0  0
    7.9260   11.6712   25.3638 C   0  0  1  0  0  0  0  0  0  0  0  0
    9.0945   11.3819   23.3049 C   0  0  2  0  0  0  0  0  0  0  0  0
   11.9740   13.2758   22.0506 C   0  0  0  0  0  0  0  0  0  0  0  0
   10.1312   11.4931   21.1363 O   0  0  0  0  0  0  0  0  0  0  0  0
    8.2126    9.3889   24.4047 O   0  0  0  0  0  0  0  0  0  0  0  0
    6.4291   12.3647   27.3681 O   0  0  0  0  0  0  0  0  0  0  0  0
    8.5663   13.4152   27.1782 O   0  0  0  0  0  0  0  0  0  0  0  0
   10.9539   12.7394   22.8989 O   0  0  0  0  0  0  0  0  0  0  0  0
    6.5138   12.9589   24.2327 H   0  0  0  0  0  0  0  0  0  0  0  0
    6.0322   11.2649   24.2817 H   0  0  0  0  0  0  0  0  0  0  0  0
    7.2002   10.9188   22.2929 H   0  0  0  0  0  0  0  0  0  0  0  0
    7.6061   12.6317   22.2862 H   0  0  0  0  0  0  0  0  0  0  0  0
    9.2509   13.2128   24.4808 H   0  0  0  0  0  0  0  0  0  0  0  0
   10.1304   11.8503   25.1802 H   0  0  0  0  0  0  0  0  0  0  0  0
    8.9223    9.9171   26.2654 H   0  0  0  0  0  0  0  0  0  0  0  0
    7.1731    9.7493   26.1180 H   0  0  0  0  0  0  0  0  0  0  0  0
    9.2137    9.3181   22.6242 H   0  0  0  0  0  0  0  0  0  0  0  0
   10.2263    9.6514   24.0268 H   0  0  0  0  0  0  0  0  0  0  0  0
   12.5983   13.9668   22.6223 H   0  0  0  0  0  0  0  0  0  0  0  0
   11.5120   13.7970   21.2083 H   0  0  0  0  0  0  0  0  0  0  0  0
   12.5913   12.4562   21.6750 H   0  0  0  0  0  0  0  0  0  0  0  0
    6.3652   12.9281   28.1572 H   0  0  0  0  0  0  0  0  0  0  0  0
    8.2734   13.8661   27.9878 H   0  0  0  0  0  0  0  0  0  0  0  0
  1  8  1  0  0  0  0
  1 13  1  0  0  0  0
  1 14  1  0  0  0  0
  2  9  1  0  0  0  0
  2 11  2  0  0  0  0
  2 15  1  0  0  0  0
  3  4  1  0  0  0  0
  3  8  1  0  0  0  0
  4  9  1  0  0  0  0
  5  8  1  0  0  0  0
  5  9  1  0  0  0  0
  6  8  1  0  0  0  0
  6 12  1  0  0  0  0
  7  9  1  0  0  0  0
  7 12  1  0  0  0  0
 10 15  1  0  0  0  0
  3 16  1  0  0  0  0
  3 17  1  0  0  0  0
  4 18  1  0  0  0  0
  4 19  1  0  0  0  0
  5 20  1  0  0  0  0
  5 21  1  0  0  0  0
  6 22  1  0  0  0  0
  6 23  1  0  0  0  0
  7 24  1  0  0  0  0
  7 25  1  0  0  0  0
 10 26  1  0  0  0  0
 10 27  1  0  0  0  0
 10 28  1  0  0  0  0
 13 29  1  0  0  0  0
 14 30  1  0  0  0  0
M  END
> <id>
EN300-28247282

> <smiles>
COC(=O)C1(CCC2(C1)B(O)O)COC2

> <IUPAC Name>
[5-(methoxycarbonyl)-3-oxabicyclo[3.2.1]octan-1-yl]boronic acid

> <URL>
https://www.enaminestore.com/catalog/EN300-28247282

> <ROCS_ShapeQuery>
x0812_0A_x1140_0A_x1097_0A_x0365_0A_x1097_0A_x0310_0A

> <ROCS_TanimotoCombo>
0.729 

> <ROCS_ShapeTanimoto>
0.240 

> <ROCS_ColorTanimoto>
0.489 

> <ROCS_RefTversky>
0.216 

> <ROCS_RefColorTversky>
0.511 

> <ROCS_RefTverskyCombo>
0.726 

> <ROCS_FitTversky>
1.886 

> <ROCS_FitColorTversky>
0.919 

> <ROCS_FitTverskyCombo>
2.804 

> <ROCS_ColorScore>
-7.547

> <ROCS_Overlap>
2180.252

> <ROCS_Rank>
95                  

$$$$
untitled-dbase-560265_0
  -OEChem-02092408543D

 20 21  0     0  0  0  0  0  0999 V2000
    8.6955   10.5050   25.3300 C   0  0  0  0  0  0  0  0  0  0  0  0
    7.5469   10.4917   23.5360 C   0  0  0  0  0  0  0  0  0  0  0  0
    9.1517   11.8752   23.7641 C   0  0  0  0  0  0  0  0  0  0  0  0
    7.8334   11.6238   24.6091 C   0  0  0  0  0  0  0  0  0  0  0  0
    9.0574   10.3316   23.8348 C   0  0  0  0  0  0  0  0  0  0  0  0
    6.2488   13.5284   24.2064 C   0  0  0  0  0  0  0  0  0  0  0  0
    6.9013   12.6081   25.1987 C   0  0  0  0  0  0  0  0  0  0  0  0
    9.9443    9.3943   23.2788 O   0  0  0  0  0  0  0  0  0  0  0  0
    7.5464   13.3847   26.1245 F   0  0  0  0  0  0  0  0  0  0  0  0
    5.9063   11.9709   25.8917 F   0  0  0  0  0  0  0  0  0  0  0  0
    9.4885   10.8511   26.0008 H   0  0  0  0  0  0  0  0  0  0  0  0
    8.1426    9.6907   25.8096 H   0  0  0  0  0  0  0  0  0  0  0  0
    6.8845    9.6769   23.8458 H   0  0  0  0  0  0  0  0  0  0  0  0
    7.2679   10.8246   22.5309 H   0  0  0  0  0  0  0  0  0  0  0  0
    9.0257   12.3399   22.7807 H   0  0  0  0  0  0  0  0  0  0  0  0
    9.9874   12.3518   24.2867 H   0  0  0  0  0  0  0  0  0  0  0  0
    5.5772   14.2226   24.7223 H   0  0  0  0  0  0  0  0  0  0  0  0
    5.6743   12.9484   23.4766 H   0  0  0  0  0  0  0  0  0  0  0  0
    6.9966   14.1169   23.6628 H   0  0  0  0  0  0  0  0  0  0  0  0
    9.9589    9.5365   22.3137 H   0  0  0  0  0  0  0  0  0  0  0  0
  1  4  1  1  0  0  0
  1  5  1  1  0  0  0
  2  4  1  0  0  0  0
  2  5  1  0  0  0  0
  3  4  1  0  0  0  0
  3  5  1  0  0  0  0
  4  7  1  0  0  0  0
  5  8  1  0  0  0  0
  6  7  1  0  0  0  0
  7  9  1  0  0  0  0
  7 10  1  0  0  0  0
  1 11  1  0  0  0  0
  1 12  1  0  0  0  0
  2 13  1  0  0  0  0
  2 14  1  0  0  0  0
  3 15  1  0  0  0  0
  3 16  1  0  0  0  0
  6 17  1  0  0  0  0
  6 18  1  0  0  0  0
  6 19  1  0  0  0  0
  8 20  1  0  0  0  0
M  END
> <id>
EN300-37332419

> <smiles>
CC(F)(F)[C@]1(C[C@@]2(O)C1)C2

> <IUPAC Name>
3-(1,1-difluoroethyl)bicyclo[1.1.1]pentan-1-ol

> <CAS>
2751620-81-0

> <URL>
https://www.enaminestore.com/catalog/EN300-37332419

> <ROCS_ShapeQuery>
x0812_0A_x1140_0A_x1097_0A_x0365_0A_x1097_0A_x0310_0A

> <ROCS_TanimotoCombo>
0.728 

> <ROCS_ShapeTanimoto>
0.188 

> <ROCS_ColorTanimoto>
0.540 

> <ROCS_RefTversky>
0.173 

> <ROCS_RefColorTversky>
0.582 

> <ROCS_RefTverskyCombo>
0.755 

> <ROCS_FitTversky>
1.848 

> <ROCS_FitColorTversky>
0.882 

> <ROCS_FitTverskyCombo>
2.730 

> <ROCS_ColorScore>
-8.645

> <ROCS_Overlap>
1752.654

> <ROCS_Rank>
96                  

$$$$
untitled-dbase-218443_1
  -OEChem-02092408543D

 24 25  0     1  0  0  0  0  0999 V2000
    9.2808    9.9764   23.7844 C   0  0  0  0  0  0  0  0  0  0  0  0
    9.2888   12.3164   22.0504 C   0  0  0  0  0  0  0  0  0  0  0  0
    9.5162   10.4779   25.1910 C   0  0  0  0  0  0  0  0  0  0  0  0
    7.1974   10.5546   24.5934 C   0  0  0  0  0  0  0  0  0  0  0  0
    8.4025   12.6070   24.4091 C   0  0  0  0  0  0  0  0  0  0  0  0
    7.9642   10.5317   23.2690 C   0  0  1  0  0  0  0  0  0  0  0  0
    8.1645   12.0289   22.9962 C   0  0  2  0  0  0  0  0  0  0  0  0
    8.2657   11.3712   25.3281 C   0  0  2  0  0  0  0  0  0  0  0  0
   10.4761   14.0830   21.0240 C   0  0  0  0  0  0  0  0  0  0  0  0
   10.0438    9.2617   23.1537 O   0  0  0  0  0  0  0  0  0  0  0  0
    9.9626   11.4533   21.5044 O   0  0  0  0  0  0  0  0  0  0  0  0
    9.4298   13.6649   21.9064 O   0  0  0  0  0  0  0  0  0  0  0  0
    9.4923    9.6369   25.8887 H   0  0  0  0  0  0  0  0  0  0  0  0
   10.4494   11.0397   25.2651 H   0  0  0  0  0  0  0  0  0  0  0  0
    6.2340   11.0705   24.5228 H   0  0  0  0  0  0  0  0  0  0  0  0
    7.0508    9.5600   25.0291 H   0  0  0  0  0  0  0  0  0  0  0  0
    9.3716   13.1031   24.5261 H   0  0  0  0  0  0  0  0  0  0  0  0
    7.6173   13.3355   24.6442 H   0  0  0  0  0  0  0  0  0  0  0  0
    7.5200    9.9395   22.4695 H   0  0  0  0  0  0  0  0  0  0  0  0
    7.2548   12.4652   22.5671 H   0  0  0  0  0  0  0  0  0  0  0  0
    8.0298   11.6253   26.3636 H   0  0  0  0  0  0  0  0  0  0  0  0
   10.5027   15.1746   20.9806 H   0  0  0  0  0  0  0  0  0  0  0  0
   10.2990   13.6722   20.0269 H   0  0  0  0  0  0  0  0  0  0  0  0
   11.4310   13.7124   21.4042 H   0  0  0  0  0  0  0  0  0  0  0  0
  1  3  1  0  0  0  0
  1  6  1  0  0  0  0
  1 10  2  0  0  0  0
  2  7  1  1  0  0  0
  2 11  2  0  0  0  0
  2 12  1  0  0  0  0
  3  8  1  0  0  0  0
  4  6  1  6  0  0  0
  4  8  1  6  0  0  0
  5  7  1  0  0  0  0
  5  8  1  0  0  0  0
  6  7  1  0  0  0  0
  9 12  1  0  0  0  0
  3 13  1  0  0  0  0
  3 14  1  0  0  0  0
  4 15  1  0  0  0  0
  4 16  1  0  0  0  0
  5 17  1  0  0  0  0
  5 18  1  0  0  0  0
  6 19  1  0  0  0  0
  7 20  1  0  0  0  0
  8 21  1  0  0  0  0
  9 22  1  0  0  0  0
  9 23  1  0  0  0  0
  9 24  1  0  0  0  0
M  END
> <id>
EN300-28222000

> <smiles>
COC(=O)[C@@H]1C[C@H]2C[C@@H]1C(=O)C2 |&1:4,6,8,r|

> <IUPAC Name>
rac-methyl (1R,2S,4S)-6-oxobicyclo[2.2.1]heptane-2-carboxylate

> <CAS>
70680-88-5

> <Purity>
95

> <URL>
https://www.enaminestore.com/catalog/EN300-28222000

> <ROCS_ShapeQuery>
x0812_0A_x1140_0A_x1097_0A_x0365_0A_x1097_0A_x0310_0A

> <ROCS_TanimotoCombo>
0.728 

> <ROCS_ShapeTanimoto>
0.203 

> <ROCS_ColorTanimoto>
0.525 

> <ROCS_RefTversky>
0.186 

> <ROCS_RefColorTversky>
0.546 

> <ROCS_RefTverskyCombo>
0.733 

> <ROCS_FitTversky>
1.812 

> <ROCS_FitColorTversky>
0.932 

> <ROCS_FitTverskyCombo>
2.743 

> <ROCS_ColorScore>
-8.082

> <ROCS_Overlap>
1883.546

> <ROCS_Rank>
97                  

$$$$
untitled-dbase-470572_2
  -OEChem-02092408543D

 33 35  0     0  0  0  0  0  0999 V2000
    9.7421   12.1653   22.3553 C   0  0  0  0  0  0  0  0  0  0  0  0
    8.9765   11.9890   24.9221 C   0  0  0  0  0  0  0  0  0  0  0  0
    7.4417   11.5167   23.5774 C   0  0  0  0  0  0  0  0  0  0  0  0
    9.1668    8.9965   22.5160 C   0  0  0  0  0  0  0  0  0  0  0  0
   10.6806    9.4625   23.8432 C   0  0  0  0  0  0  0  0  0  0  0  0
    9.0142   11.4046   23.4532 C   0  0  0  0  0  0  0  0  0  0  0  0
    9.2210    9.8835   23.7515 C   0  0  0  0  0  0  0  0  0  0  0  0
    7.7943   10.9409   25.0083 C   0  0  0  0  0  0  0  0  0  0  0  0
   11.5238   15.3466   22.6615 C   0  0  0  0  0  0  0  0  0  0  0  0
    6.7909   11.0334   26.1220 C   0  0  0  0  0  0  0  0  0  0  0  0
   10.9955   14.1250   21.9402 C   0  0  0  0  0  0  0  0  0  0  0  0
    5.5868   10.3363   25.7793 N   0  0  0  0  0  0  0  0  0  0  0  0
    9.8199   11.7858   21.1947 O   0  0  0  0  0  0  0  0  0  0  0  0
   10.5908    8.7409   22.5902 O   0  0  0  0  0  0  0  0  0  0  0  0
    8.3388    9.5884   24.8616 O   0  0  0  0  0  0  0  0  0  0  0  0
   10.2776   13.3084   22.8707 O   0  0  0  0  0  0  0  0  0  0  0  0
    9.8453   11.7764   25.5524 H   0  0  0  0  0  0  0  0  0  0  0  0
    8.7097   13.0471   25.0236 H   0  0  0  0  0  0  0  0  0  0  0  0
    7.0162   12.5260   23.5399 H   0  0  0  0  0  0  0  0  0  0  0  0
    6.8548   10.8563   22.9322 H   0  0  0  0  0  0  0  0  0  0  0  0
    8.5930    8.0713   22.6294 H   0  0  0  0  0  0  0  0  0  0  0  0
    8.8920    9.4767   21.5727 H   0  0  0  0  0  0  0  0  0  0  0  0
   11.4297   10.2579   23.7971 H   0  0  0  0  0  0  0  0  0  0  0  0
   10.9215    8.7882   24.6709 H   0  0  0  0  0  0  0  0  0  0  0  0
   10.7044   15.9356   23.0829 H   0  0  0  0  0  0  0  0  0  0  0  0
   12.2015   15.0543   23.4703 H   0  0  0  0  0  0  0  0  0  0  0  0
   12.0988   15.9798   21.9777 H   0  0  0  0  0  0  0  0  0  0  0  0
    7.2289   10.5877   27.0229 H   0  0  0  0  0  0  0  0  0  0  0  0
    6.5644   12.0914   26.2992 H   0  0  0  0  0  0  0  0  0  0  0  0
   11.8200   13.5403   21.5212 H   0  0  0  0  0  0  0  0  0  0  0  0
   10.3180   14.4187   21.1330 H   0  0  0  0  0  0  0  0  0  0  0  0
    4.8131   10.9720   25.7912 H   0  0  0  0  0  0  0  0  0  0  0  0
    5.6747    9.9409   24.8634 H   0  0  0  0  0  0  0  0  0  0  0  0
  1  6  1  1  0  0  0
  1 13  2  0  0  0  0
  1 16  1  0  0  0  0
  2  6  1  0  0  0  0
  2  8  1  0  0  0  0
  3  6  1  0  0  0  0
  3  8  1  0  0  0  0
  4  7  1  0  0  0  0
  4 14  1  0  0  0  0
  5  7  1  0  0  0  0
  5 14  1  0  0  0  0
  6  7  1  0  0  0  0
  7 15  1  0  0  0  0
  8 10  1  1  0  0  0
  8 15  1  0  0  0  0
  9 11  1  0  0  0  0
 10 12  1  0  0  0  0
 11 16  1  0  0  0  0
  2 17  1  0  0  0  0
  2 18  1  0  0  0  0
  3 19  1  0  0  0  0
  3 20  1  0  0  0  0
  4 21  1  0  0  0  0
  4 22  1  0  0  0  0
  5 23  1  0  0  0  0
  5 24  1  0  0  0  0
  9 25  1  0  0  0  0
  9 26  1  0  0  0  0
  9 27  1  0  0  0  0
 10 28  1  0  0  0  0
 10 29  1  0  0  0  0
 11 30  1  0  0  0  0
 11 31  1  0  0  0  0
 12 32  1  0  0  0  0
 12 33  1  0  0  0  0
M  END
> <id>
EN300-39870136

> <smiles>
CCOC(=O)[C@]1(C[C@@]2(CN)C1)C3(COC3)O2

> <IUPAC Name>
ethyl 4-(aminomethyl)-3-oxaspiro[bicyclo[2.1.1]hexane-2,3'-oxetane]-1-carboxylate

> <URL>
https://www.enaminestore.com/catalog/EN300-39870136

> <ROCS_ShapeQuery>
x0812_0A_x1140_0A_x1097_0A_x0365_0A_x1097_0A_x0310_0A

> <ROCS_TanimotoCombo>
0.728 

> <ROCS_ShapeTanimoto>
0.268 

> <ROCS_ColorTanimoto>
0.460 

> <ROCS_RefTversky>
0.237 

> <ROCS_RefColorTversky>
0.586 

> <ROCS_RefTverskyCombo>
0.823 

> <ROCS_FitTversky>
1.978 

> <ROCS_FitColorTversky>
0.682 

> <ROCS_FitTverskyCombo>
2.660 

> <ROCS_ColorScore>
-8.800

> <ROCS_Overlap>
2396.726

> <ROCS_Rank>
98                  

$$$$
untitled-dbase-559716_2
  -OEChem-02092408543D

 33 35  0     0  0  0  0  0  0999 V2000
    9.7421   12.1653   22.3553 C   0  0  0  0  0  0  0  0  0  0  0  0
    8.9765   11.9890   24.9221 C   0  0  0  0  0  0  0  0  0  0  0  0
    7.4417   11.5167   23.5774 C   0  0  0  0  0  0  0  0  0  0  0  0
    9.1668    8.9965   22.5160 C   0  0  0  0  0  0  0  0  0  0  0  0
   10.6806    9.4625   23.8432 C   0  0  0  0  0  0  0  0  0  0  0  0
    9.0142   11.4046   23.4532 C   0  0  0  0  0  0  0  0  0  0  0  0
    9.2210    9.8835   23.7515 C   0  0  0  0  0  0  0  0  0  0  0  0
    7.7943   10.9409   25.0083 C   0  0  0  0  0  0  0  0  0  0  0  0
   11.5238   15.3466   22.6615 C   0  0  0  0  0  0  0  0  0  0  0  0
    6.7909   11.0334   26.1220 C   0  0  0  0  0  0  0  0  0  0  0  0
   10.9955   14.1250   21.9402 C   0  0  0  0  0  0  0  0  0  0  0  0
    5.5868   10.3363   25.7793 N   0  0  0  0  0  0  0  0  0  0  0  0
    9.8199   11.7858   21.1947 O   0  0  0  0  0  0  0  0  0  0  0  0
   10.5908    8.7409   22.5902 O   0  0  0  0  0  0  0  0  0  0  0  0
    8.3388    9.5884   24.8616 O   0  0  0  0  0  0  0  0  0  0  0  0
   10.2776   13.3084   22.8707 O   0  0  0  0  0  0  0  0  0  0  0  0
    9.8453   11.7764   25.5524 H   0  0  0  0  0  0  0  0  0  0  0  0
    8.7097   13.0471   25.0236 H   0  0  0  0  0  0  0  0  0  0  0  0
    7.0162   12.5260   23.5399 H   0  0  0  0  0  0  0  0  0  0  0  0
    6.8548   10.8563   22.9322 H   0  0  0  0  0  0  0  0  0  0  0  0
    8.5930    8.0713   22.6294 H   0  0  0  0  0  0  0  0  0  0  0  0
    8.8920    9.4767   21.5727 H   0  0  0  0  0  0  0  0  0  0  0  0
   11.4297   10.2579   23.7971 H   0  0  0  0  0  0  0  0  0  0  0  0
   10.9215    8.7882   24.6709 H   0  0  0  0  0  0  0  0  0  0  0  0
   10.7044   15.9356   23.0829 H   0  0  0  0  0  0  0  0  0  0  0  0
   12.2015   15.0543   23.4703 H   0  0  0  0  0  0  0  0  0  0  0  0
   12.0988   15.9798   21.9777 H   0  0  0  0  0  0  0  0  0  0  0  0
    7.2289   10.5877   27.0229 H   0  0  0  0  0  0  0  0  0  0  0  0
    6.5644   12.0914   26.2992 H   0  0  0  0  0  0  0  0  0  0  0  0
   11.8200   13.5403   21.5212 H   0  0  0  0  0  0  0  0  0  0  0  0
   10.3180   14.4187   21.1330 H   0  0  0  0  0  0  0  0  0  0  0  0
    4.8131   10.9720   25.7912 H   0  0  0  0  0  0  0  0  0  0  0  0
    5.6747    9.9409   24.8634 H   0  0  0  0  0  0  0  0  0  0  0  0
  1  6  1  1  0  0  0
  1 13  2  0  0  0  0
  1 16  1  0  0  0  0
  2  6  1  0  0  0  0
  2  8  1  0  0  0  0
  3  6  1  0  0  0  0
  3  8  1  0  0  0  0
  4  7  1  0  0  0  0
  4 14  1  0  0  0  0
  5  7  1  0  0  0  0
  5 14  1  0  0  0  0
  6  7  1  0  0  0  0
  7 15  1  0  0  0  0
  8 10  1  1  0  0  0
  8 15  1  0  0  0  0
  9 11  1  0  0  0  0
 10 12  1  0  0  0  0
 11 16  1  0  0  0  0
  2 17  1  0  0  0  0
  2 18  1  0  0  0  0
  3 19  1  0  0  0  0
  3 20  1  0  0  0  0
  4 21  1  0  0  0  0
  4 22  1  0  0  0  0
  5 23  1  0  0  0  0
  5 24  1  0  0  0  0
  9 25  1  0  0  0  0
  9 26  1  0  0  0  0
  9 27  1  0  0  0  0
 10 28  1  0  0  0  0
 10 29  1  0  0  0  0
 11 30  1  0  0  0  0
 11 31  1  0  0  0  0
 12 32  1  0  0  0  0
 12 33  1  0  0  0  0
M  END
> <id>
EN300-37375234

> <smiles>
Cl.CCOC(=O)[C@]1(C[C@@]2(CN)C1)C3(COC3)O2

> <IUPAC Name>
ethyl 4-(aminomethyl)-3-oxaspiro[bicyclo[2.1.1]hexane-2,3'-oxetane]-1-carboxylate hydrochloride

> <CAS>
2490400-46-7

> <URL>
https://www.enaminestore.com/catalog/EN300-37375234

> <ROCS_ShapeQuery>
x0812_0A_x1140_0A_x1097_0A_x0365_0A_x1097_0A_x0310_0A

> <ROCS_TanimotoCombo>
0.728 

> <ROCS_ShapeTanimoto>
0.268 

> <ROCS_ColorTanimoto>
0.460 

> <ROCS_RefTversky>
0.237 

> <ROCS_RefColorTversky>
0.586 

> <ROCS_RefTverskyCombo>
0.823 

> <ROCS_FitTversky>
1.978 

> <ROCS_FitColorTversky>
0.682 

> <ROCS_FitTverskyCombo>
2.660 

> <ROCS_ColorScore>
-8.800

> <ROCS_Overlap>
2396.726

> <ROCS_Rank>
99                  

$$$$
untitled-dbase-254092_2
  -OEChem-02092408543D

 33 35  0     0  0  0  0  0  0999 V2000
    9.7423   12.1647   22.3553 C   0  0  0  0  0  0  0  0  0  0  0  0
    8.9767   11.9890   24.9220 C   0  0  0  0  0  0  0  0  0  0  0  0
    7.4416   11.5167   23.5774 C   0  0  0  0  0  0  0  0  0  0  0  0
    9.1661    8.9958   22.5164 C   0  0  0  0  0  0  0  0  0  0  0  0
   10.6803    9.4623   23.8428 C   0  0  0  0  0  0  0  0  0  0  0  0
    9.0140   11.4043   23.4531 C   0  0  0  0  0  0  0  0  0  0  0  0
    9.2207    9.8832   23.7516 C   0  0  0  0  0  0  0  0  0  0  0  0
    7.7944   10.9410   25.0085 C   0  0  0  0  0  0  0  0  0  0  0  0
   11.5253   15.3453   22.6621 C   0  0  0  0  0  0  0  0  0  0  0  0
    6.7907   11.0338   26.1216 C   0  0  0  0  0  0  0  0  0  0  0  0
   10.9966   14.1239   21.9406 C   0  0  0  0  0  0  0  0  0  0  0  0
    5.5867   10.3365   25.7788 N   0  0  0  0  0  0  0  0  0  0  0  0
    9.8201   11.7853   21.1947 O   0  0  0  0  0  0  0  0  0  0  0  0
   10.5908    8.7423   22.5889 O   0  0  0  0  0  0  0  0  0  0  0  0
    8.3388    9.5884   24.8621 O   0  0  0  0  0  0  0  0  0  0  0  0
   10.2782   13.3076   22.8709 O   0  0  0  0  0  0  0  0  0  0  0  0
    9.8455   11.7766   25.5518 H   0  0  0  0  0  0  0  0  0  0  0  0
    8.7101   13.0474   25.0233 H   0  0  0  0  0  0  0  0  0  0  0  0
    7.0166   12.5264   23.5399 H   0  0  0  0  0  0  0  0  0  0  0  0
    6.8545   10.8563   22.9322 H   0  0  0  0  0  0  0  0  0  0  0  0
    8.5940    8.0699   22.6310 H   0  0  0  0  0  0  0  0  0  0  0  0
    8.8898    9.4754   21.5732 H   0  0  0  0  0  0  0  0  0  0  0  0
   11.4292   10.2583   23.7982 H   0  0  0  0  0  0  0  0  0  0  0  0
   10.9218    8.7868   24.6695 H   0  0  0  0  0  0  0  0  0  0  0  0
   10.7062   15.9346   23.0834 H   0  0  0  0  0  0  0  0  0  0  0  0
   12.2028   15.0526   23.4709 H   0  0  0  0  0  0  0  0  0  0  0  0
   12.1006   15.9783   21.9784 H   0  0  0  0  0  0  0  0  0  0  0  0
    7.2283   10.5886   27.0230 H   0  0  0  0  0  0  0  0  0  0  0  0
    6.5638   12.0919   26.2985 H   0  0  0  0  0  0  0  0  0  0  0  0
   11.8209   13.5390   21.5216 H   0  0  0  0  0  0  0  0  0  0  0  0
   10.3193   14.4181   21.1333 H   0  0  0  0  0  0  0  0  0  0  0  0
    4.8130   10.9721   25.7901 H   0  0  0  0  0  0  0  0  0  0  0  0
    5.6750    9.9406   24.8632 H   0  0  0  0  0  0  0  0  0  0  0  0
  1  6  1  0  0  0  0
  1 13  2  0  0  0  0
  1 16  1  0  0  0  0
  2  6  1  0  0  0  0
  2  8  1  0  0  0  0
  3  6  1  0  0  0  0
  3  8  1  0  0  0  0
  4  7  1  0  0  0  0
  4 14  1  0  0  0  0
  5  7  1  0  0  0  0
  5 14  1  0  0  0  0
  6  7  1  0  0  0  0
  7 15  1  0  0  0  0
  8 10  1  0  0  0  0
  8 15  1  0  0  0  0
  9 11  1  0  0  0  0
 10 12  1  0  0  0  0
 11 16  1  0  0  0  0
  2 17  1  0  0  0  0
  2 18  1  0  0  0  0
  3 19  1  0  0  0  0
  3 20  1  0  0  0  0
  4 21  1  0  0  0  0
  4 22  1  0  0  0  0
  5 23  1  0  0  0  0
  5 24  1  0  0  0  0
  9 25  1  0  0  0  0
  9 26  1  0  0  0  0
  9 27  1  0  0  0  0
 10 28  1  0  0  0  0
 10 29  1  0  0  0  0
 11 30  1  0  0  0  0
 11 31  1  0  0  0  0
 12 32  1  0  0  0  0
 12 33  1  0  0  0  0
M  END
> <id>
EN300-2009020

> <smiles>
CCOC(=O)C1(CC2(CN)C1)C3(COC3)O2

> <MDLNUMBER>
MFCD31690928

> <IUPAC Name>
ethyl 4-(aminomethyl)-3-oxaspiro[bicyclo[2.1.1]hexane-2,3'-oxetane]-1-carboxylate

> <CAS>
2490375-55-6

> <URL>
https://www.enaminestore.com/catalog/EN300-2009020

> <ROCS_ShapeQuery>
x0812_0A_x1140_0A_x1097_0A_x0365_0A_x1097_0A_x0310_0A

> <ROCS_TanimotoCombo>
0.728 

> <ROCS_ShapeTanimoto>
0.268 

> <ROCS_ColorTanimoto>
0.460 

> <ROCS_RefTversky>
0.237 

> <ROCS_RefColorTversky>
0.586 

> <ROCS_RefTverskyCombo>
0.823 

> <ROCS_FitTversky>
1.978 

> <ROCS_FitColorTversky>
0.682 

> <ROCS_FitTverskyCombo>
2.660 

> <ROCS_ColorScore>
-8.800

> <ROCS_Overlap>
2396.857

> <ROCS_Rank>
100                 

$$$$
untitled-dbase-402516_2
  -OEChem-02092408543D

 33 35  0     0  0  0  0  0  0999 V2000
    9.7423   12.1647   22.3553 C   0  0  0  0  0  0  0  0  0  0  0  0
    8.9767   11.9890   24.9220 C   0  0  0  0  0  0  0  0  0  0  0  0
    7.4416   11.5167   23.5774 C   0  0  0  0  0  0  0  0  0  0  0  0
    9.1661    8.9958   22.5164 C   0  0  0  0  0  0  0  0  0  0  0  0
   10.6803    9.4623   23.8428 C   0  0  0  0  0  0  0  0  0  0  0  0
    9.0140   11.4043   23.4531 C   0  0  0  0  0  0  0  0  0  0  0  0
    9.2207    9.8832   23.7516 C   0  0  0  0  0  0  0  0  0  0  0  0
    7.7944   10.9410   25.0085 C   0  0  0  0  0  0  0  0  0  0  0  0
   11.5253   15.3453   22.6621 C   0  0  0  0  0  0  0  0  0  0  0  0
    6.7907   11.0338   26.1216 C   0  0  0  0  0  0  0  0  0  0  0  0
   10.9966   14.1239   21.9406 C   0  0  0  0  0  0  0  0  0  0  0  0
    5.5867   10.3365   25.7788 N   0  0  0  0  0  0  0  0  0  0  0  0
    9.8201   11.7853   21.1947 O   0  0  0  0  0  0  0  0  0  0  0  0
   10.5908    8.7423   22.5889 O   0  0  0  0  0  0  0  0  0  0  0  0
    8.3388    9.5884   24.8621 O   0  0  0  0  0  0  0  0  0  0  0  0
   10.2782   13.3076   22.8709 O   0  0  0  0  0  0  0  0  0  0  0  0
    9.8455   11.7766   25.5518 H   0  0  0  0  0  0  0  0  0  0  0  0
    8.7101   13.0474   25.0233 H   0  0  0  0  0  0  0  0  0  0  0  0
    7.0166   12.5264   23.5399 H   0  0  0  0  0  0  0  0  0  0  0  0
    6.8545   10.8563   22.9322 H   0  0  0  0  0  0  0  0  0  0  0  0
    8.5940    8.0699   22.6310 H   0  0  0  0  0  0  0  0  0  0  0  0
    8.8898    9.4754   21.5732 H   0  0  0  0  0  0  0  0  0  0  0  0
   11.4292   10.2583   23.7982 H   0  0  0  0  0  0  0  0  0  0  0  0
   10.9218    8.7868   24.6695 H   0  0  0  0  0  0  0  0  0  0  0  0
   10.7062   15.9346   23.0834 H   0  0  0  0  0  0  0  0  0  0  0  0
   12.2028   15.0526   23.4709 H   0  0  0  0  0  0  0  0  0  0  0  0
   12.1006   15.9783   21.9784 H   0  0  0  0  0  0  0  0  0  0  0  0
    7.2283   10.5886   27.0230 H   0  0  0  0  0  0  0  0  0  0  0  0
    6.5638   12.0919   26.2985 H   0  0  0  0  0  0  0  0  0  0  0  0
   11.8209   13.5390   21.5216 H   0  0  0  0  0  0  0  0  0  0  0  0
   10.3193   14.4181   21.1333 H   0  0  0  0  0  0  0  0  0  0  0  0
    4.8130   10.9721   25.7901 H   0  0  0  0  0  0  0  0  0  0  0  0
    5.6750    9.9406   24.8632 H   0  0  0  0  0  0  0  0  0  0  0  0
  1  6  1  0  0  0  0
  1 13  2  0  0  0  0
  1 16  1  0  0  0  0
  2  6  1  0  0  0  0
  2  8  1  0  0  0  0
  3  6  1  0  0  0  0
  3  8  1  0  0  0  0
  4  7  1  0  0  0  0
  4 14  1  0  0  0  0
  5  7  1  0  0  0  0
  5 14  1  0  0  0  0
  6  7  1  0  0  0  0
  7 15  1  0  0  0  0
  8 10  1  0  0  0  0
  8 15  1  0  0  0  0
  9 11  1  0  0  0  0
 10 12  1  0  0  0  0
 11 16  1  0  0  0  0
  2 17  1  0  0  0  0
  2 18  1  0  0  0  0
  3 19  1  0  0  0  0
  3 20  1  0  0  0  0
  4 21  1  0  0  0  0
  4 22  1  0  0  0  0
  5 23  1  0  0  0  0
  5 24  1  0  0  0  0
  9 25  1  0  0  0  0
  9 26  1  0  0  0  0
  9 27  1  0  0  0  0
 10 28  1  0  0  0  0
 10 29  1  0  0  0  0
 11 30  1  0  0  0  0
 11 31  1  0  0  0  0
 12 32  1  0  0  0  0
 12 33  1  0  0  0  0
M  END
> <id>
EN300-2009019

> <smiles>
Cl.CCOC(=O)C1(CC2(CN)C1)C3(COC3)O2

> <MDLNUMBER>
MFCD31667186

> <IUPAC Name>
ethyl 4-(aminomethyl)-3-oxaspiro[bicyclo[2.1.1]hexane-2,3'-oxetane]-1-carboxylate hydrochloride

> <CAS>
2490400-46-7

> <Purity>
95

> <URL>
https://www.enaminestore.com/catalog/EN300-2009019

> <Saltdate>
Cl

> <ROCS_ShapeQuery>
x0812_0A_x1140_0A_x1097_0A_x0365_0A_x1097_0A_x0310_0A

> <ROCS_TanimotoCombo>
0.728 

> <ROCS_ShapeTanimoto>
0.268 

> <ROCS_ColorTanimoto>
0.460 

> <ROCS_RefTversky>
0.237 

> <ROCS_RefColorTversky>
0.586 

> <ROCS_RefTverskyCombo>
0.823 

> <ROCS_FitTversky>
1.978 

> <ROCS_FitColorTversky>
0.682 

> <ROCS_FitTverskyCombo>
2.660 

> <ROCS_ColorScore>
-8.800

> <ROCS_Overlap>
2396.857

> <ROCS_Rank>
101                 

$$$$
untitled-dbase-507367_9
  -OEChem-02092408543D

 31 33  0     0  0  0  0  0  0999 V2000
   13.4632   14.8542   20.3946 C   0  0  0  0  0  0  0  0  0  0  0  0
   13.2739   15.1957   21.7337 C   0  0  0  0  0  0  0  0  0  0  0  0
   12.7306   13.8095   19.8309 C   0  0  0  0  0  0  0  0  0  0  0  0
   12.3521   14.4924   22.5092 C   0  0  0  0  0  0  0  0  0  0  0  0
   11.8088   13.1063   20.6064 C   0  0  0  0  0  0  0  0  0  0  0  0
   11.6196   13.4477   21.9456 C   0  0  0  0  0  0  0  0  0  0  0  0
    9.8785   11.6753   22.3348 C   0  0  0  0  0  0  0  0  0  0  0  0
    9.1080   11.8784   24.8965 C   0  0  0  0  0  0  0  0  0  0  0  0
    7.5031   11.6379   23.5816 C   0  0  0  0  0  0  0  0  0  0  0  0
    8.1378    9.6227   24.8343 C   0  0  0  0  0  0  0  0  0  0  0  0
    9.0108   11.1863   23.4829 C   0  0  0  0  0  0  0  0  0  0  0  0
    7.7487   11.1025   25.0386 C   0  0  0  0  0  0  0  0  0  0  0  0
    6.7921   11.4057   26.1520 C   0  0  0  0  0  0  0  0  0  0  0  0
   10.6844   12.7345   22.7325 N   0  0  0  0  0  0  0  0  0  0  0  0
    9.8163   11.1449   21.2304 O   0  0  0  0  0  0  0  0  0  0  0  0
    9.0338    9.7509   23.7174 O   0  0  0  0  0  0  0  0  0  0  0  0
    6.4407   12.7087   26.0833 F   0  0  0  0  0  0  0  0  0  0  0  0
    7.4221   11.2180   27.3327 F   0  0  0  0  0  0  0  0  0  0  0  0
   14.1803   15.4021   19.7902 H   0  0  0  0  0  0  0  0  0  0  0  0
   13.8435   16.0095   22.1726 H   0  0  0  0  0  0  0  0  0  0  0  0
   12.8775   13.5445   18.7879 H   0  0  0  0  0  0  0  0  0  0  0  0
   12.2130   14.7676   23.5517 H   0  0  0  0  0  0  0  0  0  0  0  0
   11.2435   12.2940   20.1564 H   0  0  0  0  0  0  0  0  0  0  0  0
    9.9227   11.5378   25.5424 H   0  0  0  0  0  0  0  0  0  0  0  0
    9.0612   12.9729   24.9195 H   0  0  0  0  0  0  0  0  0  0  0  0
    7.2952   12.7082   23.4726 H   0  0  0  0  0  0  0  0  0  0  0  0
    6.7909   11.0688   22.9765 H   0  0  0  0  0  0  0  0  0  0  0  0
    8.6722    9.2032   25.6915 H   0  0  0  0  0  0  0  0  0  0  0  0
    7.2862    8.9953   24.5561 H   0  0  0  0  0  0  0  0  0  0  0  0
    5.9045   10.7800   26.1028 H   0  0  0  0  0  0  0  0  0  0  0  0
   10.6032   13.0427   23.6992 H   0  0  0  0  0  0  0  0  0  0  0  0
  1  2  1  0  0  0  0
  1  3  2  0  0  0  0
  2  4  2  0  0  0  0
  3  5  1  0  0  0  0
  4  6  1  0  0  0  0
  5  6  2  0  0  0  0
  6 14  1  0  0  0  0
  7 11  1  0  0  0  0
  7 14  1  0  0  0  0
  7 15  2  0  0  0  0
  8 11  1  0  0  0  0
  8 12  1  0  0  0  0
  9 11  1  0  0  0  0
  9 12  1  0  0  0  0
 10 12  1  0  0  0  0
 10 16  1  0  0  0  0
 11 16  1  0  0  0  0
 12 13  1  0  0  0  0
 13 17  1  0  0  0  0
 13 18  1  0  0  0  0
  1 19  1  0  0  0  0
  2 20  1  0  0  0  0
  3 21  1  0  0  0  0
  4 22  1  0  0  0  0
  5 23  1  0  0  0  0
  8 24  1  0  0  0  0
  8 25  1  0  0  0  0
  9 26  1  0  0  0  0
  9 27  1  0  0  0  0
 10 28  1  0  0  0  0
 10 29  1  0  0  0  0
 13 30  1  0  0  0  0
 14 31  1  0  0  0  0
M  END
> <id>
EN300-27755157

> <smiles>
FC(F)C1(CC2(C1)C(=O)NC=3C=CC=CC3)CO2

> <MDLNUMBER>
MFCD34168076

> <IUPAC Name>
4-(difluoromethyl)-N-phenyl-2-oxabicyclo[2.1.1]hexane-1-carboxamide

> <CAS>
2648956-61-8

> <Purity>
95

> <URL>
https://www.enaminestore.com/catalog/EN300-27755157

> <ROCS_ShapeQuery>
x0812_0A_x1140_0A_x1097_0A_x0365_0A_x1097_0A_x0310_0A

> <ROCS_TanimotoCombo>
0.728 

> <ROCS_ShapeTanimoto>
0.247 

> <ROCS_ColorTanimoto>
0.481 

> <ROCS_RefTversky>
0.224 

> <ROCS_RefColorTversky>
0.564 

> <ROCS_RefTverskyCombo>
0.788 

> <ROCS_FitTversky>
1.729 

> <ROCS_FitColorTversky>
0.765 

> <ROCS_FitTverskyCombo>
2.494 

> <ROCS_ColorScore>
-8.412

> <ROCS_Overlap>
2267.948

> <ROCS_Rank>
102                 

$$$$
untitled-dbase-587739_3
  -OEChem-02092408543D

 23 24  0     1  0  0  0  0  0999 V2000
    9.4327   11.3655   25.0360 C   0  0  0  0  0  0  0  0  0  0  0  0
    8.0040   12.2319   23.3385 C   0  0  0  0  0  0  0  0  0  0  0  0
    7.2681   10.4922   24.9732 C   0  0  0  0  0  0  0  0  0  0  0  0
    9.3133   10.3218   23.9339 C   0  0  2  0  0  0  0  0  0  0  0  0
    8.8904   11.1441   22.7095 C   0  0  2  0  0  0  0  0  0  0  0  0
    7.9980   11.8332   24.8319 C   0  0  1  0  0  0  0  0  0  0  0  0
    7.5072   12.9177   25.7618 C   0  0  0  0  0  0  0  0  0  0  0  0
    4.4514   11.9560   26.5550 N   0  5  0  0  0  0  0  0  0  0  0  0
    6.1179   13.2416   25.4336 N   0  0  0  0  0  0  0  0  0  0  0  0
    5.2513   12.5688   26.0205 N   0  3  0  0  0  0  0  0  0  0  0  0
    8.1591    9.5475   24.3326 O   0  0  0  0  0  0  0  0  0  0  0  0
   10.0150   11.7378   22.0837 O   0  0  0  0  0  0  0  0  0  0  0  0
    9.5935   10.9237   26.0255 H   0  0  0  0  0  0  0  0  0  0  0  0
   10.1882   12.1330   24.8409 H   0  0  0  0  0  0  0  0  0  0  0  0
    8.4248   13.2328   23.1872 H   0  0  0  0  0  0  0  0  0  0  0  0
    6.9924   12.2171   22.9181 H   0  0  0  0  0  0  0  0  0  0  0  0
    7.1459   10.1850   26.0173 H   0  0  0  0  0  0  0  0  0  0  0  0
    6.2944   10.4688   24.4745 H   0  0  0  0  0  0  0  0  0  0  0  0
   10.1936    9.6914   23.7914 H   0  0  0  0  0  0  0  0  0  0  0  0
    8.3324   10.5550   21.9742 H   0  0  0  0  0  0  0  0  0  0  0  0
    8.1223   13.8187   25.6596 H   0  0  0  0  0  0  0  0  0  0  0  0
    7.5639   12.5847   26.8043 H   0  0  0  0  0  0  0  0  0  0  0  0
    9.6750   12.3374   21.3983 H   0  0  0  0  0  0  0  0  0  0  0  0
  1  4  1  1  0  0  0
  1  6  1  0  0  0  0
  2  5  1  0  0  0  0
  2  6  1  0  0  0  0
  3  6  1  0  0  0  0
  3 11  1  0  0  0  0
  4  5  1  0  0  0  0
  4 11  1  0  0  0  0
  5 12  1  1  0  0  0
  6  7  1  1  0  0  0
  7  9  1  0  0  0  0
  8 10  2  0  0  0  0
  9 10  2  0  0  0  0
  1 13  1  0  0  0  0
  1 14  1  0  0  0  0
  2 15  1  0  0  0  0
  2 16  1  0  0  0  0
  3 17  1  0  0  0  0
  3 18  1  0  0  0  0
  4 19  1  0  0  0  0
  5 20  1  0  0  0  0
  7 21  1  0  0  0  0
  7 22  1  0  0  0  0
 12 23  1  0  0  0  0
M  CHG  2   8  -1  10   1
M  END
> <id>
EN300-37419942

> <smiles>
O[C@@H]1C[C@@]2(CN=[N+]=[N-])CO[C@@H]1C2 |&1:1,3,10,r|

> <IUPAC Name>
rac-(1R,4R,6R)-4-(azidomethyl)-2-oxabicyclo[2.2.1]heptan-6-ol

> <Purity>
95

> <URL>
https://www.enaminestore.com/catalog/EN300-37419942

> <ROCS_ShapeQuery>
x0812_0A_x1140_0A_x1097_0A_x0365_0A_x1097_0A_x0310_0A

> <ROCS_TanimotoCombo>
0.728 

> <ROCS_ShapeTanimoto>
0.211 

> <ROCS_ColorTanimoto>
0.517 

> <ROCS_RefTversky>
0.192 

> <ROCS_RefColorTversky>
0.563 

> <ROCS_RefTverskyCombo>
0.755 

> <ROCS_FitTversky>
1.870 

> <ROCS_FitColorTversky>
0.864 

> <ROCS_FitTverskyCombo>
2.734 

> <ROCS_ColorScore>
-8.356

> <ROCS_Overlap>
1942.031

> <ROCS_Rank>
103                 

$$$$
untitled-dbase-560830_0
  -OEChem-02092408543D

 23 24  0     0  0  0  0  0  0999 V2000
    9.7780   11.8620   22.2566 C   0  0  0  0  0  0  0  0  0  0  0  0
    7.4720   11.4759   23.5723 C   0  0  0  0  0  0  0  0  0  0  0  0
    9.0809   11.8610   24.8472 C   0  0  0  0  0  0  0  0  0  0  0  0
    9.1840    9.7177   23.6537 C   0  0  0  0  0  0  0  0  0  0  0  0
    9.0152   11.2328   23.4089 C   0  0  0  0  0  0  0  0  0  0  0  0
    7.8374   10.9037   24.9951 C   0  0  0  0  0  0  0  0  0  0  0  0
    6.8922   11.0266   26.1512 C   0  0  0  0  0  0  0  0  0  0  0  0
   10.8030   12.6871   22.6550 N   0  0  0  0  0  0  0  0  0  0  0  0
    5.6472   10.3749   25.8647 N   0  0  0  0  0  0  0  0  0  0  0  0
    9.4985   11.6277   21.0834 O   0  0  0  0  0  0  0  0  0  0  0  0
    8.3226    9.5482   24.7921 O   0  0  0  0  0  0  0  0  0  0  0  0
    7.1246   12.5140   23.5259 H   0  0  0  0  0  0  0  0  0  0  0  0
    6.8165   10.8479   22.9616 H   0  0  0  0  0  0  0  0  0  0  0  0
    9.9562   11.5991   25.4491 H   0  0  0  0  0  0  0  0  0  0  0  0
    8.8950   12.9377   24.9284 H   0  0  0  0  0  0  0  0  0  0  0  0
    8.8195    9.1116   22.8193 H   0  0  0  0  0  0  0  0  0  0  0  0
   10.2090    9.4443   23.9203 H   0  0  0  0  0  0  0  0  0  0  0  0
    7.3524   10.5615   27.0325 H   0  0  0  0  0  0  0  0  0  0  0  0
    6.7099   12.0915   26.3446 H   0  0  0  0  0  0  0  0  0  0  0  0
   10.9699   12.8117   23.6481 H   0  0  0  0  0  0  0  0  0  0  0  0
   11.3994   13.1766   21.9957 H   0  0  0  0  0  0  0  0  0  0  0  0
    4.9003   11.0398   25.9121 H   0  0  0  0  0  0  0  0  0  0  0  0
    5.6789    9.9779   24.9464 H   0  0  0  0  0  0  0  0  0  0  0  0
  1  5  1  1  0  0  0
  1  8  1  0  0  0  0
  1 10  2  0  0  0  0
  2  5  1  0  0  0  0
  2  6  1  0  0  0  0
  3  5  1  0  0  0  0
  3  6  1  0  0  0  0
  4  5  1  0  0  0  0
  4 11  1  0  0  0  0
  6  7  1  1  0  0  0
  6 11  1  0  0  0  0
  7  9  1  0  0  0  0
  2 12  1  0  0  0  0
  2 13  1  0  0  0  0
  3 14  1  0  0  0  0
  3 15  1  0  0  0  0
  4 16  1  0  0  0  0
  4 17  1  0  0  0  0
  7 18  1  0  0  0  0
  7 19  1  0  0  0  0
  8 20  1  0  0  0  0
  8 21  1  0  0  0  0
  9 22  1  0  0  0  0
  9 23  1  0  0  0  0
M  END
> <id>
EN300-37375296

> <smiles>
Cl.NC[C@]1(C[C@]2(C1)C(=O)N)OC2

> <IUPAC Name>
1-(aminomethyl)-2-oxabicyclo[2.1.1]hexane-4-carboxamide hydrochloride

> <CAS>
2260933-34-2

> <URL>
https://www.enaminestore.com/catalog/EN300-37375296

> <ROCS_ShapeQuery>
x0812_0A_x1140_0A_x1097_0A_x0365_0A_x1097_0A_x0310_0A

> <ROCS_TanimotoCombo>
0.728 

> <ROCS_ShapeTanimoto>
0.213 

> <ROCS_ColorTanimoto>
0.514 

> <ROCS_RefTversky>
0.193 

> <ROCS_RefColorTversky>
0.611 

> <ROCS_RefTverskyCombo>
0.804 

> <ROCS_FitTversky>
1.971 

> <ROCS_FitColorTversky>
0.765 

> <ROCS_FitTverskyCombo>
2.736 

> <ROCS_ColorScore>
-9.143

> <ROCS_Overlap>
1952.156

> <ROCS_Rank>
104                 

$$$$
untitled-dbase-470124_0
  -OEChem-02092408543D

 23 24  0     0  0  0  0  0  0999 V2000
    9.7780   11.8620   22.2566 C   0  0  0  0  0  0  0  0  0  0  0  0
    7.4720   11.4759   23.5723 C   0  0  0  0  0  0  0  0  0  0  0  0
    9.0809   11.8610   24.8472 C   0  0  0  0  0  0  0  0  0  0  0  0
    9.1840    9.7177   23.6537 C   0  0  0  0  0  0  0  0  0  0  0  0
    9.0152   11.2328   23.4089 C   0  0  0  0  0  0  0  0  0  0  0  0
    7.8374   10.9037   24.9951 C   0  0  0  0  0  0  0  0  0  0  0  0
    6.8922   11.0266   26.1512 C   0  0  0  0  0  0  0  0  0  0  0  0
   10.8030   12.6871   22.6550 N   0  0  0  0  0  0  0  0  0  0  0  0
    5.6472   10.3749   25.8647 N   0  0  0  0  0  0  0  0  0  0  0  0
    9.4985   11.6277   21.0834 O   0  0  0  0  0  0  0  0  0  0  0  0
    8.3226    9.5482   24.7921 O   0  0  0  0  0  0  0  0  0  0  0  0
    7.1246   12.5140   23.5259 H   0  0  0  0  0  0  0  0  0  0  0  0
    6.8165   10.8479   22.9616 H   0  0  0  0  0  0  0  0  0  0  0  0
    9.9562   11.5991   25.4491 H   0  0  0  0  0  0  0  0  0  0  0  0
    8.8950   12.9377   24.9284 H   0  0  0  0  0  0  0  0  0  0  0  0
    8.8195    9.1116   22.8193 H   0  0  0  0  0  0  0  0  0  0  0  0
   10.2090    9.4443   23.9203 H   0  0  0  0  0  0  0  0  0  0  0  0
    7.3524   10.5615   27.0325 H   0  0  0  0  0  0  0  0  0  0  0  0
    6.7099   12.0915   26.3446 H   0  0  0  0  0  0  0  0  0  0  0  0
   10.9699   12.8117   23.6481 H   0  0  0  0  0  0  0  0  0  0  0  0
   11.3994   13.1766   21.9957 H   0  0  0  0  0  0  0  0  0  0  0  0
    4.9003   11.0398   25.9121 H   0  0  0  0  0  0  0  0  0  0  0  0
    5.6789    9.9779   24.9464 H   0  0  0  0  0  0  0  0  0  0  0  0
  1  5  1  1  0  0  0
  1  8  1  0  0  0  0
  1 10  2  0  0  0  0
  2  5  1  0  0  0  0
  2  6  1  0  0  0  0
  3  5  1  0  0  0  0
  3  6  1  0  0  0  0
  4  5  1  0  0  0  0
  4 11  1  0  0  0  0
  6  7  1  1  0  0  0
  6 11  1  0  0  0  0
  7  9  1  0  0  0  0
  2 12  1  0  0  0  0
  2 13  1  0  0  0  0
  3 14  1  0  0  0  0
  3 15  1  0  0  0  0
  4 16  1  0  0  0  0
  4 17  1  0  0  0  0
  7 18  1  0  0  0  0
  7 19  1  0  0  0  0
  8 20  1  0  0  0  0
  8 21  1  0  0  0  0
  9 22  1  0  0  0  0
  9 23  1  0  0  0  0
M  END
> <id>
EN300-39870164

> <smiles>
NC[C@]1(C[C@]2(C1)C(=O)N)OC2

> <IUPAC Name>
1-(aminomethyl)-2-oxabicyclo[2.1.1]hexane-4-carboxamide

> <URL>
https://www.enaminestore.com/catalog/EN300-39870164

> <ROCS_ShapeQuery>
x0812_0A_x1140_0A_x1097_0A_x0365_0A_x1097_0A_x0310_0A

> <ROCS_TanimotoCombo>
0.728 

> <ROCS_ShapeTanimoto>
0.213 

> <ROCS_ColorTanimoto>
0.514 

> <ROCS_RefTversky>
0.193 

> <ROCS_RefColorTversky>
0.611 

> <ROCS_RefTverskyCombo>
0.804 

> <ROCS_FitTversky>
1.971 

> <ROCS_FitColorTversky>
0.765 

> <ROCS_FitTverskyCombo>
2.736 

> <ROCS_ColorScore>
-9.143

> <ROCS_Overlap>
1952.156

> <ROCS_Rank>
105                 

$$$$
untitled-dbase-497880_2
  -OEChem-02092408543D

 31 32  0     1  0  0  0  0  0999 V2000
    6.4766   12.8806   25.3868 C   0  0  0  0  0  0  0  0  0  0  0  0
    5.2235    9.3817   26.1878 C   0  0  0  0  0  0  0  0  0  0  0  0
    9.1501   11.2248   25.2262 C   0  0  0  0  0  0  0  0  0  0  0  0
    7.0337   11.9443   24.3542 C   0  0  1  0  0  0  0  0  0  0  0  0
    8.5533   12.1662   24.1710 C   0  0  2  0  0  0  0  0  0  0  0  0
    8.4237    9.9947   24.6760 C   0  0  1  0  0  0  0  0  0  0  0  0
    6.9407   10.4403   24.7288 C   0  0  1  0  0  0  0  0  0  0  0  0
    8.9803   11.4840   22.8530 C   0  0  2  0  0  0  0  0  0  0  0  0
    8.9000    9.9837   23.2040 C   0  0  1  0  0  0  0  0  0  0  0  0
    4.8116    9.2909   27.6276 C   0  0  0  0  0  0  0  0  0  0  0  0
    6.3420   10.1832   26.0122 N   0  0  0  0  0  0  0  0  0  0  0  0
    5.9447   12.5367   26.4319 O   0  0  0  0  0  0  0  0  0  0  0  0
    4.6100    8.7996   25.2977 O   0  0  0  0  0  0  0  0  0  0  0  0
    6.6405   14.1699   25.0021 O   0  0  0  0  0  0  0  0  0  0  0  0
   10.2962   11.8927   22.5140 O   0  0  0  0  0  0  0  0  0  0  0  0
   10.1592    9.3354   23.1177 O   0  0  0  0  0  0  0  0  0  0  0  0
    5.6282   10.0150   28.4347 F   0  0  0  0  0  0  0  0  0  0  0  0
    4.8367    8.0130   28.0848 F   0  0  0  0  0  0  0  0  0  0  0  0
    3.5516    9.7541   27.8276 F   0  0  0  0  0  0  0  0  0  0  0  0
   10.2408   11.1470   25.1669 H   0  0  0  0  0  0  0  0  0  0  0  0
    8.8670   11.4793   26.2520 H   0  0  0  0  0  0  0  0  0  0  0  0
    6.4825   12.1418   23.4272 H   0  0  0  0  0  0  0  0  0  0  0  0
    8.8876   13.2023   24.2694 H   0  0  0  0  0  0  0  0  0  0  0  0
    8.6415    9.0663   25.2106 H   0  0  0  0  0  0  0  0  0  0  0  0
    6.3433    9.8922   23.9918 H   0  0  0  0  0  0  0  0  0  0  0  0
    8.3098   11.7507   22.0291 H   0  0  0  0  0  0  0  0  0  0  0  0
    8.1888    9.4511   22.5637 H   0  0  0  0  0  0  0  0  0  0  0  0
    6.7617   10.6124   26.8349 H   0  0  0  0  0  0  0  0  0  0  0  0
    6.2806   14.7983   25.6638 H   0  0  0  0  0  0  0  0  0  0  0  0
   10.2740   12.8584   22.4102 H   0  0  0  0  0  0  0  0  0  0  0  0
   10.0334    8.4293   23.4449 H   0  0  0  0  0  0  0  0  0  0  0  0
  1  4  1  1  0  0  0
  1 12  2  0  0  0  0
  1 14  1  0  0  0  0
  2 10  1  0  0  0  0
  2 11  1  0  0  0  0
  2 13  2  0  0  0  0
  3  5  1  1  0  0  0
  3  6  1  1  0  0  0
  4  5  1  0  0  0  0
  4  7  1  0  0  0  0
  5  8  1  0  0  0  0
  6  7  1  0  0  0  0
  6  9  1  0  0  0  0
  7 11  1  1  0  0  0
  8  9  1  0  0  0  0
  8 15  1  1  0  0  0
  9 16  1  1  0  0  0
 10 17  1  0  0  0  0
 10 18  1  0  0  0  0
 10 19  1  0  0  0  0
  3 20  1  0  0  0  0
  3 21  1  0  0  0  0
  4 22  1  0  0  0  0
  5 23  1  0  0  0  0
  6 24  1  0  0  0  0
  7 25  1  0  0  0  0
  8 26  1  0  0  0  0
  9 27  1  0  0  0  0
 11 28  1  0  0  0  0
 14 29  1  0  0  0  0
 15 30  1  0  0  0  0
 16 31  1  0  0  0  0
M  END
> <id>
EN300-28286509

> <smiles>
O[C@@H]1[C@H](O)[C@@H]2C[C@H]1[C@@H](NC(=O)C(F)(F)F)[C@H]2C(=O)O |&1:1,2,4,6,7,15,r|

> <IUPAC Name>
rac-(1R,2S,3R,4S,5S,6R)-5,6-dihydroxy-3-(2,2,2-trifluoroacetamido)bicyclo[2.2.1]heptane-2-carboxylic acid

> <CAS>
2679939-92-3

> <URL>
https://www.enaminestore.com/catalog/EN300-28286509

> <ROCS_ShapeQuery>
x0812_0A_x1140_0A_x1097_0A_x0365_0A_x1097_0A_x0310_0A

> <ROCS_TanimotoCombo>
0.728 

> <ROCS_ShapeTanimoto>
0.248 

> <ROCS_ColorTanimoto>
0.480 

> <ROCS_RefTversky>
0.225 

> <ROCS_RefColorTversky>
0.652 

> <ROCS_RefTverskyCombo>
0.877 

> <ROCS_FitTversky>
1.687 

> <ROCS_FitColorTversky>
0.645 

> <ROCS_FitTverskyCombo>
2.333 

> <ROCS_ColorScore>
-9.879

> <ROCS_Overlap>
2277.098

> <ROCS_Rank>
106                 

$$$$
untitled-dbase-240996_8
  -OEChem-02092408543D

 44 46  0     1  0  0  0  0  0999 V2000
    5.2048   10.8201   26.5066 C   0  0  0  0  0  0  0  0  0  0  0  0
    8.2752   12.9218   23.4776 C   0  0  0  0  0  0  0  0  0  0  0  0
    7.9721   11.7974   25.6990 C   0  0  0  0  0  0  0  0  0  0  0  0
    6.4881   11.1863   23.7678 C   0  0  0  0  0  0  0  0  0  0  0  0
    9.9935   11.2950   24.3047 C   0  0  0  0  0  0  0  0  0  0  0  0
    8.5107   10.6824   22.3765 C   0  0  0  0  0  0  0  0  0  0  0  0
    8.2063    9.5541   24.5960 C   0  0  0  0  0  0  0  0  0  0  0  0
    9.0040   12.3932   24.7251 C   0  0  1  0  0  0  0  0  0  0  0  0
    7.5139   11.7783   22.7854 C   0  0  2  0  0  0  0  0  0  0  0  0
    7.1992   10.6405   25.0264 C   0  0  0  0  0  0  0  0  0  0  0  0
    9.2392   10.1426   23.6186 C   0  0  0  0  0  0  0  0  0  0  0  0
    3.7818   11.8179   28.7714 C   0  0  0  0  0  0  0  0  0  0  0  0
    3.5338    9.4104   29.4434 C   0  0  0  0  0  0  0  0  0  0  0  0
    5.8219   10.4319   29.2731 C   0  0  0  0  0  0  0  0  0  0  0  0
    4.4041   10.4240   28.7035 C   0  0  0  0  0  0  0  0  0  0  0  0
    6.2312   10.0890   25.9484 N   0  0  0  0  0  0  0  0  0  0  0  0
    4.9772   12.0081   26.3031 O   0  0  0  0  0  0  0  0  0  0  0  0
   10.1720    9.1417   23.2370 O   0  0  0  0  0  0  0  0  0  0  0  0
    4.4662   10.0190   27.3313 O   0  0  0  0  0  0  0  0  0  0  0  0
    7.5768   13.7185   23.7614 H   0  0  0  0  0  0  0  0  0  0  0  0
    8.9982   13.3650   22.7818 H   0  0  0  0  0  0  0  0  0  0  0  0
    8.4854   11.4384   26.6007 H   0  0  0  0  0  0  0  0  0  0  0  0
    7.2763   12.5836   26.0200 H   0  0  0  0  0  0  0  0  0  0  0  0
    5.7608   11.9602   24.0460 H   0  0  0  0  0  0  0  0  0  0  0  0
    5.9264   10.3845   23.2710 H   0  0  0  0  0  0  0  0  0  0  0  0
   10.7550   11.7036   23.6278 H   0  0  0  0  0  0  0  0  0  0  0  0
   10.5435   10.9197   25.1775 H   0  0  0  0  0  0  0  0  0  0  0  0
    7.9901    9.8668   21.8581 H   0  0  0  0  0  0  0  0  0  0  0  0
    9.2377   11.0755   21.6539 H   0  0  0  0  0  0  0  0  0  0  0  0
    8.7245    9.1341   25.4688 H   0  0  0  0  0  0  0  0  0  0  0  0
    7.6875    8.7085   24.1237 H   0  0  0  0  0  0  0  0  0  0  0  0
    9.5443   13.2121   25.2129 H   0  0  0  0  0  0  0  0  0  0  0  0
    6.9986   12.1608   21.8975 H   0  0  0  0  0  0  0  0  0  0  0  0
    4.4036   12.5484   28.2414 H   0  0  0  0  0  0  0  0  0  0  0  0
    2.7781   11.8333   28.3342 H   0  0  0  0  0  0  0  0  0  0  0  0
    3.7130   12.1653   29.8086 H   0  0  0  0  0  0  0  0  0  0  0  0
    3.9765    8.4088   29.3973 H   0  0  0  0  0  0  0  0  0  0  0  0
    2.5445    9.3323   28.9783 H   0  0  0  0  0  0  0  0  0  0  0  0
    3.4018    9.6830   30.4955 H   0  0  0  0  0  0  0  0  0  0  0  0
    6.2685    9.4322   29.2245 H   0  0  0  0  0  0  0  0  0  0  0  0
    6.4707   11.1270   28.7302 H   0  0  0  0  0  0  0  0  0  0  0  0
    5.8151   10.7164   30.3315 H   0  0  0  0  0  0  0  0  0  0  0  0
    6.3123    9.1090   26.1984 H   0  0  0  0  0  0  0  0  0  0  0  0
    9.6644    8.4330   22.8091 H   0  0  0  0  0  0  0  0  0  0  0  0
  1 16  1  0  0  0  0
  1 17  2  0  0  0  0
  1 19  1  0  0  0  0
  2  8  1  0  0  0  0
  2  9  1  0  0  0  0
  3  8  1  0  0  0  0
  3 10  1  0  0  0  0
  4  9  1  0  0  0  0
  4 10  1  0  0  0  0
  5  8  1  0  0  0  0
  5 11  1  0  0  0  0
  6  9  1  0  0  0  0
  6 11  1  0  0  0  0
  7 10  1  0  0  0  0
  7 11  1  0  0  0  0
 10 16  1  0  0  0  0
 11 18  1  0  0  0  0
 12 15  1  0  0  0  0
 13 15  1  0  0  0  0
 14 15  1  0  0  0  0
 15 19  1  0  0  0  0
  2 20  1  0  0  0  0
  2 21  1  0  0  0  0
  3 22  1  0  0  0  0
  3 23  1  0  0  0  0
  4 24  1  0  0  0  0
  4 25  1  0  0  0  0
  5 26  1  0  0  0  0
  5 27  1  0  0  0  0
  6 28  1  0  0  0  0
  6 29  1  0  0  0  0
  7 30  1  0  0  0  0
  7 31  1  0  0  0  0
  8 32  1  0  0  0  0
  9 33  1  0  0  0  0
 12 34  1  0  0  0  0
 12 35  1  0  0  0  0
 12 36  1  0  0  0  0
 13 37  1  0  0  0  0
 13 38  1  0  0  0  0
 13 39  1  0  0  0  0
 14 40  1  0  0  0  0
 14 41  1  0  0  0  0
 14 42  1  0  0  0  0
 16 43  1  0  0  0  0
 18 44  1  0  0  0  0
M  END
> <id>
EN300-1590186

> <smiles>
CC(C)(C)OC(=O)NC1(CC2CC3CC(O)(C2)C1)C3

> <IUPAC Name>
tert-butyl N-(3-hydroxyadamantan-1-yl)carbamate

> <CAS>
847795-89-5

> <URL>
https://www.enaminestore.com/catalog/EN300-1590186

> <ROCS_ShapeQuery>
x0812_0A_x1140_0A_x1097_0A_x0365_0A_x1097_0A_x0310_0A

> <ROCS_TanimotoCombo>
0.728 

> <ROCS_ShapeTanimoto>
0.239 

> <ROCS_ColorTanimoto>
0.489 

> <ROCS_RefTversky>
0.218 

> <ROCS_RefColorTversky>
0.584 

> <ROCS_RefTverskyCombo>
0.803 

> <ROCS_FitTversky>
1.644 

> <ROCS_FitColorTversky>
0.750 

> <ROCS_FitTverskyCombo>
2.394 

> <ROCS_ColorScore>
-8.739

> <ROCS_Overlap>
2208.581

> <ROCS_Rank>
107                 

$$$$
untitled-dbase-568576_0
  -OEChem-02092408543D

 25 26  0     1  0  0  0  0  0999 V2000
    7.6241   12.0210   25.3326 C   0  0  0  0  0  0  0  0  0  0  0  0
    8.6712   12.5874   24.3625 C   0  0  0  0  0  0  0  0  0  0  0  0
    8.5930    9.7305   25.0604 C   0  0  0  0  0  0  0  0  0  0  0  0
    7.4733   10.8395   23.2694 C   0  0  0  0  0  0  0  0  0  0  0  0
    7.3633   10.6116   24.7768 C   0  0  2  0  0  0  0  0  0  0  0  0
    9.6532   10.2955   24.0981 C   0  0  2  0  0  0  0  0  0  0  0  0
    8.8881   11.4268   23.3647 C   0  0  2  0  0  0  0  0  0  0  0  0
    9.4796   11.8700   22.0417 C   0  0  0  0  0  0  0  0  0  0  0  0
   10.7492   12.4896   22.2512 N   0  0  0  0  0  0  0  0  0  0  0  0
   10.0670    9.2645   23.2125 O   0  0  0  0  0  0  0  0  0  0  0  0
    7.9846   12.0079   26.3660 H   0  0  0  0  0  0  0  0  0  0  0  0
    6.7123   12.6279   25.2969 H   0  0  0  0  0  0  0  0  0  0  0  0
    8.2741   13.4798   23.8647 H   0  0  0  0  0  0  0  0  0  0  0  0
    9.5936   12.8726   24.8795 H   0  0  0  0  0  0  0  0  0  0  0  0
    8.9114    9.8104   26.1051 H   0  0  0  0  0  0  0  0  0  0  0  0
    8.3745    8.6779   24.8471 H   0  0  0  0  0  0  0  0  0  0  0  0
    7.4217    9.9123   22.6885 H   0  0  0  0  0  0  0  0  0  0  0  0
    6.7332   11.5509   22.8865 H   0  0  0  0  0  0  0  0  0  0  0  0
    6.4241   10.1736   25.1205 H   0  0  0  0  0  0  0  0  0  0  0  0
   10.5333   10.6600   24.6388 H   0  0  0  0  0  0  0  0  0  0  0  0
    9.5927   10.9844   21.4125 H   0  0  0  0  0  0  0  0  0  0  0  0
    8.7856   12.5798   21.5861 H   0  0  0  0  0  0  0  0  0  0  0  0
   10.7343   13.4290   21.9000 H   0  0  0  0  0  0  0  0  0  0  0  0
   10.9620   12.5111   23.2312 H   0  0  0  0  0  0  0  0  0  0  0  0
   10.4374    8.5546   23.7617 H   0  0  0  0  0  0  0  0  0  0  0  0
  1  2  1  0  0  0  0
  1  5  1  0  0  0  0
  2  7  1  0  0  0  0
  3  5  1  0  0  0  0
  3  6  1  0  0  0  0
  4  5  1  6  0  0  0
  4  7  1  0  0  0  0
  6  7  1  0  0  0  0
  6 10  1  6  0  0  0
  7  8  1  6  0  0  0
  8  9  1  0  0  0  0
  1 11  1  0  0  0  0
  1 12  1  0  0  0  0
  2 13  1  0  0  0  0
  2 14  1  0  0  0  0
  3 15  1  0  0  0  0
  3 16  1  0  0  0  0
  4 17  1  0  0  0  0
  4 18  1  0  0  0  0
  5 19  1  0  0  0  0
  6 20  1  0  0  0  0
  8 21  1  0  0  0  0
  8 22  1  0  0  0  0
  9 23  1  0  0  0  0
  9 24  1  0  0  0  0
 10 25  1  0  0  0  0
M  END
> <id>
EN300-37359189

> <smiles>
NC[C@@]1(CC[C@@H]2C[C@H]1O)C2 |&1:2,5,7,r|

> <IUPAC Name>
rac-(1R,2R,4S)-1-(aminomethyl)bicyclo[2.2.1]heptan-2-ol

> <CAS>
2764016-01-3

> <URL>
https://www.enaminestore.com/catalog/EN300-37359189

> <ROCS_ShapeQuery>
x0812_0A_x1140_0A_x1097_0A_x0365_0A_x1097_0A_x0310_0A

> <ROCS_TanimotoCombo>
0.728 

> <ROCS_ShapeTanimoto>
0.206 

> <ROCS_ColorTanimoto>
0.522 

> <ROCS_RefTversky>
0.186 

> <ROCS_RefColorTversky>
0.586 

> <ROCS_RefTverskyCombo>
0.772 

> <ROCS_FitTversky>
1.995 

> <ROCS_FitColorTversky>
0.827 

> <ROCS_FitTverskyCombo>
2.822 

> <ROCS_ColorScore>
-8.730

> <ROCS_Overlap>
1883.880

> <ROCS_Rank>
108                 

$$$$
untitled-dbase-569283_0
  -OEChem-02092408543D

 25 26  0     1  0  0  0  0  0999 V2000
    7.6241   12.0210   25.3326 C   0  0  0  0  0  0  0  0  0  0  0  0
    8.6712   12.5874   24.3625 C   0  0  0  0  0  0  0  0  0  0  0  0
    8.5930    9.7305   25.0604 C   0  0  0  0  0  0  0  0  0  0  0  0
    7.4733   10.8395   23.2694 C   0  0  0  0  0  0  0  0  0  0  0  0
    7.3633   10.6116   24.7768 C   0  0  2  0  0  0  0  0  0  0  0  0
    9.6532   10.2955   24.0981 C   0  0  2  0  0  0  0  0  0  0  0  0
    8.8881   11.4268   23.3647 C   0  0  2  0  0  0  0  0  0  0  0  0
    9.4796   11.8700   22.0417 C   0  0  0  0  0  0  0  0  0  0  0  0
   10.7492   12.4896   22.2512 N   0  0  0  0  0  0  0  0  0  0  0  0
   10.0670    9.2645   23.2125 O   0  0  0  0  0  0  0  0  0  0  0  0
    7.9846   12.0079   26.3660 H   0  0  0  0  0  0  0  0  0  0  0  0
    6.7123   12.6279   25.2969 H   0  0  0  0  0  0  0  0  0  0  0  0
    8.2741   13.4798   23.8647 H   0  0  0  0  0  0  0  0  0  0  0  0
    9.5936   12.8726   24.8795 H   0  0  0  0  0  0  0  0  0  0  0  0
    8.9114    9.8104   26.1051 H   0  0  0  0  0  0  0  0  0  0  0  0
    8.3745    8.6779   24.8471 H   0  0  0  0  0  0  0  0  0  0  0  0
    7.4217    9.9123   22.6885 H   0  0  0  0  0  0  0  0  0  0  0  0
    6.7332   11.5509   22.8865 H   0  0  0  0  0  0  0  0  0  0  0  0
    6.4241   10.1736   25.1205 H   0  0  0  0  0  0  0  0  0  0  0  0
   10.5333   10.6600   24.6388 H   0  0  0  0  0  0  0  0  0  0  0  0
    9.5927   10.9844   21.4125 H   0  0  0  0  0  0  0  0  0  0  0  0
    8.7856   12.5798   21.5861 H   0  0  0  0  0  0  0  0  0  0  0  0
   10.7343   13.4290   21.9000 H   0  0  0  0  0  0  0  0  0  0  0  0
   10.9620   12.5111   23.2312 H   0  0  0  0  0  0  0  0  0  0  0  0
   10.4374    8.5546   23.7617 H   0  0  0  0  0  0  0  0  0  0  0  0
  1  2  1  0  0  0  0
  1  5  1  0  0  0  0
  2  7  1  0  0  0  0
  3  5  1  0  0  0  0
  3  6  1  0  0  0  0
  4  5  1  6  0  0  0
  4  7  1  0  0  0  0
  6  7  1  0  0  0  0
  6 10  1  6  0  0  0
  7  8  1  6  0  0  0
  8  9  1  0  0  0  0
  1 11  1  0  0  0  0
  1 12  1  0  0  0  0
  2 13  1  0  0  0  0
  2 14  1  0  0  0  0
  3 15  1  0  0  0  0
  3 16  1  0  0  0  0
  4 17  1  0  0  0  0
  4 18  1  0  0  0  0
  5 19  1  0  0  0  0
  6 20  1  0  0  0  0
  8 21  1  0  0  0  0
  8 22  1  0  0  0  0
  9 23  1  0  0  0  0
  9 24  1  0  0  0  0
 10 25  1  0  0  0  0
M  END
> <id>
EN300-37359302

> <smiles>
Cl.NC[C@@]1(CC[C@@H]2C[C@H]1O)C2 |&1:3,6,8,r|

> <IUPAC Name>
rac-(1R,2R,4S)-1-(aminomethyl)bicyclo[2.2.1]heptan-2-ol hydrochloride

> <Purity>
95

> <URL>
https://www.enaminestore.com/catalog/EN300-37359302

> <ROCS_ShapeQuery>
x0812_0A_x1140_0A_x1097_0A_x0365_0A_x1097_0A_x0310_0A

> <ROCS_TanimotoCombo>
0.728 

> <ROCS_ShapeTanimoto>
0.206 

> <ROCS_ColorTanimoto>
0.522 

> <ROCS_RefTversky>
0.186 

> <ROCS_RefColorTversky>
0.586 

> <ROCS_RefTverskyCombo>
0.772 

> <ROCS_FitTversky>
1.995 

> <ROCS_FitColorTversky>
0.827 

> <ROCS_FitTverskyCombo>
2.822 

> <ROCS_ColorScore>
-8.730

> <ROCS_Overlap>
1883.880

> <ROCS_Rank>
109                 

$$$$
untitled-dbase-293672_6
  -OEChem-02092408543D

 32 33  0     0  0  0  0  0  0999 V2000
   10.2520   11.7595   22.3316 C   0  0  0  0  0  0  0  0  0  0  0  0
    7.8974   12.0521   23.1269 C   0  0  0  0  0  0  0  0  0  0  0  0
    9.7562   11.8239   24.7711 C   0  0  0  0  0  0  0  0  0  0  0  0
    6.8869   11.5704   24.1741 C   0  0  0  0  0  0  0  0  0  0  0  0
    8.7725   11.3392   25.8423 C   0  0  0  0  0  0  0  0  0  0  0  0
    9.0368    9.8645   23.4253 C   0  0  0  0  0  0  0  0  0  0  0  0
    9.2561   11.3833   23.3870 C   0  0  0  0  0  0  0  0  0  0  0  0
    7.5827   10.6264   25.1723 C   0  0  0  0  0  0  0  0  0  0  0  0
   12.3474   12.8039   22.0117 C   0  0  0  0  0  0  0  0  0  0  0  0
    6.5979   10.1048   26.2132 C   0  0  0  0  0  0  0  0  0  0  0  0
   10.1082   11.5254   21.1392 O   0  0  0  0  0  0  0  0  0  0  0  0
    5.8063    8.4235   24.3642 O   0  0  0  0  0  0  0  0  0  0  0  0
    4.1594   10.1317   25.2510 O   0  0  0  0  0  0  0  0  0  0  0  0
    8.0906    9.4945   24.4399 O   0  0  0  0  0  0  0  0  0  0  0  0
   11.3143   12.3881   22.9106 O   0  0  0  0  0  0  0  0  0  0  0  0
    5.2773    9.2267   25.4526 S   0  0  0  0  0  0  0  0  0  0  0  0
    4.6041    7.8634   26.8282 Cl  0  0  0  0  0  0  0  0  0  0  0  0
    7.5324   11.8151   22.1194 H   0  0  0  0  0  0  0  0  0  0  0  0
    7.9861   13.1453   23.1668 H   0  0  0  0  0  0  0  0  0  0  0  0
    9.8573   12.9157   24.8195 H   0  0  0  0  0  0  0  0  0  0  0  0
   10.7562   11.4190   24.9728 H   0  0  0  0  0  0  0  0  0  0  0  0
    6.4417   12.4299   24.6890 H   0  0  0  0  0  0  0  0  0  0  0  0
    6.0745   11.0420   23.6595 H   0  0  0  0  0  0  0  0  0  0  0  0
    9.2976   10.6466   26.5119 H   0  0  0  0  0  0  0  0  0  0  0  0
    8.4331   12.1859   26.4506 H   0  0  0  0  0  0  0  0  0  0  0  0
    8.6620    9.4908   22.4652 H   0  0  0  0  0  0  0  0  0  0  0  0
    9.9715    9.3295   23.6302 H   0  0  0  0  0  0  0  0  0  0  0  0
   13.1459   13.2934   22.5746 H   0  0  0  0  0  0  0  0  0  0  0  0
   11.9325   13.4936   21.2724 H   0  0  0  0  0  0  0  0  0  0  0  0
   12.7499   11.9253   21.5019 H   0  0  0  0  0  0  0  0  0  0  0  0
    6.1650   10.9325   26.7734 H   0  0  0  0  0  0  0  0  0  0  0  0
    7.0974    9.4221   26.8988 H   0  0  0  0  0  0  0  0  0  0  0  0
  1  7  1  0  0  0  0
  1 11  2  0  0  0  0
  1 15  1  0  0  0  0
  2  4  1  0  0  0  0
  2  7  1  0  0  0  0
  3  5  1  0  0  0  0
  3  7  1  0  0  0  0
  4  8  1  0  0  0  0
  5  8  1  0  0  0  0
  6  7  1  0  0  0  0
  6 14  1  0  0  0  0
  8 10  1  0  0  0  0
  8 14  1  0  0  0  0
  9 15  1  0  0  0  0
 10 16  1  0  0  0  0
 12 16  2  0  0  0  0
 13 16  2  0  0  0  0
 16 17  1  0  0  0  0
  2 18  1  0  0  0  0
  2 19  1  0  0  0  0
  3 20  1  0  0  0  0
  3 21  1  0  0  0  0
  4 22  1  0  0  0  0
  4 23  1  0  0  0  0
  5 24  1  0  0  0  0
  5 25  1  0  0  0  0
  6 26  1  0  0  0  0
  6 27  1  0  0  0  0
  9 28  1  0  0  0  0
  9 29  1  0  0  0  0
  9 30  1  0  0  0  0
 10 31  1  0  0  0  0
 10 32  1  0  0  0  0
M  END
> <id>
EN300-6504968

> <smiles>
COC(=O)C1(CCC2(CS(=O)(=O)Cl)CC1)CO2

> <MDLNUMBER>
MFCD31719275

> <IUPAC Name>
methyl 1-[(chlorosulfonyl)methyl]-2-oxabicyclo[2.2.2]octane-4-carboxylate

> <CAS>
2253632-24-3

> <Purity>
95

> <URL>
https://www.enaminestore.com/catalog/EN300-6504968

> <ROCS_ShapeQuery>
x0812_0A_x1140_0A_x1097_0A_x0365_0A_x1097_0A_x0310_0A

> <ROCS_TanimotoCombo>
0.727 

> <ROCS_ShapeTanimoto>
0.231 

> <ROCS_ColorTanimoto>
0.497 

> <ROCS_RefTversky>
0.210 

> <ROCS_RefColorTversky>
0.520 

> <ROCS_RefTverskyCombo>
0.730 

> <ROCS_FitTversky>
1.739 

> <ROCS_FitColorTversky>
0.916 

> <ROCS_FitTverskyCombo>
2.654 

> <ROCS_ColorScore>
-7.692

> <ROCS_Overlap>
2125.881

> <ROCS_Rank>
110                 

$$$$
untitled-dbase-251989_4
  -OEChem-02092408543D

 25 26  0     0  0  0  0  0  0999 V2000
    9.3104   11.6626   25.0553 C   0  0  0  0  0  0  0  0  0  0  0  0
    7.6858   11.9682   23.7685 C   0  0  0  0  0  0  0  0  0  0  0  0
    8.9859    9.9240   23.3465 C   0  0  0  0  0  0  0  0  0  0  0  0
    9.1490   11.4517   23.5037 C   0  0  0  0  0  0  0  0  0  0  0  0
    7.8864   10.9847   24.9868 C   0  0  0  0  0  0  0  0  0  0  0  0
    5.1442   10.1495   24.8422 C   0  0  0  0  0  0  0  0  0  0  0  0
    6.9577   11.0033   26.1626 C   0  0  0  0  0  0  0  0  0  0  0  0
   10.0519   12.1420   22.5266 C   0  0  0  0  0  0  0  0  0  0  0  0
    5.9632    9.9768   26.0444 N   0  0  0  0  0  0  0  0  0  0  0  0
    8.0784    9.6555   24.4288 O   0  0  0  0  0  0  0  0  0  0  0  0
   11.3434   11.7982   22.7283 F   0  0  0  0  0  0  0  0  0  0  0  0
    9.7335   11.8169   21.2539 F   0  0  0  0  0  0  0  0  0  0  0  0
    9.9609   13.4855   22.6431 F   0  0  0  0  0  0  0  0  0  0  0  0
   10.0967   11.0785   25.5423 H   0  0  0  0  0  0  0  0  0  0  0  0
    9.3519   12.6971   25.4139 H   0  0  0  0  0  0  0  0  0  0  0  0
    7.5695   13.0323   24.0019 H   0  0  0  0  0  0  0  0  0  0  0  0
    6.9304   11.6737   23.0342 H   0  0  0  0  0  0  0  0  0  0  0  0
    8.5225    9.6436   22.3963 H   0  0  0  0  0  0  0  0  0  0  0  0
    9.9217    9.3801   23.5041 H   0  0  0  0  0  0  0  0  0  0  0  0
    4.6574   11.1356   24.8681 H   0  0  0  0  0  0  0  0  0  0  0  0
    5.7837   10.0798   23.9499 H   0  0  0  0  0  0  0  0  0  0  0  0
    4.3765    9.3626   24.8055 H   0  0  0  0  0  0  0  0  0  0  0  0
    7.5437   10.8393   27.0760 H   0  0  0  0  0  0  0  0  0  0  0  0
    6.4660   11.9836   26.2066 H   0  0  0  0  0  0  0  0  0  0  0  0
    6.4072    9.0516   25.9990 H   0  0  0  0  0  0  0  0  0  0  0  0
  1  4  1  0  0  0  0
  1  5  1  0  0  0  0
  2  4  1  0  0  0  0
  2  5  1  0  0  0  0
  3  4  1  0  0  0  0
  3 10  1  0  0  0  0
  4  8  1  0  0  0  0
  5  7  1  0  0  0  0
  5 10  1  0  0  0  0
  6  9  1  0  0  0  0
  7  9  1  0  0  0  0
  8 11  1  0  0  0  0
  8 12  1  0  0  0  0
  8 13  1  0  0  0  0
  1 14  1  0  0  0  0
  1 15  1  0  0  0  0
  2 16  1  0  0  0  0
  2 17  1  0  0  0  0
  3 18  1  0  0  0  0
  3 19  1  0  0  0  0
  6 20  1  0  0  0  0
  6 21  1  0  0  0  0
  6 22  1  0  0  0  0
  7 23  1  0  0  0  0
  7 24  1  0  0  0  0
  9 25  1  0  0  0  0
M  END
> <id>
EN300-28234240

> <smiles>
Cl.CNCC1(CC2(C1)C(F)(F)F)OC2

> <MDLNUMBER>
MFCD34167970

> <IUPAC Name>
methyl({[4-(trifluoromethyl)-2-oxabicyclo[2.1.1]hexan-1-yl]methyl})amine hydrochloride

> <CAS>
2648941-54-0

> <Purity>
95

> <URL>
https://www.enaminestore.com/catalog/EN300-28234240

> <Saltdate>
Cl

> <ROCS_ShapeQuery>
x0812_0A_x1140_0A_x1097_0A_x0365_0A_x1097_0A_x0310_0A

> <ROCS_TanimotoCombo>
0.727 

> <ROCS_ShapeTanimoto>
0.235 

> <ROCS_ColorTanimoto>
0.492 

> <ROCS_RefTversky>
0.210 

> <ROCS_RefColorTversky>
0.553 

> <ROCS_RefTverskyCombo>
0.763 

> <ROCS_FitTversky>
1.965 

> <ROCS_FitColorTversky>
0.818 

> <ROCS_FitTverskyCombo>
2.784 

> <ROCS_ColorScore>
-8.221

> <ROCS_Overlap>
2127.475

> <ROCS_Rank>
111                 

$$$$
untitled-dbase-138331_4
  -OEChem-02092408543D

 25 26  0     0  0  0  0  0  0999 V2000
    9.3104   11.6626   25.0553 C   0  0  0  0  0  0  0  0  0  0  0  0
    7.6858   11.9682   23.7685 C   0  0  0  0  0  0  0  0  0  0  0  0
    8.9859    9.9240   23.3465 C   0  0  0  0  0  0  0  0  0  0  0  0
    9.1490   11.4517   23.5037 C   0  0  0  0  0  0  0  0  0  0  0  0
    7.8864   10.9847   24.9868 C   0  0  0  0  0  0  0  0  0  0  0  0
    5.1442   10.1495   24.8422 C   0  0  0  0  0  0  0  0  0  0  0  0
    6.9577   11.0033   26.1626 C   0  0  0  0  0  0  0  0  0  0  0  0
   10.0519   12.1420   22.5266 C   0  0  0  0  0  0  0  0  0  0  0  0
    5.9632    9.9768   26.0444 N   0  0  0  0  0  0  0  0  0  0  0  0
    8.0784    9.6555   24.4288 O   0  0  0  0  0  0  0  0  0  0  0  0
   11.3434   11.7982   22.7283 F   0  0  0  0  0  0  0  0  0  0  0  0
    9.7335   11.8169   21.2539 F   0  0  0  0  0  0  0  0  0  0  0  0
    9.9609   13.4855   22.6431 F   0  0  0  0  0  0  0  0  0  0  0  0
   10.0967   11.0785   25.5423 H   0  0  0  0  0  0  0  0  0  0  0  0
    9.3519   12.6971   25.4139 H   0  0  0  0  0  0  0  0  0  0  0  0
    7.5695   13.0323   24.0019 H   0  0  0  0  0  0  0  0  0  0  0  0
    6.9304   11.6737   23.0342 H   0  0  0  0  0  0  0  0  0  0  0  0
    8.5225    9.6436   22.3963 H   0  0  0  0  0  0  0  0  0  0  0  0
    9.9217    9.3801   23.5041 H   0  0  0  0  0  0  0  0  0  0  0  0
    4.6574   11.1356   24.8681 H   0  0  0  0  0  0  0  0  0  0  0  0
    5.7837   10.0798   23.9499 H   0  0  0  0  0  0  0  0  0  0  0  0
    4.3765    9.3626   24.8055 H   0  0  0  0  0  0  0  0  0  0  0  0
    7.5437   10.8393   27.0760 H   0  0  0  0  0  0  0  0  0  0  0  0
    6.4660   11.9836   26.2066 H   0  0  0  0  0  0  0  0  0  0  0  0
    6.4072    9.0516   25.9990 H   0  0  0  0  0  0  0  0  0  0  0  0
  1  4  1  0  0  0  0
  1  5  1  0  0  0  0
  2  4  1  0  0  0  0
  2  5  1  0  0  0  0
  3  4  1  0  0  0  0
  3 10  1  0  0  0  0
  4  8  1  0  0  0  0
  5  7  1  0  0  0  0
  5 10  1  0  0  0  0
  6  9  1  0  0  0  0
  7  9  1  0  0  0  0
  8 11  1  0  0  0  0
  8 12  1  0  0  0  0
  8 13  1  0  0  0  0
  1 14  1  0  0  0  0
  1 15  1  0  0  0  0
  2 16  1  0  0  0  0
  2 17  1  0  0  0  0
  3 18  1  0  0  0  0
  3 19  1  0  0  0  0
  6 20  1  0  0  0  0
  6 21  1  0  0  0  0
  6 22  1  0  0  0  0
  7 23  1  0  0  0  0
  7 24  1  0  0  0  0
  9 25  1  0  0  0  0
M  END
> <id>
EN300-26870175

> <smiles>
CNCC1(CC2(C1)C(F)(F)F)OC2

> <MDLNUMBER>
MFCD34168190

> <IUPAC Name>
methyl({[4-(trifluoromethyl)-2-oxabicyclo[2.1.1]hexan-1-yl]methyl})amine

> <CAS>
2648941-53-9

> <URL>
https://www.enaminestore.com/catalog/EN300-26870175

> <ROCS_ShapeQuery>
x0812_0A_x1140_0A_x1097_0A_x0365_0A_x1097_0A_x0310_0A

> <ROCS_TanimotoCombo>
0.727 

> <ROCS_ShapeTanimoto>
0.235 

> <ROCS_ColorTanimoto>
0.492 

> <ROCS_RefTversky>
0.210 

> <ROCS_RefColorTversky>
0.553 

> <ROCS_RefTverskyCombo>
0.763 

> <ROCS_FitTversky>
1.965 

> <ROCS_FitColorTversky>
0.818 

> <ROCS_FitTverskyCombo>
2.784 

> <ROCS_ColorScore>
-8.221

> <ROCS_Overlap>
2127.475

> <ROCS_Rank>
112                 

$$$$
untitled-dbase-478668_2
  -OEChem-02092408543D

 32 34  0     0  0  0  0  0  0999 V2000
    9.7886   12.1591   22.3614 C   0  0  0  0  0  0  0  0  0  0  0  0
   10.1468    8.1453   22.7349 C   0  0  0  0  0  0  0  0  0  0  0  0
    8.9610    9.0329   22.3031 C   0  0  0  0  0  0  0  0  0  0  0  0
   10.6189    9.3051   23.6362 C   0  0  0  0  0  0  0  0  0  0  0  0
    9.1183   11.8465   24.9429 C   0  0  0  0  0  0  0  0  0  0  0  0
    7.4992   11.5805   23.6407 C   0  0  0  0  0  0  0  0  0  0  0  0
    9.0534   11.3749   23.4351 C   0  0  0  0  0  0  0  0  0  0  0  0
    9.1701    9.8223   23.6072 C   0  0  0  0  0  0  0  0  0  0  0  0
    7.8708   10.8773   25.0071 C   0  0  0  0  0  0  0  0  0  0  0  0
   11.1671   14.0489   22.0261 C   0  0  0  0  0  0  0  0  0  0  0  0
    6.9235   10.9520   26.1701 C   0  0  0  0  0  0  0  0  0  0  0  0
    5.6600   10.3655   25.8340 N   0  0  0  0  0  0  0  0  0  0  0  0
    9.7888   11.8614   21.1746 O   0  0  0  0  0  0  0  0  0  0  0  0
    8.3127    9.5076   24.7377 O   0  0  0  0  0  0  0  0  0  0  0  0
   10.4296   13.2198   22.9298 O   0  0  0  0  0  0  0  0  0  0  0  0
    9.8455    7.2509   23.2922 H   0  0  0  0  0  0  0  0  0  0  0  0
   10.8354    7.8529   21.9382 H   0  0  0  0  0  0  0  0  0  0  0  0
    9.1416    9.5900   21.3777 H   0  0  0  0  0  0  0  0  0  0  0  0
    8.0053    8.5085   22.2132 H   0  0  0  0  0  0  0  0  0  0  0  0
   10.9947    8.9993   24.6167 H   0  0  0  0  0  0  0  0  0  0  0  0
   11.3636    9.9547   23.1644 H   0  0  0  0  0  0  0  0  0  0  0  0
    9.9956   11.5293   25.5144 H   0  0  0  0  0  0  0  0  0  0  0  0
    8.9310   12.9093   25.1341 H   0  0  0  0  0  0  0  0  0  0  0  0
    7.1432   12.6155   23.6962 H   0  0  0  0  0  0  0  0  0  0  0  0
    6.8413   11.0109   22.9774 H   0  0  0  0  0  0  0  0  0  0  0  0
   11.6389   14.8638   22.5805 H   0  0  0  0  0  0  0  0  0  0  0  0
   10.4920   14.4530   21.2676 H   0  0  0  0  0  0  0  0  0  0  0  0
   11.9388   13.4468   21.5406 H   0  0  0  0  0  0  0  0  0  0  0  0
    7.3659   10.4106   27.0148 H   0  0  0  0  0  0  0  0  0  0  0  0
    6.7795   12.0063   26.4346 H   0  0  0  0  0  0  0  0  0  0  0  0
    4.9342   11.0490   25.9283 H   0  0  0  0  0  0  0  0  0  0  0  0
    5.6818   10.0357   24.8887 H   0  0  0  0  0  0  0  0  0  0  0  0
  1  7  1  0  0  0  0
  1 13  2  0  0  0  0
  1 15  1  0  0  0  0
  2  3  1  0  0  0  0
  2  4  1  0  0  0  0
  3  8  1  0  0  0  0
  4  8  1  0  0  0  0
  5  7  1  0  0  0  0
  5  9  1  0  0  0  0
  6  7  1  0  0  0  0
  6  9  1  0  0  0  0
  7  8  1  0  0  0  0
  8 14  1  0  0  0  0
  9 11  1  0  0  0  0
  9 14  1  0  0  0  0
 10 15  1  0  0  0  0
 11 12  1  0  0  0  0
  2 16  1  0  0  0  0
  2 17  1  0  0  0  0
  3 18  1  0  0  0  0
  3 19  1  0  0  0  0
  4 20  1  0  0  0  0
  4 21  1  0  0  0  0
  5 22  1  0  0  0  0
  5 23  1  0  0  0  0
  6 24  1  0  0  0  0
  6 25  1  0  0  0  0
 10 26  1  0  0  0  0
 10 27  1  0  0  0  0
 10 28  1  0  0  0  0
 11 29  1  0  0  0  0
 11 30  1  0  0  0  0
 12 31  1  0  0  0  0
 12 32  1  0  0  0  0
M  END
> <id>
EN300-27726160

> <smiles>
COC(=O)C1(CC2(CN)C1)C3(CCC3)O2

> <IUPAC Name>
methyl 4-(aminomethyl)-3-oxaspiro[bicyclo[2.1.1]hexane-2,1'-cyclobutane]-1-carboxylate

> <CAS>
2580248-97-9

> <URL>
https://www.enaminestore.com/catalog/EN300-27726160

> <ROCS_ShapeQuery>
x0812_0A_x1140_0A_x1097_0A_x0365_0A_x1097_0A_x0310_0A

> <ROCS_TanimotoCombo>
0.727 

> <ROCS_ShapeTanimoto>
0.259 

> <ROCS_ColorTanimoto>
0.467 

> <ROCS_RefTversky>
0.230 

> <ROCS_RefColorTversky>
0.573 

> <ROCS_RefTverskyCombo>
0.803 

> <ROCS_FitTversky>
1.989 

> <ROCS_FitColorTversky>
0.717 

> <ROCS_FitTverskyCombo>
2.706 

> <ROCS_ColorScore>
-8.576

> <ROCS_Overlap>
2325.062

> <ROCS_Rank>
113                 

$$$$
untitled-dbase-202355_0
  -OEChem-02092408543D

 33 35  0     1  0  0  0  0  0999 V2000
    7.5549   12.4714   23.0773 C   0  0  0  0  0  0  0  0  0  0  0  0
    6.6717   10.8923   24.8145 C   0  0  0  0  0  0  0  0  0  0  0  0
    7.9673   10.0091   22.8592 C   0  0  0  0  0  0  0  0  0  0  0  0
    8.5713   12.4396   25.3761 C   0  0  0  0  0  0  0  0  0  0  0  0
    9.8662   11.5498   23.4167 C   0  0  0  0  0  0  0  0  0  0  0  0
    8.9836    9.9717   25.1554 C   0  0  0  0  0  0  0  0  0  0  0  0
    6.9590   11.0736   23.3144 C   0  0  0  0  0  0  0  0  0  0  0  0
    8.8711   12.6402   23.8713 C   0  0  1  0  0  0  0  0  0  0  0  0
    7.9734   11.0364   25.6371 C   0  0  2  0  0  0  0  0  0  0  0  0
    9.2743   10.1512   23.6556 C   0  0  0  0  0  0  0  0  0  0  0  0
    9.4619   14.0320   23.6289 C   0  0  0  0  0  0  0  0  0  0  0  0
    7.6812   10.8532   27.1289 C   0  0  0  0  0  0  0  0  0  0  0  0
   10.1905    9.1570   23.2185 O   0  0  0  0  0  0  0  0  0  0  0  0
    7.7377   12.6159   22.0047 H   0  0  0  0  0  0  0  0  0  0  0  0
    6.8289   13.2375   23.3789 H   0  0  0  0  0  0  0  0  0  0  0  0
    5.9328   11.6356   25.1404 H   0  0  0  0  0  0  0  0  0  0  0  0
    6.2223    9.9056   24.9864 H   0  0  0  0  0  0  0  0  0  0  0  0
    7.5500    9.0029   22.9948 H   0  0  0  0  0  0  0  0  0  0  0  0
    8.1673   10.1042   21.7840 H   0  0  0  0  0  0  0  0  0  0  0  0
    9.4927   12.5670   25.9602 H   0  0  0  0  0  0  0  0  0  0  0  0
    7.8733   13.2133   25.7235 H   0  0  0  0  0  0  0  0  0  0  0  0
   10.1157   11.6708   22.3538 H   0  0  0  0  0  0  0  0  0  0  0  0
   10.8197   11.6485   23.9530 H   0  0  0  0  0  0  0  0  0  0  0  0
    9.9188   10.0380   25.7278 H   0  0  0  0  0  0  0  0  0  0  0  0
    8.5991    8.9595   25.3401 H   0  0  0  0  0  0  0  0  0  0  0  0
    6.0284   10.9679   22.7455 H   0  0  0  0  0  0  0  0  0  0  0  0
   10.3863   14.1393   24.1915 H   0  0  0  0  0  0  0  0  0  0  0  0
    8.7535   14.7907   23.9527 H   0  0  0  0  0  0  0  0  0  0  0  0
    9.6686   14.1613   22.5691 H   0  0  0  0  0  0  0  0  0  0  0  0
    8.6027   10.9565   27.6970 H   0  0  0  0  0  0  0  0  0  0  0  0
    7.2620    9.8645   27.3001 H   0  0  0  0  0  0  0  0  0  0  0  0
    6.9698   11.6074   27.4570 H   0  0  0  0  0  0  0  0  0  0  0  0
   11.0015    9.2744   23.7394 H   0  0  0  0  0  0  0  0  0  0  0  0
  1  7  1  0  0  0  0
  1  8  1  0  0  0  0
  2  7  1  0  0  0  0
  2  9  1  0  0  0  0
  3  7  1  0  0  0  0
  3 10  1  0  0  0  0
  4  8  1  0  0  0  0
  4  9  1  0  0  0  0
  5  8  1  0  0  0  0
  5 10  1  0  0  0  0
  6  9  1  0  0  0  0
  6 10  1  0  0  0  0
  8 11  1  0  0  0  0
  9 12  1  0  0  0  0
 10 13  1  0  0  0  0
  1 14  1  0  0  0  0
  1 15  1  0  0  0  0
  2 16  1  0  0  0  0
  2 17  1  0  0  0  0
  3 18  1  0  0  0  0
  3 19  1  0  0  0  0
  4 20  1  0  0  0  0
  4 21  1  0  0  0  0
  5 22  1  0  0  0  0
  5 23  1  0  0  0  0
  6 24  1  0  0  0  0
  6 25  1  0  0  0  0
  7 26  1  0  0  0  0
 11 27  1  0  0  0  0
 11 28  1  0  0  0  0
 11 29  1  0  0  0  0
 12 30  1  0  0  0  0
 12 31  1  0  0  0  0
 12 32  1  0  0  0  0
 13 33  1  0  0  0  0
M  END
> <id>
EN300-298377

> <smiles>
CC1(CC2CC3(C)C1)CC(O)(C2)C3

> <IUPAC Name>
3,5-dimethyladamantan-1-ol

> <CAS>
707-37-9

> <URL>
https://www.enaminestore.com/catalog/EN300-298377

> <ROCS_ShapeQuery>
x0812_0A_x1140_0A_x1097_0A_x0365_0A_x1097_0A_x0310_0A

> <ROCS_TanimotoCombo>
0.726 

> <ROCS_ShapeTanimoto>
0.223 

> <ROCS_ColorTanimoto>
0.504 

> <ROCS_RefTversky>
0.202 

> <ROCS_RefColorTversky>
0.534 

> <ROCS_RefTverskyCombo>
0.736 

> <ROCS_FitTversky>
1.884 

> <ROCS_FitColorTversky>
0.899 

> <ROCS_FitTverskyCombo>
2.783 

> <ROCS_ColorScore>
-7.904

> <ROCS_Overlap>
2039.683

> <ROCS_Rank>
114                 

$$$$
untitled-dbase-575696_7
  -OEChem-02092408543D

 22 23  0     1  0  0  0  0  0999 V2000
    7.0421   11.7786   23.8545 C   0  0  0  0  0  0  0  0  0  0  0  0
    7.3967   11.9136   25.1385 C   0  0  0  0  0  0  0  0  0  0  0  0
    7.9249   10.7042   23.2902 C   0  0  1  0  0  0  0  0  0  0  0  0
    8.4991   10.9231   25.3712 C   0  0  2  0  0  0  0  0  0  0  0  0
    9.3646   11.2468   23.1535 C   0  0  1  0  0  0  0  0  0  0  0  0
    9.8026   11.3266   24.6527 C   0  0  1  0  0  0  0  0  0  0  0  0
   10.2539   10.2919   22.3629 C   0  0  0  0  0  0  0  0  0  0  0  0
   10.3667   12.6796   25.0563 C   0  0  0  0  0  0  0  0  0  0  0  0
    8.0683    9.8632   24.4688 O   0  0  0  0  0  0  0  0  0  0  0  0
   10.3047    9.0532   23.0466 O   0  0  0  0  0  0  0  0  0  0  0  0
    9.4578   13.6190   24.7416 F   0  0  0  0  0  0  0  0  0  0  0  0
   11.4729   12.9031   24.3255 F   0  0  0  0  0  0  0  0  0  0  0  0
    6.3172   12.3689   23.3187 H   0  0  0  0  0  0  0  0  0  0  0  0
    7.0143   12.6341   25.8426 H   0  0  0  0  0  0  0  0  0  0  0  0
    7.5112   10.1477   22.4475 H   0  0  0  0  0  0  0  0  0  0  0  0
    8.5975   10.5525   26.3928 H   0  0  0  0  0  0  0  0  0  0  0  0
    9.3765   12.2271   22.6612 H   0  0  0  0  0  0  0  0  0  0  0  0
   10.5615   10.5585   24.8534 H   0  0  0  0  0  0  0  0  0  0  0  0
   11.2610   10.7013   22.2836 H   0  0  0  0  0  0  0  0  0  0  0  0
    9.8402   10.1370   21.3665 H   0  0  0  0  0  0  0  0  0  0  0  0
   10.5919   12.7000   26.1115 H   0  0  0  0  0  0  0  0  0  0  0  0
   10.8753    8.4626   22.5257 H   0  0  0  0  0  0  0  0  0  0  0  0
  1  2  2  0  0  0  0
  1  3  1  0  0  0  0
  2  4  1  0  0  0  0
  3  5  1  0  0  0  0
  3  9  1  1  0  0  0
  4  6  1  0  0  0  0
  4  9  1  1  0  0  0
  5  6  1  0  0  0  0
  5  7  1  1  0  0  0
  6  8  1  6  0  0  0
  7 10  1  0  0  0  0
  8 11  1  0  0  0  0
  8 12  1  0  0  0  0
  1 13  1  0  0  0  0
  2 14  1  0  0  0  0
  3 15  1  0  0  0  0
  4 16  1  0  0  0  0
  5 17  1  0  0  0  0
  6 18  1  0  0  0  0
  7 19  1  0  0  0  0
  7 20  1  0  0  0  0
  8 21  1  0  0  0  0
 10 22  1  0  0  0  0
M  END
> <id>
EN300-39919305

> <smiles>
OC[C@@H]1[C@@H](C(F)F)[C@@H]2O[C@H]1C=C2 |&1:2,3,7,9,r|

> <IUPAC Name>
rac-[(1R,2R,3S,4S)-3-(difluoromethyl)-7-oxabicyclo[2.2.1]hept-5-en-2-yl]methanol

> <Purity>
95

> <URL>
https://www.enaminestore.com/catalog/EN300-39919305

> <ROCS_ShapeQuery>
x0812_0A_x1140_0A_x1097_0A_x0365_0A_x1097_0A_x0310_0A

> <ROCS_TanimotoCombo>
0.726 

> <ROCS_ShapeTanimoto>
0.210 

> <ROCS_ColorTanimoto>
0.517 

> <ROCS_RefTversky>
0.191 

> <ROCS_RefColorTversky>
0.562 

> <ROCS_RefTverskyCombo>
0.754 

> <ROCS_FitTversky>
1.855 

> <ROCS_FitColorTversky>
0.864 

> <ROCS_FitTverskyCombo>
2.719 

> <ROCS_ColorScore>
-8.351

> <ROCS_Overlap>
1934.643

> <ROCS_Rank>
115                 

$$$$
untitled-dbase-505665_3
  -OEChem-02092408543D

 38 40  0     1  0  0  0  0  0999 V2000
   15.2090   11.6089   17.6238 C   0  0  0  0  0  0  0  0  0  0  0  0
   16.0463   11.8294   18.7174 C   0  0  0  0  0  0  0  0  0  0  0  0
   13.8324   11.7946   17.7508 C   0  0  0  0  0  0  0  0  0  0  0  0
   15.5069   12.2354   19.9380 C   0  0  0  0  0  0  0  0  0  0  0  0
   13.2930   12.2005   18.9714 C   0  0  0  0  0  0  0  0  0  0  0  0
   14.1303   12.4209   20.0650 C   0  0  0  0  0  0  0  0  0  0  0  0
   11.5622   12.6440   22.6547 C   0  0  0  0  0  0  0  0  0  0  0  0
    8.0492   11.3299   25.4773 C   0  0  0  0  0  0  0  0  0  0  0  0
    7.8864   12.1636   23.2405 C   0  0  0  0  0  0  0  0  0  0  0  0
    7.7351    9.7195   23.7397 C   0  0  0  0  0  0  0  0  0  0  0  0
    7.2603   11.1169   24.1823 C   0  0  1  0  0  0  0  0  0  0  0  0
    9.4030   11.1082   24.7929 C   0  0  2  0  0  0  0  0  0  0  0  0
    9.3498   12.2138   23.7134 C   0  0  1  0  0  0  0  0  0  0  0  0
    9.1925    9.6878   24.2267 C   0  0  2  0  0  0  0  0  0  0  0  0
   13.5494   12.8574   21.3779 C   0  0  0  0  0  0  0  0  0  0  0  0
   10.2990   12.0745   22.6492 N   0  0  0  0  0  0  0  0  0  0  0  0
   12.0262   13.3318   23.5581 O   0  0  0  0  0  0  0  0  0  0  0  0
   10.0800    9.3497   23.1820 O   0  0  0  0  0  0  0  0  0  0  0  0
   12.2242   12.3288   21.5015 O   0  0  0  0  0  0  0  0  0  0  0  0
   15.6293   11.2942   16.6731 H   0  0  0  0  0  0  0  0  0  0  0  0
   17.1183   11.6860   18.6185 H   0  0  0  0  0  0  0  0  0  0  0  0
   13.1803   11.6241   16.8992 H   0  0  0  0  0  0  0  0  0  0  0  0
   16.1669   12.4046   20.7848 H   0  0  0  0  0  0  0  0  0  0  0  0
   12.2193   12.3425   19.0610 H   0  0  0  0  0  0  0  0  0  0  0  0
    7.9314   12.3358   25.8937 H   0  0  0  0  0  0  0  0  0  0  0  0
    7.8240   10.5857   26.2486 H   0  0  0  0  0  0  0  0  0  0  0  0
    7.7772   11.8851   22.1866 H   0  0  0  0  0  0  0  0  0  0  0  0
    7.4152   13.1433   23.3814 H   0  0  0  0  0  0  0  0  0  0  0  0
    7.1552    8.9476   24.2591 H   0  0  0  0  0  0  0  0  0  0  0  0
    7.6331    9.5571   22.6620 H   0  0  0  0  0  0  0  0  0  0  0  0
    6.1754   11.2021   24.2693 H   0  0  0  0  0  0  0  0  0  0  0  0
   10.2750   11.1907   25.4461 H   0  0  0  0  0  0  0  0  0  0  0  0
    9.5484   13.1892   24.1744 H   0  0  0  0  0  0  0  0  0  0  0  0
    9.2999    8.9381   25.0197 H   0  0  0  0  0  0  0  0  0  0  0  0
   14.1573   12.4967   22.2146 H   0  0  0  0  0  0  0  0  0  0  0  0
   13.5073   13.9502   21.4391 H   0  0  0  0  0  0  0  0  0  0  0  0
   10.0275   11.5207   21.8356 H   0  0  0  0  0  0  0  0  0  0  0  0
    9.8246    8.4673   22.8593 H   0  0  0  0  0  0  0  0  0  0  0  0
  1  2  1  0  0  0  0
  1  3  2  0  0  0  0
  2  4  2  0  0  0  0
  3  5  1  0  0  0  0
  4  6  1  0  0  0  0
  5  6  2  0  0  0  0
  6 15  1  0  0  0  0
  7 16  1  0  0  0  0
  7 17  2  0  0  0  0
  7 19  1  0  0  0  0
  8 11  1  6  0  0  0
  8 12  1  6  0  0  0
  9 11  1  0  0  0  0
  9 13  1  0  0  0  0
 10 11  1  0  0  0  0
 10 14  1  0  0  0  0
 12 13  1  0  0  0  0
 12 14  1  0  0  0  0
 13 16  1  1  0  0  0
 14 18  1  1  0  0  0
 15 19  1  0  0  0  0
  1 20  1  0  0  0  0
  2 21  1  0  0  0  0
  3 22  1  0  0  0  0
  4 23  1  0  0  0  0
  5 24  1  0  0  0  0
  8 25  1  0  0  0  0
  8 26  1  0  0  0  0
  9 27  1  0  0  0  0
  9 28  1  0  0  0  0
 10 29  1  0  0  0  0
 10 30  1  0  0  0  0
 11 31  1  0  0  0  0
 12 32  1  0  0  0  0
 13 33  1  0  0  0  0
 14 34  1  0  0  0  0
 15 35  1  0  0  0  0
 15 36  1  0  0  0  0
 16 37  1  0  0  0  0
 18 38  1  0  0  0  0
M  END
> <id>
EN300-28281048

> <smiles>
O[C@@H]1C[C@@H]2C[C@H](NC(=O)OCC=3C=CC=CC3)[C@H]1C2 |&1:1,5,&2:3,17,r|

> <IUPAC Name>
benzyl N-[(1RS,2RS&,4SR,6SR&)-6-hydroxybicyclo[2.2.1]heptan-2-yl]carbamate

> <CAS>
2679933-56-1

> <URL>
https://www.enaminestore.com/catalog/EN300-28281048

> <ROCS_ShapeQuery>
x0812_0A_x1140_0A_x1097_0A_x0365_0A_x1097_0A_x0310_0A

> <ROCS_TanimotoCombo>
0.726 

> <ROCS_ShapeTanimoto>
0.208 

> <ROCS_ColorTanimoto>
0.518 

> <ROCS_RefTversky>
0.195 

> <ROCS_RefColorTversky>
0.604 

> <ROCS_RefTverskyCombo>
0.799 

> <ROCS_FitTversky>
1.475 

> <ROCS_FitColorTversky>
0.785 

> <ROCS_FitTverskyCombo>
2.260 

> <ROCS_ColorScore>
-9.020

> <ROCS_Overlap>
1976.769

> <ROCS_Rank>
116                 

$$$$
untitled-dbase-477637_3
  -OEChem-02092408543D

 31 32  0     0  0  0  0  0  0999 V2000
    9.8009   12.1034   22.3852 C   0  0  0  0  0  0  0  0  0  0  0  0
    9.1223   11.8371   24.9679 C   0  0  0  0  0  0  0  0  0  0  0  0
    7.5023   11.6252   23.6852 C   0  0  0  0  0  0  0  0  0  0  0  0
    9.0443   11.3409   23.4663 C   0  0  0  0  0  0  0  0  0  0  0  0
    7.8684   10.8836   25.0273 C   0  0  0  0  0  0  0  0  0  0  0  0
    9.1811    9.7927   23.5491 C   0  0  0  0  0  0  0  0  0  0  0  0
    8.6447    9.0774   22.3131 C   0  0  0  0  0  0  0  0  0  0  0  0
   10.6016    9.3325   23.8613 C   0  0  0  0  0  0  0  0  0  0  0  0
   11.2172   13.9629   22.0385 C   0  0  0  0  0  0  0  0  0  0  0  0
    6.9370   10.9015   26.2012 C   0  0  0  0  0  0  0  0  0  0  0  0
    5.6662   10.3353   25.8535 N   0  0  0  0  0  0  0  0  0  0  0  0
    9.7997   11.7951   21.2011 O   0  0  0  0  0  0  0  0  0  0  0  0
    8.3215    9.5415   24.6770 O   0  0  0  0  0  0  0  0  0  0  0  0
   10.4603   13.1564   22.9467 O   0  0  0  0  0  0  0  0  0  0  0  0
    9.9857   11.5267   25.5604 H   0  0  0  0  0  0  0  0  0  0  0  0
    8.9474   12.9049   25.1472 H   0  0  0  0  0  0  0  0  0  0  0  0
    7.1978   12.6760   23.7612 H   0  0  0  0  0  0  0  0  0  0  0  0
    6.7936   11.1090   23.0338 H   0  0  0  0  0  0  0  0  0  0  0  0
    8.7659    8.0007   22.4259 H   0  0  0  0  0  0  0  0  0  0  0  0
    9.1900    9.4054   21.4289 H   0  0  0  0  0  0  0  0  0  0  0  0
    7.5872    9.3043   22.1830 H   0  0  0  0  0  0  0  0  0  0  0  0
   10.6375    8.2446   23.9069 H   0  0  0  0  0  0  0  0  0  0  0  0
   10.9208    9.7389   24.8203 H   0  0  0  0  0  0  0  0  0  0  0  0
   11.2826    9.6782   23.0844 H   0  0  0  0  0  0  0  0  0  0  0  0
   11.7027   14.7734   22.5876 H   0  0  0  0  0  0  0  0  0  0  0  0
   10.5529   14.3733   21.2739 H   0  0  0  0  0  0  0  0  0  0  0  0
   11.9788   13.3417   21.5614 H   0  0  0  0  0  0  0  0  0  0  0  0
    7.3859   10.3174   27.0147 H   0  0  0  0  0  0  0  0  0  0  0  0
    6.7969   11.9415   26.5227 H   0  0  0  0  0  0  0  0  0  0  0  0
    4.9453   11.0165   25.9891 H   0  0  0  0  0  0  0  0  0  0  0  0
    5.6759   10.0507   24.8938 H   0  0  0  0  0  0  0  0  0  0  0  0
  1  4  1  0  0  0  0
  1 12  2  0  0  0  0
  1 14  1  0  0  0  0
  2  4  1  0  0  0  0
  2  5  1  0  0  0  0
  3  4  1  0  0  0  0
  3  5  1  0  0  0  0
  4  6  1  0  0  0  0
  5 10  1  0  0  0  0
  5 13  1  0  0  0  0
  6  7  1  0  0  0  0
  6  8  1  0  0  0  0
  6 13  1  0  0  0  0
  9 14  1  0  0  0  0
 10 11  1  0  0  0  0
  2 15  1  0  0  0  0
  2 16  1  0  0  0  0
  3 17  1  0  0  0  0
  3 18  1  0  0  0  0
  7 19  1  0  0  0  0
  7 20  1  0  0  0  0
  7 21  1  0  0  0  0
  8 22  1  0  0  0  0
  8 23  1  0  0  0  0
  8 24  1  0  0  0  0
  9 25  1  0  0  0  0
  9 26  1  0  0  0  0
  9 27  1  0  0  0  0
 10 28  1  0  0  0  0
 10 29  1  0  0  0  0
 11 30  1  0  0  0  0
 11 31  1  0  0  0  0
M  END
> <id>
EN300-27727189

> <smiles>
COC(=O)C1(CC2(CN)C1)C(C)(C)O2

> <IUPAC Name>
methyl 1-(aminomethyl)-3,3-dimethyl-2-oxabicyclo[2.1.1]hexane-4-carboxylate

> <CAS>
2580215-19-4

> <URL>
https://www.enaminestore.com/catalog/EN300-27727189

> <ROCS_ShapeQuery>
x0812_0A_x1140_0A_x1097_0A_x0365_0A_x1097_0A_x0310_0A

> <ROCS_TanimotoCombo>
0.726 

> <ROCS_ShapeTanimoto>
0.251 

> <ROCS_ColorTanimoto>
0.475 

> <ROCS_RefTversky>
0.223 

> <ROCS_RefColorTversky>
0.579 

> <ROCS_RefTverskyCombo>
0.802 

> <ROCS_FitTversky>
2.021 

> <ROCS_FitColorTversky>
0.726 

> <ROCS_FitTverskyCombo>
2.748 

> <ROCS_ColorScore>
-8.659

> <ROCS_Overlap>
2255.297

> <ROCS_Rank>
117                 

$$$$
untitled-dbase-516119_1
  -OEChem-02092408543D

 31 33  0     1  0  0  0  0  0999 V2000
    6.6993   10.8889   24.8746 C   0  0  0  0  0  0  0  0  0  0  0  0
    7.5160   12.4416   23.0815 C   0  0  0  0  0  0  0  0  0  0  0  0
    8.5943   12.4614   25.3523 C   0  0  0  0  0  0  0  0  0  0  0  0
    7.9463    9.9786   22.9003 C   0  0  0  0  0  0  0  0  0  0  0  0
    9.0241    9.9991   25.1650 C   0  0  0  0  0  0  0  0  0  0  0  0
    9.8469   11.5513   23.3742 C   0  0  0  0  0  0  0  0  0  0  0  0
    6.9392   11.0426   23.3631 C   0  0  1  0  0  0  0  0  0  0  0  0
    8.0219   11.0622   25.6403 C   0  0  2  0  0  0  0  0  0  0  0  0
    8.8521   12.6401   23.8369 C   0  0  0  0  0  0  0  0  0  0  0  0
    9.2753   10.1501   23.6557 C   0  0  0  0  0  0  0  0  0  0  0  0
    9.4202   14.0335   23.5552 C   0  0  0  0  0  0  0  0  0  0  0  0
   10.1891    9.1562   23.2143 O   0  0  0  0  0  0  0  0  0  0  0  0
   10.9865   14.2566   24.4317 S   0  0  0  0  0  0  0  0  0  0  0  0
    5.9691   11.6331   25.2156 H   0  0  0  0  0  0  0  0  0  0  0  0
    6.2708    9.9015   25.0868 H   0  0  0  0  0  0  0  0  0  0  0  0
    7.6690   12.5659   22.0017 H   0  0  0  0  0  0  0  0  0  0  0  0
    6.7907   13.2067   23.3870 H   0  0  0  0  0  0  0  0  0  0  0  0
    7.8936   13.2266   25.7105 H   0  0  0  0  0  0  0  0  0  0  0  0
    9.5268   12.6004   25.9144 H   0  0  0  0  0  0  0  0  0  0  0  0
    7.5441    8.9710   23.0676 H   0  0  0  0  0  0  0  0  0  0  0  0
    8.1145   10.0546   21.8182 H   0  0  0  0  0  0  0  0  0  0  0  0
    9.9684   10.0899   25.7175 H   0  0  0  0  0  0  0  0  0  0  0  0
    8.6483    8.9917   25.3859 H   0  0  0  0  0  0  0  0  0  0  0  0
   10.0655   11.6544   22.3028 H   0  0  0  0  0  0  0  0  0  0  0  0
   10.8136   11.6691   23.8825 H   0  0  0  0  0  0  0  0  0  0  0  0
    5.9938   10.9170   22.8240 H   0  0  0  0  0  0  0  0  0  0  0  0
    7.8444   10.9495   26.7156 H   0  0  0  0  0  0  0  0  0  0  0  0
    8.7103   14.7910   23.8856 H   0  0  0  0  0  0  0  0  0  0  0  0
    9.5857   14.1506   22.4848 H   0  0  0  0  0  0  0  0  0  0  0  0
   11.0135    9.2929   23.7091 H   0  0  0  0  0  0  0  0  0  0  0  0
   11.2185   15.5063   24.0056 H   0  0  0  0  0  0  0  0  0  0  0  0
  1  7  1  0  0  0  0
  1  8  1  0  0  0  0
  2  7  1  0  0  0  0
  2  9  1  0  0  0  0
  3  8  1  0  0  0  0
  3  9  1  0  0  0  0
  4  7  1  0  0  0  0
  4 10  1  0  0  0  0
  5  8  1  0  0  0  0
  5 10  1  0  0  0  0
  6  9  1  0  0  0  0
  6 10  1  0  0  0  0
  9 11  1  0  0  0  0
 10 12  1  0  0  0  0
 11 13  1  0  0  0  0
  1 14  1  0  0  0  0
  1 15  1  0  0  0  0
  2 16  1  0  0  0  0
  2 17  1  0  0  0  0
  3 18  1  0  0  0  0
  3 19  1  0  0  0  0
  4 20  1  0  0  0  0
  4 21  1  0  0  0  0
  5 22  1  0  0  0  0
  5 23  1  0  0  0  0
  6 24  1  0  0  0  0
  6 25  1  0  0  0  0
  7 26  1  0  0  0  0
  8 27  1  0  0  0  0
 11 28  1  0  0  0  0
 11 29  1  0  0  0  0
 12 30  1  0  0  0  0
 13 31  1  0  0  0  0
M  END
> <id>
EN300-28334153

> <smiles>
OC1(CC2CC3C1)CC(CS)(C2)C3

> <IUPAC Name>
3-(sulfanylmethyl)adamantan-1-ol

> <CAS>
2680840-51-9

> <URL>
https://www.enaminestore.com/catalog/EN300-28334153

> <ROCS_ShapeQuery>
x0812_0A_x1140_0A_x1097_0A_x0365_0A_x1097_0A_x0310_0A

> <ROCS_TanimotoCombo>
0.725 

> <ROCS_ShapeTanimoto>
0.222 

> <ROCS_ColorTanimoto>
0.504 

> <ROCS_RefTversky>
0.201 

> <ROCS_RefColorTversky>
0.534 

> <ROCS_RefTverskyCombo>
0.735 

> <ROCS_FitTversky>
1.891 

> <ROCS_FitColorTversky>
0.898 

> <ROCS_FitTverskyCombo>
2.790 

> <ROCS_ColorScore>
-7.907

> <ROCS_Overlap>
2030.242

> <ROCS_Rank>
118                 

$$$$
untitled-dbase-475027_0
  -OEChem-02092408543D

 34 35  0     1  0  0  0  0  0999 V2000
    9.7379   12.1129   22.4310 C   0  0  0  0  0  0  0  0  0  0  0  0
    9.6543   10.7684   25.0594 C   0  0  0  0  0  0  0  0  0  0  0  0
    7.3463   11.6843   25.2934 C   0  0  0  0  0  0  0  0  0  0  0  0
    8.5210   11.9328   23.2832 C   0  0  2  0  0  0  0  0  0  0  0  0
    8.7613   11.9984   24.7866 C   0  0  2  0  0  0  0  0  0  0  0  0
    7.9698   10.5113   23.3594 C   0  0  1  0  0  0  0  0  0  0  0  0
    9.0599    9.7170   24.1093 C   0  0  1  0  0  0  0  0  0  0  0  0
   11.4146   13.8348   20.9079 C   0  0  0  0  0  0  0  0  0  0  0  0
   12.5556   14.3464   23.0864 C   0  0  0  0  0  0  0  0  0  0  0  0
   12.5766   12.0027   22.1838 C   0  0  0  0  0  0  0  0  0  0  0  0
   11.7764   13.2999   22.2928 C   0  0  0  0  0  0  0  0  0  0  0  0
    6.8460   10.6874   24.3128 N   0  0  0  0  0  0  0  0  0  0  0  0
    9.9343   11.5149   21.3818 O   0  0  0  0  0  0  0  0  0  0  0  0
   10.0576    9.2484   23.2141 O   0  0  0  0  0  0  0  0  0  0  0  0
   10.5661   13.0300   23.0072 O   0  0  0  0  0  0  0  0  0  0  0  0
   10.7053   10.9789   24.8324 H   0  0  0  0  0  0  0  0  0  0  0  0
    9.5871   10.4510   26.1054 H   0  0  0  0  0  0  0  0  0  0  0  0
    7.3395   11.2855   26.3129 H   0  0  0  0  0  0  0  0  0  0  0  0
    6.7064   12.5722   25.2573 H   0  0  0  0  0  0  0  0  0  0  0  0
    7.7737   12.6604   22.9410 H   0  0  0  0  0  0  0  0  0  0  0  0
    9.1772   12.9337   25.1669 H   0  0  0  0  0  0  0  0  0  0  0  0
    7.6719   10.0783   22.4014 H   0  0  0  0  0  0  0  0  0  0  0  0
    8.6667    8.8516   24.6540 H   0  0  0  0  0  0  0  0  0  0  0  0
   10.8553   13.0865   20.3351 H   0  0  0  0  0  0  0  0  0  0  0  0
   10.8109   14.7459   20.9725 H   0  0  0  0  0  0  0  0  0  0  0  0
   12.3168   14.0579   20.3269 H   0  0  0  0  0  0  0  0  0  0  0  0
   12.8173   13.9668   24.0807 H   0  0  0  0  0  0  0  0  0  0  0  0
   11.9488   15.2446   23.2488 H   0  0  0  0  0  0  0  0  0  0  0  0
   13.4774   14.6388   22.5733 H   0  0  0  0  0  0  0  0  0  0  0  0
   12.8363   11.6188   23.1770 H   0  0  0  0  0  0  0  0  0  0  0  0
   12.0178   11.2278   21.6490 H   0  0  0  0  0  0  0  0  0  0  0  0
   13.5245   12.1724   21.6604 H   0  0  0  0  0  0  0  0  0  0  0  0
    6.6371    9.8079   24.7832 H   0  0  0  0  0  0  0  0  0  0  0  0
   10.7612    8.8565   23.7571 H   0  0  0  0  0  0  0  0  0  0  0  0
  1  4  1  6  0  0  0
  1 13  2  0  0  0  0
  1 15  1  0  0  0  0
  2  5  1  0  0  0  0
  2  7  1  0  0  0  0
  3  5  1  1  0  0  0
  3 12  1  0  0  0  0
  4  5  1  0  0  0  0
  4  6  1  0  0  0  0
  6  7  1  0  0  0  0
  6 12  1  1  0  0  0
  7 14  1  6  0  0  0
  8 11  1  0  0  0  0
  9 11  1  0  0  0  0
 10 11  1  0  0  0  0
 11 15  1  0  0  0  0
  2 16  1  0  0  0  0
  2 17  1  0  0  0  0
  3 18  1  0  0  0  0
  3 19  1  0  0  0  0
  4 20  1  0  0  0  0
  5 21  1  0  0  0  0
  6 22  1  0  0  0  0
  7 23  1  0  0  0  0
  8 24  1  0  0  0  0
  8 25  1  0  0  0  0
  8 26  1  0  0  0  0
  9 27  1  0  0  0  0
  9 28  1  0  0  0  0
  9 29  1  0  0  0  0
 10 30  1  0  0  0  0
 10 31  1  0  0  0  0
 10 32  1  0  0  0  0
 12 33  1  0  0  0  0
 14 34  1  0  0  0  0
M  END
> <id>
EN300-27732015

> <smiles>
CC(C)(C)OC(=O)[C@@H]1[C@H]2CN[C@@H]1[C@@H](O)C2 |&1:7,8,11,12,r|

> <IUPAC Name>
rac-tert-butyl (1R,4R,6R,7S)-6-hydroxy-2-azabicyclo[2.2.1]heptane-7-carboxylate

> <CAS>
2580099-53-0

> <URL>
https://www.enaminestore.com/catalog/EN300-27732015

> <ROCS_ShapeQuery>
x0812_0A_x1140_0A_x1097_0A_x0365_0A_x1097_0A_x0310_0A

> <ROCS_TanimotoCombo>
0.725 

> <ROCS_ShapeTanimoto>
0.242 

> <ROCS_ColorTanimoto>
0.483 

> <ROCS_RefTversky>
0.217 

> <ROCS_RefColorTversky>
0.597 

> <ROCS_RefTverskyCombo>
0.815 

> <ROCS_FitTversky>
1.885 

> <ROCS_FitColorTversky>
0.717 

> <ROCS_FitTverskyCombo>
2.602 

> <ROCS_ColorScore>
-8.960

> <ROCS_Overlap>
2199.754

> <ROCS_Rank>
119                 

$$$$
untitled-dbase-559902_7
  -OEChem-02092408543D

 31 33  0     0  0  0  0  0  0999 V2000
   13.7149   14.6208   20.4771 C   0  0  0  0  0  0  0  0  0  0  0  0
   13.6336   14.8433   21.8516 C   0  0  0  0  0  0  0  0  0  0  0  0
   12.8352   13.7303   19.8614 C   0  0  0  0  0  0  0  0  0  0  0  0
   12.6728   14.1752   22.6107 C   0  0  0  0  0  0  0  0  0  0  0  0
   11.8744   13.0622   20.6205 C   0  0  0  0  0  0  0  0  0  0  0  0
   11.7932   13.2846   21.9951 C   0  0  0  0  0  0  0  0  0  0  0  0
    9.8725   11.6937   22.3176 C   0  0  0  0  0  0  0  0  0  0  0  0
    7.4491   11.4210   23.4368 C   0  0  0  0  0  0  0  0  0  0  0  0
    8.9116   12.0238   24.8007 C   0  0  0  0  0  0  0  0  0  0  0  0
    8.2824    9.6527   24.9241 C   0  0  0  0  0  0  0  0  0  0  0  0
    9.0093   11.1930   23.4639 C   0  0  0  0  0  0  0  0  0  0  0  0
    7.6717   11.0702   24.9525 C   0  0  0  0  0  0  0  0  0  0  0  0
    6.6090   11.3318   25.9765 C   0  0  0  0  0  0  0  0  0  0  0  0
   10.8184   12.6070   22.7653 N   0  0  0  0  0  0  0  0  0  0  0  0
    9.6932   11.2895   21.1733 O   0  0  0  0  0  0  0  0  0  0  0  0
    9.2229    9.8064   23.8478 O   0  0  0  0  0  0  0  0  0  0  0  0
    7.0489   10.9061   27.1813 F   0  0  0  0  0  0  0  0  0  0  0  0
    5.5136   10.6043   25.6653 F   0  0  0  0  0  0  0  0  0  0  0  0
   14.4624   15.1414   19.8856 H   0  0  0  0  0  0  0  0  0  0  0  0
   14.3177   15.5372   22.3311 H   0  0  0  0  0  0  0  0  0  0  0  0
   12.8981   13.5581   18.7909 H   0  0  0  0  0  0  0  0  0  0  0  0
   12.6188   14.3566   23.6812 H   0  0  0  0  0  0  0  0  0  0  0  0
   11.1941   12.3705   20.1298 H   0  0  0  0  0  0  0  0  0  0  0  0
    7.0968   12.4329   23.2067 H   0  0  0  0  0  0  0  0  0  0  0  0
    6.8681   10.6964   22.8588 H   0  0  0  0  0  0  0  0  0  0  0  0
    9.7219   11.8724   25.5203 H   0  0  0  0  0  0  0  0  0  0  0  0
    8.7061   13.0960   24.7078 H   0  0  0  0  0  0  0  0  0  0  0  0
    8.8126    9.4021   25.8471 H   0  0  0  0  0  0  0  0  0  0  0  0
    7.5506    8.8811   24.6686 H   0  0  0  0  0  0  0  0  0  0  0  0
    6.3500   12.3863   26.0288 H   0  0  0  0  0  0  0  0  0  0  0  0
   10.8222   12.8222   23.7602 H   0  0  0  0  0  0  0  0  0  0  0  0
  1  2  1  0  0  0  0
  1  3  2  0  0  0  0
  2  4  2  0  0  0  0
  3  5  1  0  0  0  0
  4  6  1  0  0  0  0
  5  6  2  0  0  0  0
  6 14  1  0  0  0  0
  7 11  1  1  0  0  0
  7 14  1  0  0  0  0
  7 15  2  0  0  0  0
  8 11  1  0  0  0  0
  8 12  1  0  0  0  0
  9 11  1  0  0  0  0
  9 12  1  0  0  0  0
 10 12  1  0  0  0  0
 10 16  1  0  0  0  0
 11 16  1  0  0  0  0
 12 13  1  1  0  0  0
 13 17  1  0  0  0  0
 13 18  1  0  0  0  0
  1 19  1  0  0  0  0
  2 20  1  0  0  0  0
  3 21  1  0  0  0  0
  4 22  1  0  0  0  0
  5 23  1  0  0  0  0
  8 24  1  0  0  0  0
  8 25  1  0  0  0  0
  9 26  1  0  0  0  0
  9 27  1  0  0  0  0
 10 28  1  0  0  0  0
 10 29  1  0  0  0  0
 13 30  1  0  0  0  0
 14 31  1  0  0  0  0
M  END
> <id>
EN300-37375445

> <smiles>
FC(F)[C@]1(C[C@]2(C1)C(=O)NC=3C=CC=CC3)CO2

> <IUPAC Name>
4-(difluoromethyl)-N-phenyl-2-oxabicyclo[2.1.1]hexane-1-carboxamide

> <CAS>
2648956-61-8

> <URL>
https://www.enaminestore.com/catalog/EN300-37375445

> <ROCS_ShapeQuery>
x0812_0A_x1140_0A_x1097_0A_x0365_0A_x1097_0A_x0310_0A

> <ROCS_TanimotoCombo>
0.725 

> <ROCS_ShapeTanimoto>
0.245 

> <ROCS_ColorTanimoto>
0.480 

> <ROCS_RefTversky>
0.223 

> <ROCS_RefColorTversky>
0.563 

> <ROCS_RefTverskyCombo>
0.786 

> <ROCS_FitTversky>
1.718 

> <ROCS_FitColorTversky>
0.764 

> <ROCS_FitTverskyCombo>
2.482 

> <ROCS_ColorScore>
-8.403

> <ROCS_Overlap>
2253.868

> <ROCS_Rank>
120                 

$$$$
untitled-dbase-475854_6
  -OEChem-02092408543D

 44 46  0     1  0  0  0  0  0999 V2000
    5.6019   10.0067   27.0154 C   0  0  0  0  0  0  0  0  0  0  0  0
    8.7758   12.7248   25.0268 C   0  0  0  0  0  0  0  0  0  0  0  0
    7.3346   12.3022   23.0125 C   0  0  0  0  0  0  0  0  0  0  0  0
    9.7022   11.4834   23.0579 C   0  0  0  0  0  0  0  0  0  0  0  0
    9.2474   10.2750   25.2065 C   0  0  0  0  0  0  0  0  0  0  0  0
    7.8038    9.8522   23.1865 C   0  0  0  0  0  0  0  0  0  0  0  0
    8.7630   12.6200   23.4910 C   0  0  0  0  0  0  0  0  0  0  0  0
    8.2951   11.4002   25.6561 C   0  0  2  0  0  0  0  0  0  0  0  0
    6.8470   10.9753   23.6321 C   0  0  1  0  0  0  0  0  0  0  0  0
    6.8476   11.1283   25.1739 C   0  0  0  0  0  0  0  0  0  0  0  0
    9.2332   10.1534   23.6720 C   0  0  0  0  0  0  0  0  0  0  0  0
    3.0722    9.5235   26.5540 C   0  0  0  0  0  0  0  0  0  0  0  0
    3.4757    7.1116   27.1278 C   0  0  0  0  0  0  0  0  0  0  0  0
    3.4004    8.8356   28.9527 C   0  0  0  0  0  0  0  0  0  0  0  0
    3.7866    8.5597   27.5003 C   0  0  0  0  0  0  0  0  0  0  0  0
    6.2869    9.9638   25.8192 N   0  0  0  0  0  0  0  0  0  0  0  0
    5.3807   11.0147   27.6784 O   0  0  0  0  0  0  0  0  0  0  0  0
   10.1140    9.1182   23.2596 O   0  0  0  0  0  0  0  0  0  0  0  0
    5.1994    8.7473   27.3607 O   0  0  0  0  0  0  0  0  0  0  0  0
    9.7884   12.9598   25.3775 H   0  0  0  0  0  0  0  0  0  0  0  0
    8.1287   13.5495   25.3507 H   0  0  0  0  0  0  0  0  0  0  0  0
    6.6564   13.1175   23.2930 H   0  0  0  0  0  0  0  0  0  0  0  0
    7.3133   12.2338   21.9178 H   0  0  0  0  0  0  0  0  0  0  0  0
    9.7310   11.4054   21.9633 H   0  0  0  0  0  0  0  0  0  0  0  0
   10.7334   11.6995   23.3661 H   0  0  0  0  0  0  0  0  0  0  0  0
   10.2678   10.4745   25.5586 H   0  0  0  0  0  0  0  0  0  0  0  0
    8.9623    9.3195   25.6644 H   0  0  0  0  0  0  0  0  0  0  0  0
    7.4692    8.8817   23.5739 H   0  0  0  0  0  0  0  0  0  0  0  0
    7.7911    9.7502   22.0933 H   0  0  0  0  0  0  0  0  0  0  0  0
    9.0988   13.5661   23.0521 H   0  0  0  0  0  0  0  0  0  0  0  0
    8.3182   11.4926   26.7484 H   0  0  0  0  0  0  0  0  0  0  0  0
    5.8327   10.7635   23.2738 H   0  0  0  0  0  0  0  0  0  0  0  0
    6.1996   11.9651   25.4619 H   0  0  0  0  0  0  0  0  0  0  0  0
    3.2928   10.5640   26.8181 H   0  0  0  0  0  0  0  0  0  0  0  0
    3.3672    9.3590   25.5125 H   0  0  0  0  0  0  0  0  0  0  0  0
    1.9846    9.4098   26.6278 H   0  0  0  0  0  0  0  0  0  0  0  0
    3.9863    6.4166   27.8042 H   0  0  0  0  0  0  0  0  0  0  0  0
    3.8371    6.8819   26.1189 H   0  0  0  0  0  0  0  0  0  0  0  0
    2.4011    6.9063   27.1663 H   0  0  0  0  0  0  0  0  0  0  0  0
    3.9127    8.1444   29.6317 H   0  0  0  0  0  0  0  0  0  0  0  0
    3.6502    9.8596   29.2489 H   0  0  0  0  0  0  0  0  0  0  0  0
    2.3263    8.6809   29.1065 H   0  0  0  0  0  0  0  0  0  0  0  0
    6.4036    9.0626   25.3663 H   0  0  0  0  0  0  0  0  0  0  0  0
    9.7902    8.2964   23.6633 H   0  0  0  0  0  0  0  0  0  0  0  0
  1 16  1  0  0  0  0
  1 17  2  0  0  0  0
  1 19  1  0  0  0  0
  2  7  1  0  0  0  0
  2  8  1  0  0  0  0
  3  7  1  0  0  0  0
  3  9  1  0  0  0  0
  4  7  1  0  0  0  0
  4 11  1  0  0  0  0
  5  8  1  0  0  0  0
  5 11  1  0  0  0  0
  6  9  1  0  0  0  0
  6 11  1  0  0  0  0
  8 10  1  0  0  0  0
  9 10  1  0  0  0  0
 10 16  1  6  0  0  0
 11 18  1  6  0  0  0
 12 15  1  0  0  0  0
 13 15  1  0  0  0  0
 14 15  1  0  0  0  0
 15 19  1  0  0  0  0
  2 20  1  0  0  0  0
  2 21  1  0  0  0  0
  3 22  1  0  0  0  0
  3 23  1  0  0  0  0
  4 24  1  0  0  0  0
  4 25  1  0  0  0  0
  5 26  1  0  0  0  0
  5 27  1  0  0  0  0
  6 28  1  0  0  0  0
  6 29  1  0  0  0  0
  7 30  1  0  0  0  0
  8 31  1  0  0  0  0
  9 32  1  0  0  0  0
 10 33  1  0  0  0  0
 12 34  1  0  0  0  0
 12 35  1  0  0  0  0
 12 36  1  0  0  0  0
 13 37  1  0  0  0  0
 13 38  1  0  0  0  0
 13 39  1  0  0  0  0
 14 40  1  0  0  0  0
 14 41  1  0  0  0  0
 14 42  1  0  0  0  0
 16 43  1  0  0  0  0
 18 44  1  0  0  0  0
M  END
> <id>
EN300-27718296

> <smiles>
CC(C)(C)OC(=O)N[C@H]1C2CC3CC1C[C@@](O)(C3)C2

> <IUPAC Name>
tert-butyl N-[(5s)-5-hydroxyadamantan-2-yl]carbamate

> <URL>
https://www.enaminestore.com/catalog/EN300-27718296

> <ROCS_ShapeQuery>
x0812_0A_x1140_0A_x1097_0A_x0365_0A_x1097_0A_x0310_0A

> <ROCS_TanimotoCombo>
0.725 

> <ROCS_ShapeTanimoto>
0.230 

> <ROCS_ColorTanimoto>
0.496 

> <ROCS_RefTversky>
0.211 

> <ROCS_RefColorTversky>
0.589 

> <ROCS_RefTverskyCombo>
0.801 

> <ROCS_FitTversky>
1.599 

> <ROCS_FitColorTversky>
0.757 

> <ROCS_FitTverskyCombo>
2.356 

> <ROCS_ColorScore>
-8.813

> <ROCS_Overlap>
2139.828

> <ROCS_Rank>
121                 

$$$$
untitled-dbase-528696_0
  -OEChem-02092408543D

 17 18  0     0  0  0  0  0  0999 V2000
    7.5289   10.4773   23.5741 C   0  0  0  0  0  0  0  0  0  0  0  0
    9.1144   11.8876   23.7346 C   0  0  0  0  0  0  0  0  0  0  0  0
    8.7112   10.5514   25.3421 C   0  0  0  0  0  0  0  0  0  0  0  0
    7.8636   11.5914   24.5843 C   0  0  0  0  0  0  0  0  0  0  0  0
    9.0574   10.3343   23.8389 C   0  0  0  0  0  0  0  0  0  0  0  0
    6.9251   12.5797   25.1703 C   0  0  0  0  0  0  0  0  0  0  0  0
    9.9420    9.3971   23.2820 O   0  0  0  0  0  0  0  0  0  0  0  0
    7.5923   13.3735   26.0446 F   0  0  0  0  0  0  0  0  0  0  0  0
    5.9689   11.9299   25.8798 F   0  0  0  0  0  0  0  0  0  0  0  0
    6.8828    9.6641   23.9201 H   0  0  0  0  0  0  0  0  0  0  0  0
    7.2216   10.7865   22.5699 H   0  0  0  0  0  0  0  0  0  0  0  0
    8.9563   12.3288   22.7454 H   0  0  0  0  0  0  0  0  0  0  0  0
    9.9500   12.3919   24.2308 H   0  0  0  0  0  0  0  0  0  0  0  0
    9.5086   10.9299   25.9894 H   0  0  0  0  0  0  0  0  0  0  0  0
    8.1763    9.7449   25.8540 H   0  0  0  0  0  0  0  0  0  0  0  0
    6.4468   13.2040   24.4116 H   0  0  0  0  0  0  0  0  0  0  0  0
   10.8294    9.5710   23.6491 H   0  0  0  0  0  0  0  0  0  0  0  0
  1  4  1  0  0  0  0
  1  5  1  0  0  0  0
  2  4  1  0  0  0  0
  2  5  1  0  0  0  0
  3  4  1  0  0  0  0
  3  5  1  0  0  0  0
  4  6  1  0  0  0  0
  5  7  1  0  0  0  0
  6  8  1  0  0  0  0
  6  9  1  0  0  0  0
  1 10  1  0  0  0  0
  1 11  1  0  0  0  0
  2 12  1  0  0  0  0
  2 13  1  0  0  0  0
  3 14  1  0  0  0  0
  3 15  1  0  0  0  0
  6 16  1  0  0  0  0
  7 17  1  0  0  0  0
M  END
> <id>
EN300-27695481

> <smiles>
OC1(CC2(C1)C(F)F)C2

> <MDLNUMBER>
MFCD34475499

> <IUPAC Name>
3-(difluoromethyl)bicyclo[1.1.1]pentan-1-ol

> <CAS>
2694728-58-8

> <Purity>
95

> <URL>
https://www.enaminestore.com/catalog/EN300-27695481

> <ROCS_ShapeQuery>
x0812_0A_x1140_0A_x1097_0A_x0365_0A_x1097_0A_x0310_0A

> <ROCS_TanimotoCombo>
0.723 

> <ROCS_ShapeTanimoto>
0.183 

> <ROCS_ColorTanimoto>
0.540 

> <ROCS_RefTversky>
0.169 

> <ROCS_RefColorTversky>
0.582 

> <ROCS_RefTverskyCombo>
0.751 

> <ROCS_FitTversky>
1.881 

> <ROCS_FitColorTversky>
0.882 

> <ROCS_FitTverskyCombo>
2.763 

> <ROCS_ColorScore>
-8.646

> <ROCS_Overlap>
1706.028

> <ROCS_Rank>
122                 

$$$$
untitled-dbase-479821_2
  -OEChem-02092408543D

 30 32  0     0  0  0  0  0  0999 V2000
    9.7401   12.1660   22.3546 C   0  0  0  0  0  0  0  0  0  0  0  0
    8.9743   11.9911   24.9212 C   0  0  0  0  0  0  0  0  0  0  0  0
    7.4402   11.5155   23.5768 C   0  0  0  0  0  0  0  0  0  0  0  0
    9.1686    8.9964   22.5180 C   0  0  0  0  0  0  0  0  0  0  0  0
   10.6819    9.4661   23.8443 C   0  0  0  0  0  0  0  0  0  0  0  0
    9.0128   11.4053   23.4528 C   0  0  0  0  0  0  0  0  0  0  0  0
    9.2217    9.8848   23.7526 C   0  0  0  0  0  0  0  0  0  0  0  0
    7.7936   10.9414   25.0083 C   0  0  0  0  0  0  0  0  0  0  0  0
   10.9916   14.1267   21.9386 C   0  0  0  0  0  0  0  0  0  0  0  0
    6.7894   11.0336   26.1211 C   0  0  0  0  0  0  0  0  0  0  0  0
    5.5866   10.3342   25.7787 N   0  0  0  0  0  0  0  0  0  0  0  0
    9.8187   11.7858   21.1943 O   0  0  0  0  0  0  0  0  0  0  0  0
   10.5937    8.7449   22.5910 O   0  0  0  0  0  0  0  0  0  0  0  0
    8.3400    9.5895   24.8631 O   0  0  0  0  0  0  0  0  0  0  0  0
   10.2742   13.3100   22.8694 O   0  0  0  0  0  0  0  0  0  0  0  0
    9.8433   11.7805   25.5514 H   0  0  0  0  0  0  0  0  0  0  0  0
    8.7061   13.0491   25.0217 H   0  0  0  0  0  0  0  0  0  0  0  0
    7.0136   12.5245   23.5383 H   0  0  0  0  0  0  0  0  0  0  0  0
    6.8542   10.8537   22.9319 H   0  0  0  0  0  0  0  0  0  0  0  0
    8.5979    8.0696   22.6332 H   0  0  0  0  0  0  0  0  0  0  0  0
    8.8918    9.4748   21.5744 H   0  0  0  0  0  0  0  0  0  0  0  0
   11.4295   10.2631   23.7993 H   0  0  0  0  0  0  0  0  0  0  0  0
   10.9242    8.7916   24.6716 H   0  0  0  0  0  0  0  0  0  0  0  0
   11.3758   15.0124   22.4505 H   0  0  0  0  0  0  0  0  0  0  0  0
   10.3259   14.4235   21.1243 H   0  0  0  0  0  0  0  0  0  0  0  0
   11.8275   13.5523   21.5323 H   0  0  0  0  0  0  0  0  0  0  0  0
    7.2275   10.5896   27.0230 H   0  0  0  0  0  0  0  0  0  0  0  0
    6.5609   12.0915   26.2971 H   0  0  0  0  0  0  0  0  0  0  0  0
    4.8119   10.9687   25.7893 H   0  0  0  0  0  0  0  0  0  0  0  0
    5.6757    9.9377   24.8634 H   0  0  0  0  0  0  0  0  0  0  0  0
  1  6  1  0  0  0  0
  1 12  2  0  0  0  0
  1 15  1  0  0  0  0
  2  6  1  0  0  0  0
  2  8  1  0  0  0  0
  3  6  1  0  0  0  0
  3  8  1  0  0  0  0
  4  7  1  0  0  0  0
  4 13  1  0  0  0  0
  5  7  1  0  0  0  0
  5 13  1  0  0  0  0
  6  7  1  0  0  0  0
  7 14  1  0  0  0  0
  8 10  1  0  0  0  0
  8 14  1  0  0  0  0
  9 15  1  0  0  0  0
 10 11  1  0  0  0  0
  2 16  1  0  0  0  0
  2 17  1  0  0  0  0
  3 18  1  0  0  0  0
  3 19  1  0  0  0  0
  4 20  1  0  0  0  0
  4 21  1  0  0  0  0
  5 22  1  0  0  0  0
  5 23  1  0  0  0  0
  9 24  1  0  0  0  0
  9 25  1  0  0  0  0
  9 26  1  0  0  0  0
 10 27  1  0  0  0  0
 10 28  1  0  0  0  0
 11 29  1  0  0  0  0
 11 30  1  0  0  0  0
M  END
> <id>
EN300-27728316

> <smiles>
COC(=O)C1(CC2(CN)C1)C3(COC3)O2

> <IUPAC Name>
methyl 4-(aminomethyl)-3-oxaspiro[bicyclo[2.1.1]hexane-2,3'-oxetane]-1-carboxylate

> <CAS>
2580253-50-3

> <URL>
https://www.enaminestore.com/catalog/EN300-27728316

> <ROCS_ShapeQuery>
x0812_0A_x1140_0A_x1097_0A_x0365_0A_x1097_0A_x0310_0A

> <ROCS_TanimotoCombo>
0.723 

> <ROCS_ShapeTanimoto>
0.263 

> <ROCS_ColorTanimoto>
0.460 

> <ROCS_RefTversky>
0.232 

> <ROCS_RefColorTversky>
0.586 

> <ROCS_RefTverskyCombo>
0.818 

> <ROCS_FitTversky>
2.001 

> <ROCS_FitColorTversky>
0.682 

> <ROCS_FitTverskyCombo>
2.683 

> <ROCS_ColorScore>
-8.800

> <ROCS_Overlap>
2349.696

> <ROCS_Rank>
123                 

$$$$
untitled-dbase-499985_8
  -OEChem-02092408543D

 45 48  0     1  0  0  0  0  0999 V2000
   -0.1267   10.2799   25.5069 C   0  0  0  0  0  0  0  0  0  0  0  0
    0.7136   11.3846   25.3691 C   0  0  0  0  0  0  0  0  0  0  0  0
    0.1655    9.2946   26.4500 C   0  0  0  0  0  0  0  0  0  0  0  0
    1.8463   11.5040   26.1744 C   0  0  0  0  0  0  0  0  0  0  0  0
    1.2982    9.4140   27.2553 C   0  0  0  0  0  0  0  0  0  0  0  0
    2.1386   10.5187   27.1175 C   0  0  0  0  0  0  0  0  0  0  0  0
    5.2044   10.8194   26.5068 C   0  0  0  0  0  0  0  0  0  0  0  0
    8.2792   12.9249   23.4850 C   0  0  0  0  0  0  0  0  0  0  0  0
    7.9735   11.7945   25.7030 C   0  0  0  0  0  0  0  0  0  0  0  0
    6.4892   11.1914   23.7695 C   0  0  0  0  0  0  0  0  0  0  0  0
    9.9946   11.2929   24.3079 C   0  0  0  0  0  0  0  0  0  0  0  0
    8.5114   10.6883   22.3774 C   0  0  0  0  0  0  0  0  0  0  0  0
    8.2045    9.5541   24.5936 C   0  0  0  0  0  0  0  0  0  0  0  0
    9.0067   12.3915   24.7311 C   0  0  1  0  0  0  0  0  0  0  0  0
    7.5163   11.7846   22.7892 C   0  0  2  0  0  0  0  0  0  0  0  0
    7.1990   10.6408   25.0268 C   0  0  0  0  0  0  0  0  0  0  0  0
    9.2387   10.1437   23.6183 C   0  0  0  0  0  0  0  0  0  0  0  0
    3.3570   10.6463   27.9839 C   0  0  0  0  0  0  0  0  0  0  0  0
    6.2299   10.0883   25.9469 N   0  0  0  0  0  0  0  0  0  0  0  0
    4.9788   12.0084   26.3067 O   0  0  0  0  0  0  0  0  0  0  0  0
   10.1700    9.1424   23.2341 O   0  0  0  0  0  0  0  0  0  0  0  0
    4.4643   10.0172   27.3290 O   0  0  0  0  0  0  0  0  0  0  0  0
   -1.0094   10.1878   24.8807 H   0  0  0  0  0  0  0  0  0  0  0  0
    0.4857   12.1525   24.6356 H   0  0  0  0  0  0  0  0  0  0  0  0
   -0.4891    8.4349   26.5583 H   0  0  0  0  0  0  0  0  0  0  0  0
    2.4955   12.3681   26.0599 H   0  0  0  0  0  0  0  0  0  0  0  0
    1.5180    8.6413   27.9873 H   0  0  0  0  0  0  0  0  0  0  0  0
    7.5820   13.7219   23.7708 H   0  0  0  0  0  0  0  0  0  0  0  0
    9.0032   13.3689   22.7906 H   0  0  0  0  0  0  0  0  0  0  0  0
    8.4860   11.4321   26.6038 H   0  0  0  0  0  0  0  0  0  0  0  0
    7.2789   12.5809   26.0260 H   0  0  0  0  0  0  0  0  0  0  0  0
    5.7631   11.9657   24.0497 H   0  0  0  0  0  0  0  0  0  0  0  0
    5.9264   10.3919   23.2703 H   0  0  0  0  0  0  0  0  0  0  0  0
   10.7570   11.7022   23.6325 H   0  0  0  0  0  0  0  0  0  0  0  0
   10.5437   10.9142   25.1798 H   0  0  0  0  0  0  0  0  0  0  0  0
    7.9897    9.8750   21.8565 H   0  0  0  0  0  0  0  0  0  0  0  0
    9.2393   11.0822   21.6563 H   0  0  0  0  0  0  0  0  0  0  0  0
    8.7218    9.1308   25.4654 H   0  0  0  0  0  0  0  0  0  0  0  0
    7.6845    8.7107   24.1187 H   0  0  0  0  0  0  0  0  0  0  0  0
    9.5481   13.2081   25.2214 H   0  0  0  0  0  0  0  0  0  0  0  0
    7.0019   12.1704   21.9022 H   0  0  0  0  0  0  0  0  0  0  0  0
    3.6003   11.6988   28.1651 H   0  0  0  0  0  0  0  0  0  0  0  0
    3.1942   10.1666   28.9550 H   0  0  0  0  0  0  0  0  0  0  0  0
    6.3092    9.1074   26.1941 H   0  0  0  0  0  0  0  0  0  0  0  0
    9.6614    8.4357   22.8040 H   0  0  0  0  0  0  0  0  0  0  0  0
  1  2  1  0  0  0  0
  1  3  2  0  0  0  0
  2  4  2  0  0  0  0
  3  5  1  0  0  0  0
  4  6  1  0  0  0  0
  5  6  2  0  0  0  0
  6 18  1  0  0  0  0
  7 19  1  0  0  0  0
  7 20  2  0  0  0  0
  7 22  1  0  0  0  0
  8 14  1  0  0  0  0
  8 15  1  0  0  0  0
  9 14  1  0  0  0  0
  9 16  1  0  0  0  0
 10 15  1  0  0  0  0
 10 16  1  0  0  0  0
 11 14  1  0  0  0  0
 11 17  1  0  0  0  0
 12 15  1  0  0  0  0
 12 17  1  0  0  0  0
 13 16  1  0  0  0  0
 13 17  1  0  0  0  0
 16 19  1  0  0  0  0
 17 21  1  0  0  0  0
 18 22  1  0  0  0  0
  1 23  1  0  0  0  0
  2 24  1  0  0  0  0
  3 25  1  0  0  0  0
  4 26  1  0  0  0  0
  5 27  1  0  0  0  0
  8 28  1  0  0  0  0
  8 29  1  0  0  0  0
  9 30  1  0  0  0  0
  9 31  1  0  0  0  0
 10 32  1  0  0  0  0
 10 33  1  0  0  0  0
 11 34  1  0  0  0  0
 11 35  1  0  0  0  0
 12 36  1  0  0  0  0
 12 37  1  0  0  0  0
 13 38  1  0  0  0  0
 13 39  1  0  0  0  0
 14 40  1  0  0  0  0
 15 41  1  0  0  0  0
 18 42  1  0  0  0  0
 18 43  1  0  0  0  0
 19 44  1  0  0  0  0
 21 45  1  0  0  0  0
M  END
> <id>
EN300-12729439

> <smiles>
OC1(CC2CC3C1)CC(C2)(C3)NC(=O)OCC=4C=CC=CC4

> <IUPAC Name>
benzyl N-(3-hydroxyadamantan-1-yl)carbamate

> <CAS>
565453-43-2

> <URL>
https://www.enaminestore.com/catalog/EN300-12729439

> <ROCS_ShapeQuery>
x0812_0A_x1140_0A_x1097_0A_x0365_0A_x1097_0A_x0310_0A

> <ROCS_TanimotoCombo>
0.723 

> <ROCS_ShapeTanimoto>
0.234 

> <ROCS_ColorTanimoto>
0.489 

> <ROCS_RefTversky>
0.217 

> <ROCS_RefColorTversky>
0.584 

> <ROCS_RefTverskyCombo>
0.802 

> <ROCS_FitTversky>
1.483 

> <ROCS_FitColorTversky>
0.750 

> <ROCS_FitTverskyCombo>
2.233 

> <ROCS_ColorScore>
-8.739

> <ROCS_Overlap>
2200.678

> <ROCS_Rank>
124                 

$$$$
untitled-dbase-47031_0
  -OEChem-02092408543D

 31 32  0     1  0  0  0  0  0999 V2000
   10.3181   11.0882   22.4801 C   0  0  0  0  0  0  0  0  0  0  0  0
    7.5258   12.4922   23.3913 C   0  0  0  0  0  0  0  0  0  0  0  0
    8.5001   12.8639   24.5092 C   0  0  0  0  0  0  0  0  0  0  0  0
    8.0885   10.0287   23.0100 C   0  0  0  0  0  0  0  0  0  0  0  0
    9.7245   10.6523   24.8864 C   0  0  0  0  0  0  0  0  0  0  0  0
    7.1383   11.0400   23.6843 C   0  0  1  0  0  0  0  0  0  0  0  0
    8.6047   11.5991   25.3660 C   0  0  2  0  0  0  0  0  0  0  0  0
    9.5620   10.1968   23.4250 C   0  0  0  0  0  0  0  0  0  0  0  0
    6.2284   11.4408   25.9176 C   0  0  0  0  0  0  0  0  0  0  0  0
   12.4503   12.0253   22.0808 C   0  0  0  0  0  0  0  0  0  0  0  0
    7.3333   10.8886   25.1377 N   0  0  0  0  0  0  0  0  0  0  0  0
    9.8231   11.6196   21.4953 O   0  0  0  0  0  0  0  0  0  0  0  0
   10.2550    8.9576   23.2567 O   0  0  0  0  0  0  0  0  0  0  0  0
   11.6120   11.1998   22.8955 O   0  0  0  0  0  0  0  0  0  0  0  0
    6.6450   13.1433   23.4464 H   0  0  0  0  0  0  0  0  0  0  0  0
    7.9646   12.6255   22.3978 H   0  0  0  0  0  0  0  0  0  0  0  0
    9.4666   13.1982   24.1203 H   0  0  0  0  0  0  0  0  0  0  0  0
    8.0819   13.6916   25.0946 H   0  0  0  0  0  0  0  0  0  0  0  0
    7.7551    9.0126   23.2645 H   0  0  0  0  0  0  0  0  0  0  0  0
    7.9832   10.1026   21.9199 H   0  0  0  0  0  0  0  0  0  0  0  0
   10.6983   11.1365   25.0350 H   0  0  0  0  0  0  0  0  0  0  0  0
    9.7386    9.7689   25.5405 H   0  0  0  0  0  0  0  0  0  0  0  0
    6.1115   10.8215   23.3693 H   0  0  0  0  0  0  0  0  0  0  0  0
    8.7734   11.8366   26.4227 H   0  0  0  0  0  0  0  0  0  0  0  0
    6.4291   11.2993   26.9898 H   0  0  0  0  0  0  0  0  0  0  0  0
    6.1284   12.5148   25.7020 H   0  0  0  0  0  0  0  0  0  0  0  0
    5.2953   10.9243   25.6481 H   0  0  0  0  0  0  0  0  0  0  0  0
   13.4595   12.0465   22.4994 H   0  0  0  0  0  0  0  0  0  0  0  0
   12.0393   13.0372   22.0416 H   0  0  0  0  0  0  0  0  0  0  0  0
   12.4858   11.6092   21.0712 H   0  0  0  0  0  0  0  0  0  0  0  0
   10.1658    8.7206   22.3217 H   0  0  0  0  0  0  0  0  0  0  0  0
  1  8  1  0  0  0  0
  1 12  2  0  0  0  0
  1 14  1  0  0  0  0
  2  3  1  0  0  0  0
  2  6  1  0  0  0  0
  3  7  1  0  0  0  0
  4  6  1  0  0  0  0
  4  8  1  0  0  0  0
  5  7  1  0  0  0  0
  5  8  1  0  0  0  0
  6 11  1  0  0  0  0
  7 11  1  0  0  0  0
  8 13  1  0  0  0  0
  9 11  1  0  0  0  0
 10 14  1  0  0  0  0
  2 15  1  0  0  0  0
  2 16  1  0  0  0  0
  3 17  1  0  0  0  0
  3 18  1  0  0  0  0
  4 19  1  0  0  0  0
  4 20  1  0  0  0  0
  5 21  1  0  0  0  0
  5 22  1  0  0  0  0
  6 23  1  0  0  0  0
  7 24  1  0  0  0  0
  9 25  1  0  0  0  0
  9 26  1  0  0  0  0
  9 27  1  0  0  0  0
 10 28  1  0  0  0  0
 10 29  1  0  0  0  0
 10 30  1  0  0  0  0
 13 31  1  0  0  0  0
M  END
> <id>
EN300-237977

> <smiles>
COC(=O)C1(O)CC2CCC(C1)N2C

> <MDLNUMBER>
MFCD06809787

> <IUPAC Name>
methyl 3-hydroxy-8-methyl-8-azabicyclo[3.2.1]octane-3-carboxylate

> <CAS>
1214031-52-3

> <URL>
https://www.enaminestore.com/catalog/EN300-237977

> <ROCS_ShapeQuery>
x0812_0A_x1140_0A_x1097_0A_x0365_0A_x1097_0A_x0310_0A

> <ROCS_TanimotoCombo>
0.722 

> <ROCS_ShapeTanimoto>
0.236 

> <ROCS_ColorTanimoto>
0.486 

> <ROCS_RefTversky>
0.212 

> <ROCS_RefColorTversky>
0.548 

> <ROCS_RefTverskyCombo>
0.761 

> <ROCS_FitTversky>
1.913 

> <ROCS_FitColorTversky>
0.810 

> <ROCS_FitTverskyCombo>
2.723 

> <ROCS_ColorScore>
-8.154

> <ROCS_Overlap>
2148.299

> <ROCS_Rank>
125                 

$$$$
untitled-dbase-309071_5
  -OEChem-02092408543D

 22 23  0     0  0  0  0  0  0999 V2000
   10.0590   11.9425   22.5213 C   0  0  0  0  0  0  0  0  0  0  0  0
    9.1440   11.7485   25.0359 C   0  0  0  0  0  0  0  0  0  0  0  0
    7.6134   11.8110   23.6162 C   0  0  0  0  0  0  0  0  0  0  0  0
    8.9954    9.7823   23.5730 C   0  0  0  0  0  0  0  0  0  0  0  0
    9.1031   11.3216   23.5247 C   0  0  0  0  0  0  0  0  0  0  0  0
    7.7505   11.0146   24.9697 C   0  0  0  0  0  0  0  0  0  0  0  0
   11.0141   12.9681   23.0829 C   0  0  0  0  0  0  0  0  0  0  0  0
    6.7394   11.1598   26.0659 C   0  0  0  0  0  0  0  0  0  0  0  0
   10.0237   11.6056   21.3392 O   0  0  0  0  0  0  0  0  0  0  0  0
    8.0201    9.6298   24.6181 O   0  0  0  0  0  0  0  0  0  0  0  0
    6.4144   12.4761   26.2063 F   0  0  0  0  0  0  0  0  0  0  0  0
   12.1922   13.6205   21.6903 Br  0  0  0  0  0  0  0  0  0  0  0  0
    9.9063   11.2648   25.6540 H   0  0  0  0  0  0  0  0  0  0  0  0
    9.1323   12.8231   25.2497 H   0  0  0  0  0  0  0  0  0  0  0  0
    7.4485   12.8919   23.6881 H   0  0  0  0  0  0  0  0  0  0  0  0
    6.9198   11.3872   22.8841 H   0  0  0  0  0  0  0  0  0  0  0  0
    8.6105    9.3561   22.6421 H   0  0  0  0  0  0  0  0  0  0  0  0
    9.9330    9.3022   23.8675 H   0  0  0  0  0  0  0  0  0  0  0  0
   11.6419   12.5195   23.8553 H   0  0  0  0  0  0  0  0  0  0  0  0
   10.4633   13.8274   23.4703 H   0  0  0  0  0  0  0  0  0  0  0  0
    7.1293   10.8096   27.0304 H   0  0  0  0  0  0  0  0  0  0  0  0
    5.8146   10.6118   25.8435 H   0  0  0  0  0  0  0  0  0  0  0  0
  1  5  1  0  0  0  0
  1  7  1  0  0  0  0
  1  9  2  0  0  0  0
  2  5  1  0  0  0  0
  2  6  1  0  0  0  0
  3  5  1  0  0  0  0
  3  6  1  0  0  0  0
  4  5  1  0  0  0  0
  4 10  1  0  0  0  0
  6  8  1  0  0  0  0
  6 10  1  0  0  0  0
  7 12  1  0  0  0  0
  8 11  1  0  0  0  0
  2 13  1  0  0  0  0
  2 14  1  0  0  0  0
  3 15  1  0  0  0  0
  3 16  1  0  0  0  0
  4 17  1  0  0  0  0
  4 18  1  0  0  0  0
  7 19  1  0  0  0  0
  7 20  1  0  0  0  0
  8 21  1  0  0  0  0
  8 22  1  0  0  0  0
M  END
> <id>
EN300-7472826

> <smiles>
FCC1(CC2(C1)C(=O)CBr)OC2

> <MDLNUMBER>
MFCD34594907

> <IUPAC Name>
2-bromo-1-[1-(fluoromethyl)-2-oxabicyclo[2.1.1]hexan-4-yl]ethan-1-one

> <CAS>
2573214-03-4

> <Purity>
95

> <URL>
https://www.enaminestore.com/catalog/EN300-7472826

> <ROCS_ShapeQuery>
x0812_0A_x1140_0A_x1097_0A_x0365_0A_x1097_0A_x0310_0A

> <ROCS_TanimotoCombo>
0.722 

> <ROCS_ShapeTanimoto>
0.230 

> <ROCS_ColorTanimoto>
0.492 

> <ROCS_RefTversky>
0.206 

> <ROCS_RefColorTversky>
0.553 

> <ROCS_RefTverskyCombo>
0.758 

> <ROCS_FitTversky>
2.046 

> <ROCS_FitColorTversky>
0.817 

> <ROCS_FitTverskyCombo>
2.863 

> <ROCS_ColorScore>
-8.215

> <ROCS_Overlap>
2081.996

> <ROCS_Rank>
126                 

$$$$
untitled-dbase-262067_2
  -OEChem-02092408543D

 41 42  0     0  0  0  0  0  0999 V2000
   10.6245   12.3444   21.8967 C   0  0  0  0  0  0  0  0  0  0  0  0
    7.7424   11.5292   23.0813 C   0  0  0  0  0  0  0  0  0  0  0  0
    8.3824   11.9538   25.0129 C   0  0  0  0  0  0  0  0  0  0  0  0
    9.1710   11.4985   23.7332 C   0  0  0  0  0  0  0  0  0  0  0  0
    7.4624   10.7927   24.4545 C   0  0  0  0  0  0  0  0  0  0  0  0
    9.5260   10.0126   23.9423 C   0  0  0  0  0  0  0  0  0  0  0  0
   10.6232    9.7910   24.9778 C   0  0  0  0  0  0  0  0  0  0  0  0
    9.8502    9.2782   22.6455 C   0  0  0  0  0  0  0  0  0  0  0  0
   11.0042   13.6877   19.4065 C   0  0  0  0  0  0  0  0  0  0  0  0
   13.1693   14.5004   20.3868 C   0  0  0  0  0  0  0  0  0  0  0  0
   12.7924   12.0395   20.0549 C   0  0  0  0  0  0  0  0  0  0  0  0
    6.0661   10.5943   24.9606 C   0  0  0  0  0  0  0  0  0  0  0  0
   12.1341   13.3777   20.3874 C   0  0  0  0  0  0  0  0  0  0  0  0
   10.1802   12.3765   23.2058 N   0  0  0  0  0  0  0  0  0  0  0  0
   10.2244   11.5771   21.0274 O   0  0  0  0  0  0  0  0  0  0  0  0
    8.2567    9.5627   24.4617 O   0  0  0  0  0  0  0  0  0  0  0  0
    6.0977   10.3372   26.3617 O   0  0  0  0  0  0  0  0  0  0  0  0
   11.5833   13.2995   21.7069 O   0  0  0  0  0  0  0  0  0  0  0  0
    7.2760   12.5112   22.9371 H   0  0  0  0  0  0  0  0  0  0  0  0
    7.5815   10.9343   22.1797 H   0  0  0  0  0  0  0  0  0  0  0  0
    8.8425   11.7711   25.9864 H   0  0  0  0  0  0  0  0  0  0  0  0
    7.9635   12.9673   25.0118 H   0  0  0  0  0  0  0  0  0  0  0  0
   10.8280    8.7257   25.0799 H   0  0  0  0  0  0  0  0  0  0  0  0
   10.3080   10.1857   25.9432 H   0  0  0  0  0  0  0  0  0  0  0  0
   11.5354   10.2995   24.6671 H   0  0  0  0  0  0  0  0  0  0  0  0
   10.0917    8.2374   22.8587 H   0  0  0  0  0  0  0  0  0  0  0  0
   10.7031    9.7474   22.1564 H   0  0  0  0  0  0  0  0  0  0  0  0
    8.9925    9.3133   21.9746 H   0  0  0  0  0  0  0  0  0  0  0  0
   10.2590   12.8842   19.4040 H   0  0  0  0  0  0  0  0  0  0  0  0
   10.5010   14.6278   19.6548 H   0  0  0  0  0  0  0  0  0  0  0  0
   11.3851   13.7592   18.3813 H   0  0  0  0  0  0  0  0  0  0  0  0
   13.9819   14.2822   21.0892 H   0  0  0  0  0  0  0  0  0  0  0  0
   12.7213   15.4446   20.7168 H   0  0  0  0  0  0  0  0  0  0  0  0
   13.6017   14.6507   19.3923 H   0  0  0  0  0  0  0  0  0  0  0  0
   13.6029   11.8169   20.7584 H   0  0  0  0  0  0  0  0  0  0  0  0
   12.0713   11.2163   20.0869 H   0  0  0  0  0  0  0  0  0  0  0  0
   13.2469   12.0659   19.0579 H   0  0  0  0  0  0  0  0  0  0  0  0
    5.5801    9.7402   24.4672 H   0  0  0  0  0  0  0  0  0  0  0  0
    5.4489   11.4884   24.7910 H   0  0  0  0  0  0  0  0  0  0  0  0
   10.5928   13.0636   23.8344 H   0  0  0  0  0  0  0  0  0  0  0  0
    5.1770   10.2164   26.6416 H   0  0  0  0  0  0  0  0  0  0  0  0
  1 14  1  0  0  0  0
  1 15  2  0  0  0  0
  1 18  1  0  0  0  0
  2  4  1  0  0  0  0
  2  5  1  0  0  0  0
  3  4  1  0  0  0  0
  3  5  1  0  0  0  0
  4  6  1  0  0  0  0
  4 14  1  0  0  0  0
  5 12  1  0  0  0  0
  5 16  1  0  0  0  0
  6  7  1  0  0  0  0
  6  8  1  0  0  0  0
  6 16  1  0  0  0  0
  9 13  1  0  0  0  0
 10 13  1  0  0  0  0
 11 13  1  0  0  0  0
 12 17  1  0  0  0  0
 13 18  1  0  0  0  0
  2 19  1  0  0  0  0
  2 20  1  0  0  0  0
  3 21  1  0  0  0  0
  3 22  1  0  0  0  0
  7 23  1  0  0  0  0
  7 24  1  0  0  0  0
  7 25  1  0  0  0  0
  8 26  1  0  0  0  0
  8 27  1  0  0  0  0
  8 28  1  0  0  0  0
  9 29  1  0  0  0  0
  9 30  1  0  0  0  0
  9 31  1  0  0  0  0
 10 32  1  0  0  0  0
 10 33  1  0  0  0  0
 10 34  1  0  0  0  0
 11 35  1  0  0  0  0
 11 36  1  0  0  0  0
 11 37  1  0  0  0  0
 12 38  1  0  0  0  0
 12 39  1  0  0  0  0
 14 40  1  0  0  0  0
 17 41  1  0  0  0  0
M  END
> <id>
EN300-7548276

> <smiles>
CC(C)(C)OC(=O)NC1(CC2(CO)C1)C(C)(C)O2

> <IUPAC Name>
tert-butyl N-[1-(hydroxymethyl)-3,3-dimethyl-2-oxabicyclo[2.1.1]hexan-4-yl]carbamate

> <CAS>
2408974-02-5

> <URL>
https://www.enaminestore.com/catalog/EN300-7548276

> <ROCS_ShapeQuery>
x0812_0A_x1140_0A_x1097_0A_x0365_0A_x1097_0A_x0310_0A

> <ROCS_TanimotoCombo>
0.722 

> <ROCS_ShapeTanimoto>
0.248 

> <ROCS_ColorTanimoto>
0.474 

> <ROCS_RefTversky>
0.224 

> <ROCS_RefColorTversky>
0.616 

> <ROCS_RefTverskyCombo>
0.840 

> <ROCS_FitTversky>
1.764 

> <ROCS_FitColorTversky>
0.672 

> <ROCS_FitTverskyCombo>
2.435 

> <ROCS_ColorScore>
-9.282

> <ROCS_Overlap>
2269.444

> <ROCS_Rank>
127                 

$$$$
untitled-dbase-463445_1
  -OEChem-02092408543D

 22 23  0     1  0  0  0  0  0999 V2000
    9.4061    9.9517   23.7963 C   0  0  0  0  0  0  0  0  0  0  0  0
    9.1381   12.2987   22.0385 C   0  0  0  0  0  0  0  0  0  0  0  0
    9.6195   10.4773   25.1890 C   0  0  0  0  0  0  0  0  0  0  0  0
    8.2656   12.4845   24.4057 C   0  0  0  0  0  0  0  0  0  0  0  0
    8.0555   10.3961   23.2870 C   0  0  2  0  0  0  0  0  0  0  0  0
    8.0700   11.8896   23.0020 C   0  0  2  0  0  0  0  0  0  0  0  0
    8.3022   11.2399   25.3011 C   0  0  1  0  0  0  0  0  0  0  0  0
   10.1038   14.1850   20.9929 C   0  0  0  0  0  0  0  0  0  0  0  0
   10.2144    9.2899   23.1635 O   0  0  0  0  0  0  0  0  0  0  0  0
    9.8945   11.5152   21.4808 O   0  0  0  0  0  0  0  0  0  0  0  0
    7.4142   10.3437   24.5947 O   0  0  0  0  0  0  0  0  0  0  0  0
    9.1255   13.6543   21.8926 O   0  0  0  0  0  0  0  0  0  0  0  0
    9.6598    9.6322   25.8811 H   0  0  0  0  0  0  0  0  0  0  0  0
   10.4992   11.1174   25.2670 H   0  0  0  0  0  0  0  0  0  0  0  0
    9.1577   13.1085   24.5181 H   0  0  0  0  0  0  0  0  0  0  0  0
    7.3896   13.0938   24.6579 H   0  0  0  0  0  0  0  0  0  0  0  0
    7.5868    9.7242   22.5688 H   0  0  0  0  0  0  0  0  0  0  0  0
    7.1044   12.2158   22.5996 H   0  0  0  0  0  0  0  0  0  0  0  0
    7.9771   11.4180   26.3288 H   0  0  0  0  0  0  0  0  0  0  0  0
   10.0079   15.2727   20.9494 H   0  0  0  0  0  0  0  0  0  0  0  0
    9.9568   13.7555   19.9987 H   0  0  0  0  0  0  0  0  0  0  0  0
   11.1003   13.9237   21.3568 H   0  0  0  0  0  0  0  0  0  0  0  0
  1  3  1  0  0  0  0
  1  5  1  0  0  0  0
  1  9  2  0  0  0  0
  2  6  1  1  0  0  0
  2 10  2  0  0  0  0
  2 12  1  0  0  0  0
  3  7  1  0  0  0  0
  4  6  1  0  0  0  0
  4  7  1  0  0  0  0
  5  6  1  0  0  0  0
  5 11  1  6  0  0  0
  7 11  1  6  0  0  0
  8 12  1  0  0  0  0
  3 13  1  0  0  0  0
  3 14  1  0  0  0  0
  4 15  1  0  0  0  0
  4 16  1  0  0  0  0
  5 17  1  0  0  0  0
  6 18  1  0  0  0  0
  7 19  1  0  0  0  0
  8 20  1  0  0  0  0
  8 21  1  0  0  0  0
  8 22  1  0  0  0  0
M  END
> <id>
EN300-27149262

> <smiles>
COC(=O)[C@@H]1C[C@@H]2CC(=O)[C@H]1O2 |&1:4,6,10,r|

> <IUPAC Name>
rac-methyl (1R,2S,4S)-6-oxo-7-oxabicyclo[2.2.1]heptane-2-carboxylate

> <CAS>
2503155-27-7

> <Purity>
95

> <URL>
https://www.enaminestore.com/catalog/EN300-27149262

> <ROCS_ShapeQuery>
x0812_0A_x1140_0A_x1097_0A_x0365_0A_x1097_0A_x0310_0A

> <ROCS_TanimotoCombo>
0.721 

> <ROCS_ShapeTanimoto>
0.200 

> <ROCS_ColorTanimoto>
0.521 

> <ROCS_RefTversky>
0.184 

> <ROCS_RefColorTversky>
0.565 

> <ROCS_RefTverskyCombo>
0.750 

> <ROCS_FitTversky>
1.777 

> <ROCS_FitColorTversky>
0.869 

> <ROCS_FitTverskyCombo>
2.646 

> <ROCS_ColorScore>
-8.394

> <ROCS_Overlap>
1862.534

> <ROCS_Rank>
128                 

$$$$
untitled-dbase-499736_5
  -OEChem-02092408543D

 37 38  0     1  0  0  0  0  0999 V2000
   10.4927   12.0113   21.5805 C   0  0  0  0  0  0  0  0  0  0  0  0
    9.2026   12.0955   25.1794 C   0  0  0  0  0  0  0  0  0  0  0  0
    7.8788   11.4782   25.6600 C   0  0  0  0  0  0  0  0  0  0  0  0
    7.8469   11.6703   23.2665 C   0  0  0  0  0  0  0  0  0  0  0  0
    9.4857   10.0716   23.7496 C   0  0  0  0  0  0  0  0  0  0  0  0
    9.2986   11.5922   23.7251 C   0  0  2  0  0  0  0  0  0  0  0  0
    7.3840   10.7571   24.3954 C   0  0  2  0  0  0  0  0  0  0  0  0
   10.5465   12.8713   18.8588 C   0  0  0  0  0  0  0  0  0  0  0  0
   12.8610   13.7073   19.3625 C   0  0  0  0  0  0  0  0  0  0  0  0
   12.3508   11.2545   19.5409 C   0  0  0  0  0  0  0  0  0  0  0  0
    5.9202   10.3897   24.4019 C   0  0  0  0  0  0  0  0  0  0  0  0
   11.7976   12.6685   19.7123 C   0  0  0  0  0  0  0  0  0  0  0  0
   10.2400   12.2930   22.9186 N   0  0  0  0  0  0  0  0  0  0  0  0
    9.9407   11.1299   20.9302 O   0  0  0  0  0  0  0  0  0  0  0  0
    8.2135    9.5798   24.2359 O   0  0  0  0  0  0  0  0  0  0  0  0
   11.4464   12.8570   21.0878 O   0  0  0  0  0  0  0  0  0  0  0  0
    5.5883    9.9312   25.6379 F   0  0  0  0  0  0  0  0  0  0  0  0
    9.1389   13.1893   25.2241 H   0  0  0  0  0  0  0  0  0  0  0  0
   10.0497   11.7745   25.7947 H   0  0  0  0  0  0  0  0  0  0  0  0
    8.0505   10.7850   26.4902 H   0  0  0  0  0  0  0  0  0  0  0  0
    7.1883   12.2639   25.9849 H   0  0  0  0  0  0  0  0  0  0  0  0
    7.4142   12.6754   23.3081 H   0  0  0  0  0  0  0  0  0  0  0  0
    7.6949   11.2334   22.2731 H   0  0  0  0  0  0  0  0  0  0  0  0
    9.6443    9.6481   22.7519 H   0  0  0  0  0  0  0  0  0  0  0  0
   10.2847    9.7367   24.4181 H   0  0  0  0  0  0  0  0  0  0  0  0
    9.7808   12.1276   19.1070 H   0  0  0  0  0  0  0  0  0  0  0  0
   10.1199   13.8698   18.9993 H   0  0  0  0  0  0  0  0  0  0  0  0
   10.7733   12.7383   17.7948 H   0  0  0  0  0  0  0  0  0  0  0  0
   13.7604   13.5655   19.9725 H   0  0  0  0  0  0  0  0  0  0  0  0
   12.5011   14.7207   19.5740 H   0  0  0  0  0  0  0  0  0  0  0  0
   13.1461   13.6538   18.3068 H   0  0  0  0  0  0  0  0  0  0  0  0
   13.2482   11.1088   20.1530 H   0  0  0  0  0  0  0  0  0  0  0  0
   11.6133   10.4960   19.8228 H   0  0  0  0  0  0  0  0  0  0  0  0
   12.6528   11.0775   18.5023 H   0  0  0  0  0  0  0  0  0  0  0  0
    5.7053    9.5989   23.6776 H   0  0  0  0  0  0  0  0  0  0  0  0
    5.2917   11.2575   24.1819 H   0  0  0  0  0  0  0  0  0  0  0  0
   10.7672   13.0570   23.3541 H   0  0  0  0  0  0  0  0  0  0  0  0
  1 13  1  0  0  0  0
  1 14  2  0  0  0  0
  1 16  1  0  0  0  0
  2  3  1  0  0  0  0
  2  6  1  0  0  0  0
  3  7  1  0  0  0  0
  4  6  1  0  0  0  0
  4  7  1  0  0  0  0
  5  6  1  0  0  0  0
  5 15  1  0  0  0  0
  6 13  1  0  0  0  0
  7 11  1  0  0  0  0
  7 15  1  0  0  0  0
  8 12  1  0  0  0  0
  9 12  1  0  0  0  0
 10 12  1  0  0  0  0
 11 17  1  0  0  0  0
 12 16  1  0  0  0  0
  2 18  1  0  0  0  0
  2 19  1  0  0  0  0
  3 20  1  0  0  0  0
  3 21  1  0  0  0  0
  4 22  1  0  0  0  0
  4 23  1  0  0  0  0
  5 24  1  0  0  0  0
  5 25  1  0  0  0  0
  8 26  1  0  0  0  0
  8 27  1  0  0  0  0
  8 28  1  0  0  0  0
  9 29  1  0  0  0  0
  9 30  1  0  0  0  0
  9 31  1  0  0  0  0
 10 32  1  0  0  0  0
 10 33  1  0  0  0  0
 10 34  1  0  0  0  0
 11 35  1  0  0  0  0
 11 36  1  0  0  0  0
 13 37  1  0  0  0  0
M  END
> <id>
EN300-28277900

> <smiles>
CC(C)(C)OC(=O)NC1(CCC2(CF)C1)CO2

> <IUPAC Name>
tert-butyl N-[1-(fluoromethyl)-2-oxabicyclo[2.2.1]heptan-4-yl]carbamate

> <CAS>
2680792-75-8

> <URL>
https://www.enaminestore.com/catalog/EN300-28277900

> <ROCS_ShapeQuery>
x0812_0A_x1140_0A_x1097_0A_x0365_0A_x1097_0A_x0310_0A

> <ROCS_TanimotoCombo>
0.721 

> <ROCS_ShapeTanimoto>
0.218 

> <ROCS_ColorTanimoto>
0.504 

> <ROCS_RefTversky>
0.201 

> <ROCS_RefColorTversky>
0.574 

> <ROCS_RefTverskyCombo>
0.775 

> <ROCS_FitTversky>
1.622 

> <ROCS_FitColorTversky>
0.805 

> <ROCS_FitTverskyCombo>
2.427 

> <ROCS_ColorScore>
-8.548

> <ROCS_Overlap>
2032.224

> <ROCS_Rank>
129                 

$$$$
untitled-dbase-502527_4
  -OEChem-02092408543D

 27 28  0     1  0  0  0  0  0999 V2000
   10.1518   12.1019   22.7172 C   0  0  0  0  0  0  0  0  0  0  0  0
    8.0807   10.7146   27.0414 C   0  0  0  0  0  0  0  0  0  0  0  0
    7.8614   10.2567   23.0071 C   0  0  0  0  0  0  0  0  0  0  0  0
    7.1334   11.6852   24.9388 C   0  0  0  0  0  0  0  0  0  0  0  0
    9.2058   12.0497   23.8752 C   0  0  1  0  0  0  0  0  0  0  0  0
    7.7516   11.7123   23.5256 C   0  0  1  0  0  0  0  0  0  0  0  0
    9.3502   10.8413   24.8099 C   0  0  2  0  0  0  0  0  0  0  0  0
    8.9473    9.6466   23.9196 C   0  0  2  0  0  0  0  0  0  0  0  0
    7.1271   11.5571   27.8473 C   0  0  0  0  0  0  0  0  0  0  0  0
    8.2086   11.0667   25.7157 N   0  0  0  0  0  0  0  0  0  0  0  0
    9.9890   11.5266   21.6515 O   0  0  0  0  0  0  0  0  0  0  0  0
    8.6841    9.7770   27.5651 O   0  0  0  0  0  0  0  0  0  0  0  0
   11.2246   12.8769   23.0101 O   0  0  0  0  0  0  0  0  0  0  0  0
   10.0581    9.1890   23.1656 O   0  0  0  0  0  0  0  0  0  0  0  0
    6.5762   12.5150   27.0796 F   0  0  0  0  0  0  0  0  0  0  0  0
    6.1353   10.8013   28.3529 F   0  0  0  0  0  0  0  0  0  0  0  0
    7.7644   12.1537   28.8713 F   0  0  0  0  0  0  0  0  0  0  0  0
    6.9080    9.7276   23.1094 H   0  0  0  0  0  0  0  0  0  0  0  0
    8.1572   10.2316   21.9523 H   0  0  0  0  0  0  0  0  0  0  0  0
    6.9547   12.6898   25.3363 H   0  0  0  0  0  0  0  0  0  0  0  0
    6.2173   11.0920   25.0144 H   0  0  0  0  0  0  0  0  0  0  0  0
    9.2989   13.0021   24.4123 H   0  0  0  0  0  0  0  0  0  0  0  0
    7.2533   12.3905   22.8304 H   0  0  0  0  0  0  0  0  0  0  0  0
   10.3164   10.7418   25.3077 H   0  0  0  0  0  0  0  0  0  0  0  0
    8.5644    8.8018   24.5028 H   0  0  0  0  0  0  0  0  0  0  0  0
   11.8586   12.9225   22.2629 H   0  0  0  0  0  0  0  0  0  0  0  0
    9.7247    8.5130   22.5523 H   0  0  0  0  0  0  0  0  0  0  0  0
  1  5  1  6  0  0  0
  1 11  2  0  0  0  0
  1 13  1  0  0  0  0
  2  9  1  0  0  0  0
  2 10  1  0  0  0  0
  2 12  2  0  0  0  0
  3  6  1  6  0  0  0
  3  8  1  0  0  0  0
  4  6  1  0  0  0  0
  4 10  1  0  0  0  0
  5  6  1  0  0  0  0
  5  7  1  0  0  0  0
  7  8  1  0  0  0  0
  7 10  1  6  0  0  0
  8 14  1  1  0  0  0
  9 15  1  0  0  0  0
  9 16  1  0  0  0  0
  9 17  1  0  0  0  0
  3 18  1  0  0  0  0
  3 19  1  0  0  0  0
  4 20  1  0  0  0  0
  4 21  1  0  0  0  0
  5 22  1  0  0  0  0
  6 23  1  0  0  0  0
  7 24  1  0  0  0  0
  8 25  1  0  0  0  0
 13 26  1  0  0  0  0
 14 27  1  0  0  0  0
M  END
> <id>
EN300-28279174

> <smiles>
O[C@@H]1C[C@H]2CN([C@@H]1[C@H]2C(=O)O)C(=O)C(F)(F)F |&1:1,3,6,7,r|

> <IUPAC Name>
rac-(1R,4R,6R,7S)-6-hydroxy-2-(2,2,2-trifluoroacetyl)-2-azabicyclo[2.2.1]heptane-7-carboxylic acid

> <CAS>
2732255-84-2

> <URL>
https://www.enaminestore.com/catalog/EN300-28279174

> <ROCS_ShapeQuery>
x0812_0A_x1140_0A_x1097_0A_x0365_0A_x1097_0A_x0310_0A

> <ROCS_TanimotoCombo>
0.721 

> <ROCS_ShapeTanimoto>
0.240 

> <ROCS_ColorTanimoto>
0.481 

> <ROCS_RefTversky>
0.218 

> <ROCS_RefColorTversky>
0.596 

> <ROCS_RefTverskyCombo>
0.814 

> <ROCS_FitTversky>
1.724 

> <ROCS_FitColorTversky>
0.714 

> <ROCS_FitTverskyCombo>
2.438 

> <ROCS_ColorScore>
-8.940

> <ROCS_Overlap>
2205.472

> <ROCS_Rank>
130                 

$$$$
untitled-dbase-567613_0
  -OEChem-02092408543D

 17 18  0     0  0  0  0  0  0999 V2000
    8.5502   10.3918   25.2973 C   0  0  0  0  0  0  0  0  0  0  0  0
    9.2441   11.8683   23.9275 C   0  0  0  0  0  0  0  0  0  0  0  0
    7.6002   10.6173   23.4040 C   0  0  0  0  0  0  0  0  0  0  0  0
    7.8316   11.6251   24.6065 C   0  0  0  0  0  0  0  0  0  0  0  0
    9.0594   10.3340   23.8364 C   0  0  0  0  0  0  0  0  0  0  0  0
    6.8966   12.6085   25.1930 C   0  0  0  0  0  0  0  0  0  0  0  0
    9.9485    9.3971   23.2833 O   0  0  0  0  0  0  0  0  0  0  0  0
    7.4943   13.2431   26.2344 F   0  0  0  0  0  0  0  0  0  0  0  0
    5.8135   11.9644   25.6995 F   0  0  0  0  0  0  0  0  0  0  0  0
    9.2849   10.6231   26.0753 H   0  0  0  0  0  0  0  0  0  0  0  0
    7.9062    9.5738   25.6363 H   0  0  0  0  0  0  0  0  0  0  0  0
    9.2488   12.4288   22.9869 H   0  0  0  0  0  0  0  0  0  0  0  0
   10.0439   12.2403   24.5761 H   0  0  0  0  0  0  0  0  0  0  0  0
    6.8655    9.8215   23.5639 H   0  0  0  0  0  0  0  0  0  0  0  0
    7.4482   11.0585   22.4135 H   0  0  0  0  0  0  0  0  0  0  0  0
    6.5583   13.3562   24.4684 H   0  0  0  0  0  0  0  0  0  0  0  0
   10.0735    9.6263   22.3432 H   0  0  0  0  0  0  0  0  0  0  0  0
  1  4  1  1  0  0  0
  1  5  1  1  0  0  0
  2  4  1  0  0  0  0
  2  5  1  0  0  0  0
  3  4  1  0  0  0  0
  3  5  1  0  0  0  0
  4  6  1  0  0  0  0
  5  7  1  0  0  0  0
  6  8  1  0  0  0  0
  6  9  1  0  0  0  0
  1 10  1  0  0  0  0
  1 11  1  0  0  0  0
  2 12  1  0  0  0  0
  2 13  1  0  0  0  0
  3 14  1  0  0  0  0
  3 15  1  0  0  0  0
  6 16  1  0  0  0  0
  7 17  1  0  0  0  0
M  END
> <id>
EN300-28316193

> <smiles>
O[C@]1(C[C@]2(C1)C(F)F)C2

> <IUPAC Name>
3-(difluoromethyl)bicyclo[1.1.1]pentan-1-ol

> <CAS>
2694728-58-8

> <URL>
https://www.enaminestore.com/catalog/EN300-28316193

> <ROCS_ShapeQuery>
x0812_0A_x1140_0A_x1097_0A_x0365_0A_x1097_0A_x0310_0A

> <ROCS_TanimotoCombo>
0.721 

> <ROCS_ShapeTanimoto>
0.181 

> <ROCS_ColorTanimoto>
0.540 

> <ROCS_RefTversky>
0.167 

> <ROCS_RefColorTversky>
0.582 

> <ROCS_RefTverskyCombo>
0.749 

> <ROCS_FitTversky>
1.869 

> <ROCS_FitColorTversky>
0.882 

> <ROCS_FitTverskyCombo>
2.751 

> <ROCS_ColorScore>
-8.644

> <ROCS_Overlap>
1688.687

> <ROCS_Rank>
131                 

$$$$
untitled-dbase-304969_0
  -OEChem-02092408543D

 22 23  0     1  0  0  0  0  0999 V2000
    7.2362   10.2997   24.8071 C   0  0  0  0  0  0  0  0  0  0  0  0
    7.3178   10.2657   23.2975 C   0  0  0  0  0  0  0  0  0  0  0  0
    8.1542   12.3261   24.1675 C   0  0  0  0  0  0  0  0  0  0  0  0
    9.6060   10.7190   25.1993 C   0  0  0  0  0  0  0  0  0  0  0  0
    8.2069   11.3380   25.3333 C   0  0  2  0  0  0  0  0  0  0  0  0
    8.4867   11.2651   23.1113 C   0  0  1  0  0  0  0  0  0  0  0  0
    9.8193   10.6771   23.6613 C   0  0  1  0  0  0  0  0  0  0  0  0
   11.0458   11.4814   23.2321 C   0  0  0  0  0  0  0  0  0  0  0  0
    6.5244    9.5828   25.4925 O   0  0  0  0  0  0  0  0  0  0  0  0
   10.0101    9.3334   23.2351 O   0  0  0  0  0  0  0  0  0  0  0  0
   12.1471   10.9851   23.8152 F   0  0  0  0  0  0  0  0  0  0  0  0
   11.1924   11.4189   21.9003 F   0  0  0  0  0  0  0  0  0  0  0  0
   10.9024   12.7649   23.5944 F   0  0  0  0  0  0  0  0  0  0  0  0
    7.5346    9.2630   22.9266 H   0  0  0  0  0  0  0  0  0  0  0  0
    6.3869   10.6525   22.8736 H   0  0  0  0  0  0  0  0  0  0  0  0
    7.1633   12.7710   24.0211 H   0  0  0  0  0  0  0  0  0  0  0  0
    8.8986   13.1235   24.2471 H   0  0  0  0  0  0  0  0  0  0  0  0
   10.3428   11.3676   25.6865 H   0  0  0  0  0  0  0  0  0  0  0  0
    9.6601    9.7237   25.6541 H   0  0  0  0  0  0  0  0  0  0  0  0
    7.9389   11.7355   26.3115 H   0  0  0  0  0  0  0  0  0  0  0  0
    8.5574   11.6338   22.0851 H   0  0  0  0  0  0  0  0  0  0  0  0
   10.1381    9.3614   22.2735 H   0  0  0  0  0  0  0  0  0  0  0  0
  1  2  1  0  0  0  0
  1  5  1  0  0  0  0
  1  9  2  0  0  0  0
  2  6  1  0  0  0  0
  3  5  1  6  0  0  0
  3  6  1  6  0  0  0
  4  5  1  0  0  0  0
  4  7  1  0  0  0  0
  6  7  1  0  0  0  0
  7  8  1  6  0  0  0
  7 10  1  1  0  0  0
  8 11  1  0  0  0  0
  8 12  1  0  0  0  0
  8 13  1  0  0  0  0
  2 14  1  0  0  0  0
  2 15  1  0  0  0  0
  3 16  1  0  0  0  0
  3 17  1  0  0  0  0
  4 18  1  0  0  0  0
  4 19  1  0  0  0  0
  5 20  1  0  0  0  0
  6 21  1  0  0  0  0
 10 22  1  0  0  0  0
M  END
> <id>
EN300-6759594

> <smiles>
O[C@@]1(C[C@H]2C[C@@H]1CC2=O)C(F)(F)F |&1:1,3,5,r|

> <IUPAC Name>
rac-(1R,4R,5R)-5-hydroxy-5-(trifluoromethyl)bicyclo[2.2.1]heptan-2-one

> <CAS>
2305185-25-3

> <Purity>
95

> <URL>
https://www.enaminestore.com/catalog/EN300-6759594

> <ROCS_ShapeQuery>
x0812_0A_x1140_0A_x1097_0A_x0365_0A_x1097_0A_x0310_0A

> <ROCS_TanimotoCombo>
0.721 

> <ROCS_ShapeTanimoto>
0.228 

> <ROCS_ColorTanimoto>
0.493 

> <ROCS_RefTversky>
0.206 

> <ROCS_RefColorTversky>
0.544 

> <ROCS_RefTverskyCombo>
0.750 

> <ROCS_FitTversky>
1.893 

> <ROCS_FitColorTversky>
0.840 

> <ROCS_FitTverskyCombo>
2.733 

> <ROCS_ColorScore>
-8.076

> <ROCS_Overlap>
2084.809

> <ROCS_Rank>
132                 

$$$$
untitled-dbase-567441_3
  -OEChem-02092408543D

 26 27  0     0  0  0  0  0  0999 V2000
   10.0375   11.9111   22.4891 C   0  0  0  0  0  0  0  0  0  0  0  0
    9.1666   11.7414   25.0210 C   0  0  0  0  0  0  0  0  0  0  0  0
    7.6111   11.8127   23.6290 C   0  0  0  0  0  0  0  0  0  0  0  0
    8.9703    9.7687   23.5723 C   0  0  0  0  0  0  0  0  0  0  0  0
    9.0936   11.3066   23.5132 C   0  0  0  0  0  0  0  0  0  0  0  0
    7.7644   11.0223   24.9843 C   0  0  0  0  0  0  0  0  0  0  0  0
   12.6438   14.4122   23.0729 C   0  0  0  0  0  0  0  0  0  0  0  0
    6.7753   11.1850   26.0981 C   0  0  0  0  0  0  0  0  0  0  0  0
   11.8096   13.4556   22.2479 C   0  0  0  0  0  0  0  0  0  0  0  0
   10.0368   11.6199   21.3007 O   0  0  0  0  0  0  0  0  0  0  0  0
    8.0125    9.6326   24.6358 O   0  0  0  0  0  0  0  0  0  0  0  0
   10.8622   12.8072   23.1023 O   0  0  0  0  0  0  0  0  0  0  0  0
    4.9782   10.7689   25.4696 Br  0  0  0  0  0  0  0  0  0  0  0  0
    9.9353   11.2533   25.6275 H   0  0  0  0  0  0  0  0  0  0  0  0
    9.1715   12.8173   25.2283 H   0  0  0  0  0  0  0  0  0  0  0  0
    7.4597   12.8959   23.6971 H   0  0  0  0  0  0  0  0  0  0  0  0
    6.8999   11.3924   22.9118 H   0  0  0  0  0  0  0  0  0  0  0  0
    8.5636    9.3418   22.6513 H   0  0  0  0  0  0  0  0  0  0  0  0
    9.9077    9.2796   23.8521 H   0  0  0  0  0  0  0  0  0  0  0  0
   12.0151   15.1756   23.5395 H   0  0  0  0  0  0  0  0  0  0  0  0
   13.1866   13.8737   23.8567 H   0  0  0  0  0  0  0  0  0  0  0  0
   13.3949   14.9067   22.4480 H   0  0  0  0  0  0  0  0  0  0  0  0
    6.7412   12.2146   26.4765 H   0  0  0  0  0  0  0  0  0  0  0  0
    6.9766   10.5045   26.9353 H   0  0  0  0  0  0  0  0  0  0  0  0
   12.4444   12.6947   21.7841 H   0  0  0  0  0  0  0  0  0  0  0  0
   11.2674   13.9953   21.4657 H   0  0  0  0  0  0  0  0  0  0  0  0
  1  5  1  1  0  0  0
  1 10  2  0  0  0  0
  1 12  1  0  0  0  0
  2  5  1  0  0  0  0
  2  6  1  0  0  0  0
  3  5  1  0  0  0  0
  3  6  1  0  0  0  0
  4  5  1  0  0  0  0
  4 11  1  0  0  0  0
  6  8  1  1  0  0  0
  6 11  1  0  0  0  0
  7  9  1  0  0  0  0
  8 13  1  0  0  0  0
  9 12  1  0  0  0  0
  2 14  1  0  0  0  0
  2 15  1  0  0  0  0
  3 16  1  0  0  0  0
  3 17  1  0  0  0  0
  4 18  1  0  0  0  0
  4 19  1  0  0  0  0
  7 20  1  0  0  0  0
  7 21  1  0  0  0  0
  7 22  1  0  0  0  0
  8 23  1  0  0  0  0
  8 24  1  0  0  0  0
  9 25  1  0  0  0  0
  9 26  1  0  0  0  0
M  END
> <id>
EN300-37375194

> <smiles>
CCOC(=O)[C@]1(C[C@@]2(CBr)C1)CO2

> <IUPAC Name>
ethyl 1-(bromomethyl)-2-oxabicyclo[2.1.1]hexane-4-carboxylate

> <CAS>
2253630-96-3

> <URL>
https://www.enaminestore.com/catalog/EN300-37375194

> <ROCS_ShapeQuery>
x0812_0A_x1140_0A_x1097_0A_x0365_0A_x1097_0A_x0310_0A

> <ROCS_TanimotoCombo>
0.720 

> <ROCS_ShapeTanimoto>
0.231 

> <ROCS_ColorTanimoto>
0.489 

> <ROCS_RefTversky>
0.207 

> <ROCS_RefColorTversky>
0.550 

> <ROCS_RefTverskyCombo>
0.758 

> <ROCS_FitTversky>
1.982 

> <ROCS_FitColorTversky>
0.814 

> <ROCS_FitTverskyCombo>
2.796 

> <ROCS_ColorScore>
-8.181

> <ROCS_Overlap>
2097.796

> <ROCS_Rank>
133                 

$$$$
untitled-dbase-372289_3
  -OEChem-02092408543D

 26 27  0     0  0  0  0  0  0999 V2000
   10.0375   11.9114   22.4890 C   0  0  0  0  0  0  0  0  0  0  0  0
    9.1665   11.7414   25.0209 C   0  0  0  0  0  0  0  0  0  0  0  0
    7.6111   11.8125   23.6289 C   0  0  0  0  0  0  0  0  0  0  0  0
    8.9702    9.7688   23.5724 C   0  0  0  0  0  0  0  0  0  0  0  0
    9.0935   11.3065   23.5132 C   0  0  0  0  0  0  0  0  0  0  0  0
    7.7643   11.0223   24.9843 C   0  0  0  0  0  0  0  0  0  0  0  0
   12.6431   14.4131   23.0729 C   0  0  0  0  0  0  0  0  0  0  0  0
    6.7750   11.1846   26.0978 C   0  0  0  0  0  0  0  0  0  0  0  0
   11.8092   13.4563   22.2478 C   0  0  0  0  0  0  0  0  0  0  0  0
   10.0369   11.6201   21.3006 O   0  0  0  0  0  0  0  0  0  0  0  0
    8.0125    9.6327   24.6360 O   0  0  0  0  0  0  0  0  0  0  0  0
   10.8619   12.8077   23.1022 O   0  0  0  0  0  0  0  0  0  0  0  0
    4.9780   10.7685   25.4690 Br  0  0  0  0  0  0  0  0  0  0  0  0
    9.9347   11.2530   25.6279 H   0  0  0  0  0  0  0  0  0  0  0  0
    9.1703   12.8173   25.2286 H   0  0  0  0  0  0  0  0  0  0  0  0
    7.4591   12.8955   23.6975 H   0  0  0  0  0  0  0  0  0  0  0  0
    6.8997   11.3922   22.9120 H   0  0  0  0  0  0  0  0  0  0  0  0
    8.5639    9.3415   22.6512 H   0  0  0  0  0  0  0  0  0  0  0  0
    9.9078    9.2802   23.8526 H   0  0  0  0  0  0  0  0  0  0  0  0
   12.0142   15.1764   23.5394 H   0  0  0  0  0  0  0  0  0  0  0  0
   13.1860   13.8748   23.8568 H   0  0  0  0  0  0  0  0  0  0  0  0
   13.3941   14.9078   22.4480 H   0  0  0  0  0  0  0  0  0  0  0  0
    6.7407   12.2142   26.4764 H   0  0  0  0  0  0  0  0  0  0  0  0
    6.9762   10.5041   26.9350 H   0  0  0  0  0  0  0  0  0  0  0  0
   12.4442   12.6956   21.7841 H   0  0  0  0  0  0  0  0  0  0  0  0
   11.2669   13.9959   21.4657 H   0  0  0  0  0  0  0  0  0  0  0  0
  1  5  1  0  0  0  0
  1 10  2  0  0  0  0
  1 12  1  0  0  0  0
  2  5  1  0  0  0  0
  2  6  1  0  0  0  0
  3  5  1  0  0  0  0
  3  6  1  0  0  0  0
  4  5  1  0  0  0  0
  4 11  1  0  0  0  0
  6  8  1  0  0  0  0
  6 11  1  0  0  0  0
  7  9  1  0  0  0  0
  8 13  1  0  0  0  0
  9 12  1  0  0  0  0
  2 14  1  0  0  0  0
  2 15  1  0  0  0  0
  3 16  1  0  0  0  0
  3 17  1  0  0  0  0
  4 18  1  0  0  0  0
  4 19  1  0  0  0  0
  7 20  1  0  0  0  0
  7 21  1  0  0  0  0
  7 22  1  0  0  0  0
  8 23  1  0  0  0  0
  8 24  1  0  0  0  0
  9 25  1  0  0  0  0
  9 26  1  0  0  0  0
M  END
> <id>
EN300-1703284

> <smiles>
CCOC(=O)C1(CC2(CBr)C1)CO2

> <MDLNUMBER>
MFCD31719679

> <IUPAC Name>
ethyl 1-(bromomethyl)-2-oxabicyclo[2.1.1]hexane-4-carboxylate

> <CAS>
2253630-96-3

> <Purity>
95

> <URL>
https://www.enaminestore.com/catalog/EN300-1703284

> <ROCS_ShapeQuery>
x0812_0A_x1140_0A_x1097_0A_x0365_0A_x1097_0A_x0310_0A

> <ROCS_TanimotoCombo>
0.720 

> <ROCS_ShapeTanimoto>
0.231 

> <ROCS_ColorTanimoto>
0.489 

> <ROCS_RefTversky>
0.207 

> <ROCS_RefColorTversky>
0.550 

> <ROCS_RefTverskyCombo>
0.758 

> <ROCS_FitTversky>
1.982 

> <ROCS_FitColorTversky>
0.814 

> <ROCS_FitTverskyCombo>
2.796 

> <ROCS_ColorScore>
-8.181

> <ROCS_Overlap>
2097.792

> <ROCS_Rank>
134                 

$$$$
untitled-dbase-140589_0
  -OEChem-02092408543D

 30 32  0     1  0  0  0  0  0999 V2000
    6.6902   10.8883   24.8554 C   0  0  0  0  0  0  0  0  0  0  0  0
    7.5314   12.4538   23.0848 C   0  0  0  0  0  0  0  0  0  0  0  0
    8.5865   12.4487   25.3666 C   0  0  0  0  0  0  0  0  0  0  0  0
    7.9537    9.9908   22.8857 C   0  0  0  0  0  0  0  0  0  0  0  0
    9.0083    9.9864   25.1613 C   0  0  0  0  0  0  0  0  0  0  0  0
    9.8556   11.5513   23.3932 C   0  0  0  0  0  0  0  0  0  0  0  0
    6.9462   11.0547   23.3478 C   0  0  1  0  0  0  0  0  0  0  0  0
    8.0056   11.0492   25.6361 C   0  0  2  0  0  0  0  0  0  0  0  0
    8.8605   12.6400   23.8556 C   0  0  0  0  0  0  0  0  0  0  0  0
    9.2755   10.1500   23.6561 C   0  0  0  0  0  0  0  0  0  0  0  0
    9.4371   14.0335   23.5924 C   0  0  0  0  0  0  0  0  0  0  0  0
   10.1898    9.1564   23.2150 O   0  0  0  0  0  0  0  0  0  0  0  0
    5.9596   11.6324   25.1956 H   0  0  0  0  0  0  0  0  0  0  0  0
    6.2556    9.9008   25.0542 H   0  0  0  0  0  0  0  0  0  0  0  0
    7.6960   12.5872   22.0078 H   0  0  0  0  0  0  0  0  0  0  0  0
    6.8061   13.2191   23.3899 H   0  0  0  0  0  0  0  0  0  0  0  0
    7.8852   13.2135   25.7245 H   0  0  0  0  0  0  0  0  0  0  0  0
    9.5138   12.5787   25.9394 H   0  0  0  0  0  0  0  0  0  0  0  0
    7.5457    8.9834   23.0397 H   0  0  0  0  0  0  0  0  0  0  0  0
    8.1332   10.0759   21.8061 H   0  0  0  0  0  0  0  0  0  0  0  0
    9.9473   10.0683   25.7243 H   0  0  0  0  0  0  0  0  0  0  0  0
    8.6262    8.9786   25.3692 H   0  0  0  0  0  0  0  0  0  0  0  0
   10.0856   11.6633   22.3251 H   0  0  0  0  0  0  0  0  0  0  0  0
   10.8175   11.6606   23.9123 H   0  0  0  0  0  0  0  0  0  0  0  0
    6.0058   10.9379   22.7980 H   0  0  0  0  0  0  0  0  0  0  0  0
    7.8166   10.9275   26.7084 H   0  0  0  0  0  0  0  0  0  0  0  0
   10.3699   14.1523   24.1387 H   0  0  0  0  0  0  0  0  0  0  0  0
    8.7288   14.7903   23.9216 H   0  0  0  0  0  0  0  0  0  0  0  0
    9.6255   14.1560   22.5283 H   0  0  0  0  0  0  0  0  0  0  0  0
   11.0096    9.2852   23.7194 H   0  0  0  0  0  0  0  0  0  0  0  0
  1  7  1  0  0  0  0
  1  8  1  0  0  0  0
  2  7  1  0  0  0  0
  2  9  1  0  0  0  0
  3  8  1  0  0  0  0
  3  9  1  0  0  0  0
  4  7  1  0  0  0  0
  4 10  1  0  0  0  0
  5  8  1  0  0  0  0
  5 10  1  0  0  0  0
  6  9  1  0  0  0  0
  6 10  1  0  0  0  0
  9 11  1  0  0  0  0
 10 12  1  0  0  0  0
  1 13  1  0  0  0  0
  1 14  1  0  0  0  0
  2 15  1  0  0  0  0
  2 16  1  0  0  0  0
  3 17  1  0  0  0  0
  3 18  1  0  0  0  0
  4 19  1  0  0  0  0
  4 20  1  0  0  0  0
  5 21  1  0  0  0  0
  5 22  1  0  0  0  0
  6 23  1  0  0  0  0
  6 24  1  0  0  0  0
  7 25  1  0  0  0  0
  8 26  1  0  0  0  0
 11 27  1  0  0  0  0
 11 28  1  0  0  0  0
 11 29  1  0  0  0  0
 12 30  1  0  0  0  0
M  END
> <id>
EN300-1655911

> <smiles>
CC1(CC2CC3C1)CC(O)(C2)C3

> <MDLNUMBER>
MFCD00167798

> <IUPAC Name>
3-methyladamantan-1-ol

> <CAS>
702-81-8

> <Purity>
95

> <URL>
https://www.enaminestore.com/catalog/EN300-1655911

> <MP>
129-131

> <ROCS_ShapeQuery>
x0812_0A_x1140_0A_x1097_0A_x0365_0A_x1097_0A_x0310_0A

> <ROCS_TanimotoCombo>
0.720 

> <ROCS_ShapeTanimoto>
0.216 

> <ROCS_ColorTanimoto>
0.504 

> <ROCS_RefTversky>
0.196 

> <ROCS_RefColorTversky>
0.534 

> <ROCS_RefTverskyCombo>
0.730 

> <ROCS_FitTversky>
1.902 

> <ROCS_FitColorTversky>
0.898 

> <ROCS_FitTverskyCombo>
2.801 

> <ROCS_ColorScore>
-7.907

> <ROCS_Overlap>
1981.567

> <ROCS_Rank>
135                 

$$$$
untitled-dbase-494576_1
  -OEChem-02092408543D

 30 32  0     1  0  0  0  0  0999 V2000
   13.3350   12.4906   22.1007 C   0  0  0  0  0  0  0  0  0  0  0  0
   12.9443   13.3514   23.1263 C   0  0  0  0  0  0  0  0  0  0  0  0
   12.4501   11.5211   21.6287 C   0  0  0  0  0  0  0  0  0  0  0  0
   11.6688   13.2426   23.6802 C   0  0  0  0  0  0  0  0  0  0  0  0
   11.1746   11.4123   22.1826 C   0  0  0  0  0  0  0  0  0  0  0  0
   10.7839   12.2731   23.2083 C   0  0  0  0  0  0  0  0  0  0  0  0
    6.9481   10.8612   24.6927 C   0  0  0  0  0  0  0  0  0  0  0  0
    8.0286   11.2904   25.6995 C   0  0  0  0  0  0  0  0  0  0  0  0
    8.3738   11.6329   22.7790 C   0  0  0  0  0  0  0  0  0  0  0  0
    9.4197   12.1560   23.8003 C   0  0  1  0  0  0  0  0  0  0  0  0
    7.7735   10.3983   23.4810 C   0  0  1  0  0  0  0  0  0  0  0  0
    9.3408   11.0686   24.9149 C   0  0  2  0  0  0  0  0  0  0  0  0
    8.9951    9.7791   24.1598 C   0  0  2  0  0  0  0  0  0  0  0  0
    9.9831    9.3585   23.2452 O   0  0  0  0  0  0  0  0  0  0  0  0
   14.3278   12.5763   21.6686 H   0  0  0  0  0  0  0  0  0  0  0  0
   13.6328   14.1071   23.4931 H   0  0  0  0  0  0  0  0  0  0  0  0
   12.7536   10.8515   20.8295 H   0  0  0  0  0  0  0  0  0  0  0  0
   11.3730   13.9175   24.4791 H   0  0  0  0  0  0  0  0  0  0  0  0
   10.4919   10.6538   21.8087 H   0  0  0  0  0  0  0  0  0  0  0  0
    6.3582   10.0345   25.1040 H   0  0  0  0  0  0  0  0  0  0  0  0
    6.2649   11.6806   24.4482 H   0  0  0  0  0  0  0  0  0  0  0  0
    7.9004   12.3277   26.0243 H   0  0  0  0  0  0  0  0  0  0  0  0
    7.9941   10.6485   26.5872 H   0  0  0  0  0  0  0  0  0  0  0  0
    7.6103   12.3900   22.5689 H   0  0  0  0  0  0  0  0  0  0  0  0
    8.8353   11.3503   21.8251 H   0  0  0  0  0  0  0  0  0  0  0  0
    9.1368   13.1426   24.1828 H   0  0  0  0  0  0  0  0  0  0  0  0
    7.2338    9.7462   22.7909 H   0  0  0  0  0  0  0  0  0  0  0  0
   10.2331   11.0176   25.5439 H   0  0  0  0  0  0  0  0  0  0  0  0
    8.7381    8.9435   24.8211 H   0  0  0  0  0  0  0  0  0  0  0  0
   10.7167    8.9807   23.7628 H   0  0  0  0  0  0  0  0  0  0  0  0
  1  2  1  0  0  0  0
  1  3  2  0  0  0  0
  2  4  2  0  0  0  0
  3  5  1  0  0  0  0
  4  6  1  0  0  0  0
  5  6  2  0  0  0  0
  6 10  1  6  0  0  0
  7  8  1  0  0  0  0
  7 11  1  1  0  0  0
  8 12  1  1  0  0  0
  9 10  1  0  0  0  0
  9 11  1  0  0  0  0
 10 12  1  0  0  0  0
 11 13  1  0  0  0  0
 12 13  1  0  0  0  0
 13 14  1  6  0  0  0
  1 15  1  0  0  0  0
  2 16  1  0  0  0  0
  3 17  1  0  0  0  0
  4 18  1  0  0  0  0
  5 19  1  0  0  0  0
  7 20  1  0  0  0  0
  7 21  1  0  0  0  0
  8 22  1  0  0  0  0
  8 23  1  0  0  0  0
  9 24  1  0  0  0  0
  9 25  1  0  0  0  0
 10 26  1  0  0  0  0
 11 27  1  0  0  0  0
 12 28  1  0  0  0  0
 13 29  1  0  0  0  0
 14 30  1  0  0  0  0
M  END
> <id>
EN300-27754155

> <smiles>
O[C@@H]1[C@H]2CC[C@@H]1[C@H](C2)C=3C=CC=CC3 |&1:1,2,5,6,r|

> <IUPAC Name>
rac-(1R,2S,4S,7R)-2-phenylbicyclo[2.2.1]heptan-7-ol

> <CAS>
1932618-04-6

> <Purity>
95

> <URL>
https://www.enaminestore.com/catalog/EN300-27754155

> <ROCS_ShapeQuery>
x0812_0A_x1140_0A_x1097_0A_x0365_0A_x1097_0A_x0310_0A

> <ROCS_TanimotoCombo>
0.719 

> <ROCS_ShapeTanimoto>
0.221 

> <ROCS_ColorTanimoto>
0.498 

> <ROCS_RefTversky>
0.202 

> <ROCS_RefColorTversky>
0.548 

> <ROCS_RefTverskyCombo>
0.749 

> <ROCS_FitTversky>
1.799 

> <ROCS_FitColorTversky>
0.847 

> <ROCS_FitTverskyCombo>
2.646 

> <ROCS_ColorScore>
-8.128

> <ROCS_Overlap>
2038.558

> <ROCS_Rank>
136                 

$$$$
untitled-dbase-491253_3
  -OEChem-02092408543D

 41 43  0     0  0  0  0  0  0999 V2000
    9.7903   12.1584   22.3638 C   0  0  0  0  0  0  0  0  0  0  0  0
   10.1410    8.1434   22.7314 C   0  0  0  0  0  0  0  0  0  0  0  0
    8.9569    9.0338   22.3011 C   0  0  0  0  0  0  0  0  0  0  0  0
   10.6154    9.3010   23.6344 C   0  0  0  0  0  0  0  0  0  0  0  0
    9.1197   11.8433   24.9450 C   0  0  0  0  0  0  0  0  0  0  0  0
    7.5000   11.5822   23.6426 C   0  0  0  0  0  0  0  0  0  0  0  0
    9.0538   11.3740   23.4365 C   0  0  0  0  0  0  0  0  0  0  0  0
    9.1676    9.8210   23.6063 C   0  0  0  0  0  0  0  0  0  0  0  0
    7.8704   10.8764   25.0079 C   0  0  0  0  0  0  0  0  0  0  0  0
   10.2062   14.6178   20.9945 C   0  0  0  0  0  0  0  0  0  0  0  0
   11.8063   15.1678   22.8510 C   0  0  0  0  0  0  0  0  0  0  0  0
   12.2501   13.1954   21.3607 C   0  0  0  0  0  0  0  0  0  0  0  0
    6.9234   10.9511   26.1711 C   0  0  0  0  0  0  0  0  0  0  0  0
   11.1723   14.0461   22.0311 C   0  0  0  0  0  0  0  0  0  0  0  0
    5.6588   10.3675   25.8343 N   0  0  0  0  0  0  0  0  0  0  0  0
    9.7899   11.8624   21.1766 O   0  0  0  0  0  0  0  0  0  0  0  0
    8.3097    9.5062   24.7365 O   0  0  0  0  0  0  0  0  0  0  0  0
   10.4334   13.2170   22.9338 O   0  0  0  0  0  0  0  0  0  0  0  0
    9.8381    7.2488   23.2875 H   0  0  0  0  0  0  0  0  0  0  0  0
   10.8290    7.8508   21.9342 H   0  0  0  0  0  0  0  0  0  0  0  0
    9.1384    9.5920   21.3765 H   0  0  0  0  0  0  0  0  0  0  0  0
    8.0002    8.5114   22.2105 H   0  0  0  0  0  0  0  0  0  0  0  0
   10.9908    8.9931   24.6144 H   0  0  0  0  0  0  0  0  0  0  0  0
   11.3613    9.9499   23.1634 H   0  0  0  0  0  0  0  0  0  0  0  0
    9.9965   11.5236   25.5159 H   0  0  0  0  0  0  0  0  0  0  0  0
    8.9345   12.9061   25.1377 H   0  0  0  0  0  0  0  0  0  0  0  0
    7.1459   12.6178   23.6997 H   0  0  0  0  0  0  0  0  0  0  0  0
    6.8409   11.0149   22.9786 H   0  0  0  0  0  0  0  0  0  0  0  0
    9.7491   13.8157   20.4039 H   0  0  0  0  0  0  0  0  0  0  0  0
    9.4082   15.2011   21.4652 H   0  0  0  0  0  0  0  0  0  0  0  0
   10.7334   15.2635   20.2829 H   0  0  0  0  0  0  0  0  0  0  0  0
   12.5002   14.7622   23.5961 H   0  0  0  0  0  0  0  0  0  0  0  0
   11.0434   15.7223   23.4093 H   0  0  0  0  0  0  0  0  0  0  0  0
   12.3525   15.8730   22.2162 H   0  0  0  0  0  0  0  0  0  0  0  0
   12.9432   12.7852   22.1041 H   0  0  0  0  0  0  0  0  0  0  0  0
   11.8149   12.3632   20.7979 H   0  0  0  0  0  0  0  0  0  0  0  0
   12.8543   13.8010   20.6756 H   0  0  0  0  0  0  0  0  0  0  0  0
    7.3649   10.4077   27.0150 H   0  0  0  0  0  0  0  0  0  0  0  0
    6.7814   12.0053   26.4372 H   0  0  0  0  0  0  0  0  0  0  0  0
    4.9343   11.0522   25.9297 H   0  0  0  0  0  0  0  0  0  0  0  0
    5.6798   10.0391   24.8885 H   0  0  0  0  0  0  0  0  0  0  0  0
  1  7  1  0  0  0  0
  1 16  2  0  0  0  0
  1 18  1  0  0  0  0
  2  3  1  0  0  0  0
  2  4  1  0  0  0  0
  3  8  1  0  0  0  0
  4  8  1  0  0  0  0
  5  7  1  0  0  0  0
  5  9  1  0  0  0  0
  6  7  1  0  0  0  0
  6  9  1  0  0  0  0
  7  8  1  0  0  0  0
  8 17  1  0  0  0  0
  9 13  1  0  0  0  0
  9 17  1  0  0  0  0
 10 14  1  0  0  0  0
 11 14  1  0  0  0  0
 12 14  1  0  0  0  0
 13 15  1  0  0  0  0
 14 18  1  0  0  0  0
  2 19  1  0  0  0  0
  2 20  1  0  0  0  0
  3 21  1  0  0  0  0
  3 22  1  0  0  0  0
  4 23  1  0  0  0  0
  4 24  1  0  0  0  0
  5 25  1  0  0  0  0
  5 26  1  0  0  0  0
  6 27  1  0  0  0  0
  6 28  1  0  0  0  0
 10 29  1  0  0  0  0
 10 30  1  0  0  0  0
 10 31  1  0  0  0  0
 11 32  1  0  0  0  0
 11 33  1  0  0  0  0
 11 34  1  0  0  0  0
 12 35  1  0  0  0  0
 12 36  1  0  0  0  0
 12 37  1  0  0  0  0
 13 38  1  0  0  0  0
 13 39  1  0  0  0  0
 15 40  1  0  0  0  0
 15 41  1  0  0  0  0
M  END
> <id>
EN300-27726161

> <smiles>
CC(C)(C)OC(=O)C1(CC2(CN)C1)C3(CCC3)O2

> <IUPAC Name>
tert-butyl 4-(aminomethyl)-3-oxaspiro[bicyclo[2.1.1]hexane-2,1'-cyclobutane]-1-carboxylate

> <CAS>
2639406-72-5

> <URL>
https://www.enaminestore.com/catalog/EN300-27726161

> <ROCS_ShapeQuery>
x0812_0A_x1140_0A_x1097_0A_x0365_0A_x1097_0A_x0310_0A

> <ROCS_TanimotoCombo>
0.719 

> <ROCS_ShapeTanimoto>
0.276 

> <ROCS_ColorTanimoto>
0.443 

> <ROCS_RefTversky>
0.244 

> <ROCS_RefColorTversky>
0.571 

> <ROCS_RefTverskyCombo>
0.815 

> <ROCS_FitTversky>
1.906 

> <ROCS_FitColorTversky>
0.664 

> <ROCS_FitTverskyCombo>
2.570 

> <ROCS_ColorScore>
-8.576

> <ROCS_Overlap>
2466.455

> <ROCS_Rank>
137                 

$$$$
untitled-dbase-262087_4
  -OEChem-02092408543D

 40 42  0     0  0  0  0  0  0999 V2000
   10.6096   12.3571   21.8593 C   0  0  0  0  0  0  0  0  0  0  0  0
    7.7455   11.6435   23.1631 C   0  0  0  0  0  0  0  0  0  0  0  0
    8.5372   11.8859   25.0873 C   0  0  0  0  0  0  0  0  0  0  0  0
   10.6431    9.5028   24.5064 C   0  0  0  0  0  0  0  0  0  0  0  0
    9.8622    9.2633   22.6075 C   0  0  0  0  0  0  0  0  0  0  0  0
    9.2010   11.4952   23.7232 C   0  0  0  0  0  0  0  0  0  0  0  0
    9.3463    9.9613   23.8567 C   0  0  0  0  0  0  0  0  0  0  0  0
    7.4709   10.8568   24.5155 C   0  0  0  0  0  0  0  0  0  0  0  0
   10.9465   13.8198   19.4310 C   0  0  0  0  0  0  0  0  0  0  0  0
   13.2076   14.4374   20.3340 C   0  0  0  0  0  0  0  0  0  0  0  0
   12.6550   12.0286   19.8862 C   0  0  0  0  0  0  0  0  0  0  0  0
    6.0852   10.8087   25.0914 C   0  0  0  0  0  0  0  0  0  0  0  0
   12.1030   13.3829   20.3290 C   0  0  0  0  0  0  0  0  0  0  0  0
   10.2346   12.3373   23.1917 N   0  0  0  0  0  0  0  0  0  0  0  0
   10.1161   11.6690   20.9718 O   0  0  0  0  0  0  0  0  0  0  0  0
   11.1228    8.9574   23.2528 O   0  0  0  0  0  0  0  0  0  0  0  0
    8.0871    9.5256   24.4296 O   0  0  0  0  0  0  0  0  0  0  0  0
    6.1562   10.4658   26.4715 O   0  0  0  0  0  0  0  0  0  0  0  0
   11.6172   13.2606   21.6706 O   0  0  0  0  0  0  0  0  0  0  0  0
    7.3407   12.6593   23.0906 H   0  0  0  0  0  0  0  0  0  0  0  0
    7.5180   11.0985   22.2423 H   0  0  0  0  0  0  0  0  0  0  0  0
    9.0617   11.5710   25.9942 H   0  0  0  0  0  0  0  0  0  0  0  0
    8.2097   12.9254   25.2024 H   0  0  0  0  0  0  0  0  0  0  0  0
   11.3097   10.2818   24.8874 H   0  0  0  0  0  0  0  0  0  0  0  0
   10.5356    8.7190   25.2627 H   0  0  0  0  0  0  0  0  0  0  0  0
    9.3291    8.3491   22.3283 H   0  0  0  0  0  0  0  0  0  0  0  0
   10.0061    9.8822   21.7172 H   0  0  0  0  0  0  0  0  0  0  0  0
   10.1516   13.0655   19.4247 H   0  0  0  0  0  0  0  0  0  0  0  0
   10.5190   14.7729   19.7590 H   0  0  0  0  0  0  0  0  0  0  0  0
   11.2778   13.9285   18.3919 H   0  0  0  0  0  0  0  0  0  0  0  0
   14.0395   14.1280   20.9770 H   0  0  0  0  0  0  0  0  0  0  0  0
   12.8395   15.3863   20.7406 H   0  0  0  0  0  0  0  0  0  0  0  0
   13.5969   14.6195   19.3271 H   0  0  0  0  0  0  0  0  0  0  0  0
   13.4846   11.7150   20.5302 H   0  0  0  0  0  0  0  0  0  0  0  0
   11.8846   11.2511   19.9118 H   0  0  0  0  0  0  0  0  0  0  0  0
   13.0581   12.0860   18.8686 H   0  0  0  0  0  0  0  0  0  0  0  0
    5.4700   10.0552   24.5810 H   0  0  0  0  0  0  0  0  0  0  0  0
    5.5857   11.7831   25.0043 H   0  0  0  0  0  0  0  0  0  0  0  0
   10.7230   12.9595   23.8355 H   0  0  0  0  0  0  0  0  0  0  0  0
    5.2436   10.4466   26.8000 H   0  0  0  0  0  0  0  0  0  0  0  0
  1 14  1  0  0  0  0
  1 15  2  0  0  0  0
  1 19  1  0  0  0  0
  2  6  1  0  0  0  0
  2  8  1  0  0  0  0
  3  6  1  0  0  0  0
  3  8  1  0  0  0  0
  4  7  1  0  0  0  0
  4 16  1  0  0  0  0
  5  7  1  0  0  0  0
  5 16  1  0  0  0  0
  6  7  1  0  0  0  0
  6 14  1  0  0  0  0
  7 17  1  0  0  0  0
  8 12  1  0  0  0  0
  8 17  1  0  0  0  0
  9 13  1  0  0  0  0
 10 13  1  0  0  0  0
 11 13  1  0  0  0  0
 12 18  1  0  0  0  0
 13 19  1  0  0  0  0
  2 20  1  0  0  0  0
  2 21  1  0  0  0  0
  3 22  1  0  0  0  0
  3 23  1  0  0  0  0
  4 24  1  0  0  0  0
  4 25  1  0  0  0  0
  5 26  1  0  0  0  0
  5 27  1  0  0  0  0
  9 28  1  0  0  0  0
  9 29  1  0  0  0  0
  9 30  1  0  0  0  0
 10 31  1  0  0  0  0
 10 32  1  0  0  0  0
 10 33  1  0  0  0  0
 11 34  1  0  0  0  0
 11 35  1  0  0  0  0
 11 36  1  0  0  0  0
 12 37  1  0  0  0  0
 12 38  1  0  0  0  0
 14 39  1  0  0  0  0
 18 40  1  0  0  0  0
M  END
> <id>
EN300-7548324

> <smiles>
CC(C)(C)OC(=O)NC1(CC2(CO)C1)C3(COC3)O2

> <IUPAC Name>
tert-butyl N-[4-(hydroxymethyl)-3-oxaspiro[bicyclo[2.1.1]hexane-2,3'-oxetane]-1-yl]carbamate

> <CAS>
2490420-73-8

> <URL>
https://www.enaminestore.com/catalog/EN300-7548324

> <ROCS_ShapeQuery>
x0812_0A_x1140_0A_x1097_0A_x0365_0A_x1097_0A_x0310_0A

> <ROCS_TanimotoCombo>
0.719 

> <ROCS_ShapeTanimoto>
0.260 

> <ROCS_ColorTanimoto>
0.459 

> <ROCS_RefTversky>
0.234 

> <ROCS_RefColorTversky>
0.622 

> <ROCS_RefTverskyCombo>
0.856 

> <ROCS_FitTversky>
1.760 

> <ROCS_FitColorTversky>
0.635 

> <ROCS_FitTverskyCombo>
2.395 

> <ROCS_ColorScore>
-9.408

> <ROCS_Overlap>
2367.725

> <ROCS_Rank>
138                 

$$$$
untitled-dbase-559043_9
  -OEChem-02092408543D

 22 23  0     0  0  0  0  0  0999 V2000
   10.1778   11.7944   22.5507 C   0  0  0  0  0  0  0  0  0  0  0  0
    7.6610   11.7430   23.4782 C   0  0  0  0  0  0  0  0  0  0  0  0
    9.0882   11.8021   25.0021 C   0  0  0  0  0  0  0  0  0  0  0  0
    9.0392    9.7228   23.6971 C   0  0  0  0  0  0  0  0  0  0  0  0
    9.1526   11.2537   23.5314 C   0  0  0  0  0  0  0  0  0  0  0  0
    7.7015   11.0597   24.8983 C   0  0  0  0  0  0  0  0  0  0  0  0
   11.3547   12.5093   23.1696 C   0  0  0  0  0  0  0  0  0  0  0  0
    6.6167   11.2900   25.9057 C   0  0  0  0  0  0  0  0  0  0  0  0
   10.0216   11.6401   21.3407 O   0  0  0  0  0  0  0  0  0  0  0  0
    7.9926    9.6519   24.6802 O   0  0  0  0  0  0  0  0  0  0  0  0
    6.2580   12.6049   25.8877 F   0  0  0  0  0  0  0  0  0  0  0  0
   12.0476   13.8430   21.9473 Br  0  0  0  0  0  0  0  0  0  0  0  0
    7.4937   12.8255   23.4497 H   0  0  0  0  0  0  0  0  0  0  0  0
    7.0196   11.2586   22.7360 H   0  0  0  0  0  0  0  0  0  0  0  0
    9.8046   11.3736   25.7093 H   0  0  0  0  0  0  0  0  0  0  0  0
    9.0640   12.8905   25.1262 H   0  0  0  0  0  0  0  0  0  0  0  0
    8.7203    9.2209   22.7791 H   0  0  0  0  0  0  0  0  0  0  0  0
    9.9529    9.2720   24.0951 H   0  0  0  0  0  0  0  0  0  0  0  0
   12.1632   11.8043   23.3730 H   0  0  0  0  0  0  0  0  0  0  0  0
   11.0468   13.0310   24.0779 H   0  0  0  0  0  0  0  0  0  0  0  0
    6.9475   11.0504   26.9247 H   0  0  0  0  0  0  0  0  0  0  0  0
    5.7194   10.6985   25.6820 H   0  0  0  0  0  0  0  0  0  0  0  0
  1  5  1  1  0  0  0
  1  7  1  0  0  0  0
  1  9  2  0  0  0  0
  2  5  1  0  0  0  0
  2  6  1  0  0  0  0
  3  5  1  0  0  0  0
  3  6  1  0  0  0  0
  4  5  1  0  0  0  0
  4 10  1  0  0  0  0
  6  8  1  1  0  0  0
  6 10  1  0  0  0  0
  7 12  1  0  0  0  0
  8 11  1  0  0  0  0
  2 13  1  0  0  0  0
  2 14  1  0  0  0  0
  3 15  1  0  0  0  0
  3 16  1  0  0  0  0
  4 17  1  0  0  0  0
  4 18  1  0  0  0  0
  7 19  1  0  0  0  0
  7 20  1  0  0  0  0
  8 21  1  0  0  0  0
  8 22  1  0  0  0  0
M  END
> <id>
EN300-28020834

> <smiles>
FC[C@]1(C[C@]2(C1)C(=O)CBr)OC2

> <IUPAC Name>
2-bromo-1-[(1r,4r)-1-(fluoromethyl)-2-oxabicyclo[2.1.1]hexan-4-yl]ethan-1-one

> <CAS>
2573214-03-4

> <URL>
https://www.enaminestore.com/catalog/EN300-28020834

> <ROCS_ShapeQuery>
x0812_0A_x1140_0A_x1097_0A_x0365_0A_x1097_0A_x0310_0A

> <ROCS_TanimotoCombo>
0.719 

> <ROCS_ShapeTanimoto>
0.230 

> <ROCS_ColorTanimoto>
0.488 

> <ROCS_RefTversky>
0.206 

> <ROCS_RefColorTversky>
0.550 

> <ROCS_RefTverskyCombo>
0.756 

> <ROCS_FitTversky>
2.047 

> <ROCS_FitColorTversky>
0.813 

> <ROCS_FitTverskyCombo>
2.861 

> <ROCS_ColorScore>
-8.175

> <ROCS_Overlap>
2083.164

> <ROCS_Rank>
139                 

$$$$
untitled-dbase-288849_0
  -OEChem-02092408543D

 26 27  0     1  0  0  0  0  0999 V2000
    9.5389   12.4791   24.4908 C   0  0  0  0  0  0  0  0  0  0  0  0
    9.8200   11.2174   25.3173 C   0  0  0  0  0  0  0  0  0  0  0  0
    7.0819   11.9943   24.5272 C   0  0  0  0  0  0  0  0  0  0  0  0
    8.2895   12.2745   23.6134 C   0  0  2  0  0  0  0  0  0  0  0  0
    8.7341   10.1528   25.0462 C   0  0  1  0  0  0  0  0  0  0  0  0
    7.3675   10.7741   25.4292 C   0  0  2  0  0  0  0  0  0  0  0  0
    8.4991   11.0524   22.6940 C   0  0  2  0  0  0  0  0  0  0  0  0
    8.7663    9.7902   23.5423 C   0  0  1  0  0  0  0  0  0  0  0  0
    6.2850    9.7972   25.3270 N   0  0  0  0  0  0  0  0  0  0  0  0
    9.5574   11.3235   21.7835 O   0  0  0  0  0  0  0  0  0  0  0  0
   10.0143    9.1838   23.2280 O   0  0  0  0  0  0  0  0  0  0  0  0
    9.3890   13.3341   25.1615 H   0  0  0  0  0  0  0  0  0  0  0  0
   10.4113   12.7191   23.8718 H   0  0  0  0  0  0  0  0  0  0  0  0
   10.8154   10.8267   25.0755 H   0  0  0  0  0  0  0  0  0  0  0  0
    9.8417   11.4723   26.3839 H   0  0  0  0  0  0  0  0  0  0  0  0
    6.8723   12.8696   25.1548 H   0  0  0  0  0  0  0  0  0  0  0  0
    6.1863   11.8425   23.9109 H   0  0  0  0  0  0  0  0  0  0  0  0
    8.1180   13.1758   23.0140 H   0  0  0  0  0  0  0  0  0  0  0  0
    8.9523    9.2669   25.6552 H   0  0  0  0  0  0  0  0  0  0  0  0
    7.4090   11.1098   26.4731 H   0  0  0  0  0  0  0  0  0  0  0  0
    7.5908   10.9022   22.0976 H   0  0  0  0  0  0  0  0  0  0  0  0
    7.9902    9.0440   23.3360 H   0  0  0  0  0  0  0  0  0  0  0  0
    5.6213   10.1383   24.6732 H   0  0  0  0  0  0  0  0  0  0  0  0
    6.6729    8.9377   25.0187 H   0  0  0  0  0  0  0  0  0  0  0  0
    9.2905   12.1019   21.2688 H   0  0  0  0  0  0  0  0  0  0  0  0
   10.0829    8.3866   23.7771 H   0  0  0  0  0  0  0  0  0  0  0  0
  1  2  1  0  0  0  0
  1  4  1  0  0  0  0
  2  5  1  1  0  0  0
  3  4  1  6  0  0  0
  3  6  1  0  0  0  0
  4  7  1  0  0  0  0
  5  6  1  0  0  0  0
  5  8  1  0  0  0  0
  6  9  1  6  0  0  0
  7  8  1  0  0  0  0
  7 10  1  1  0  0  0
  8 11  1  1  0  0  0
  1 12  1  0  0  0  0
  1 13  1  0  0  0  0
  2 14  1  0  0  0  0
  2 15  1  0  0  0  0
  3 16  1  0  0  0  0
  3 17  1  0  0  0  0
  4 18  1  0  0  0  0
  5 19  1  0  0  0  0
  6 20  1  0  0  0  0
  7 21  1  0  0  0  0
  8 22  1  0  0  0  0
  9 23  1  0  0  0  0
  9 24  1  0  0  0  0
 10 25  1  0  0  0  0
 11 26  1  0  0  0  0
M  END
> <id>
EN300-26990237

> <smiles>
N[C@@H]1C[C@H]2CC[C@@H]1[C@H](O)[C@@H]2O |&1:1,3,6,7,9,r|

> <IUPAC Name>
rac-(1R,2R,3S,4S,5R)-5-aminobicyclo[2.2.2]octane-2,3-diol

> <CAS>
2460739-56-2

> <URL>
https://www.enaminestore.com/catalog/EN300-26990237

> <ROCS_ShapeQuery>
x0812_0A_x1140_0A_x1097_0A_x0365_0A_x1097_0A_x0310_0A

> <ROCS_TanimotoCombo>
0.719 

> <ROCS_ShapeTanimoto>
0.204 

> <ROCS_ColorTanimoto>
0.515 

> <ROCS_RefTversky>
0.186 

> <ROCS_RefColorTversky>
0.615 

> <ROCS_RefTverskyCombo>
0.801 

> <ROCS_FitTversky>
1.913 

> <ROCS_FitColorTversky>
0.759 

> <ROCS_FitTverskyCombo>
2.672 

> <ROCS_ColorScore>
-9.214

> <ROCS_Overlap>
1878.233

> <ROCS_Rank>
140                 

$$$$
untitled-dbase-413605_0
  -OEChem-02092408543D

 26 27  0     1  0  0  0  0  0999 V2000
    9.5389   12.4791   24.4908 C   0  0  0  0  0  0  0  0  0  0  0  0
    9.8200   11.2174   25.3173 C   0  0  0  0  0  0  0  0  0  0  0  0
    7.0819   11.9943   24.5272 C   0  0  0  0  0  0  0  0  0  0  0  0
    8.2895   12.2745   23.6134 C   0  0  2  0  0  0  0  0  0  0  0  0
    8.7341   10.1528   25.0462 C   0  0  1  0  0  0  0  0  0  0  0  0
    7.3675   10.7741   25.4292 C   0  0  2  0  0  0  0  0  0  0  0  0
    8.4991   11.0524   22.6940 C   0  0  2  0  0  0  0  0  0  0  0  0
    8.7663    9.7902   23.5423 C   0  0  1  0  0  0  0  0  0  0  0  0
    6.2850    9.7972   25.3270 N   0  0  0  0  0  0  0  0  0  0  0  0
    9.5574   11.3235   21.7835 O   0  0  0  0  0  0  0  0  0  0  0  0
   10.0143    9.1838   23.2280 O   0  0  0  0  0  0  0  0  0  0  0  0
    9.3890   13.3341   25.1615 H   0  0  0  0  0  0  0  0  0  0  0  0
   10.4113   12.7191   23.8718 H   0  0  0  0  0  0  0  0  0  0  0  0
   10.8154   10.8267   25.0755 H   0  0  0  0  0  0  0  0  0  0  0  0
    9.8417   11.4723   26.3839 H   0  0  0  0  0  0  0  0  0  0  0  0
    6.8723   12.8696   25.1548 H   0  0  0  0  0  0  0  0  0  0  0  0
    6.1863   11.8425   23.9109 H   0  0  0  0  0  0  0  0  0  0  0  0
    8.1180   13.1758   23.0140 H   0  0  0  0  0  0  0  0  0  0  0  0
    8.9523    9.2669   25.6552 H   0  0  0  0  0  0  0  0  0  0  0  0
    7.4090   11.1098   26.4731 H   0  0  0  0  0  0  0  0  0  0  0  0
    7.5908   10.9022   22.0976 H   0  0  0  0  0  0  0  0  0  0  0  0
    7.9902    9.0440   23.3360 H   0  0  0  0  0  0  0  0  0  0  0  0
    5.6213   10.1383   24.6732 H   0  0  0  0  0  0  0  0  0  0  0  0
    6.6729    8.9377   25.0187 H   0  0  0  0  0  0  0  0  0  0  0  0
    9.2905   12.1019   21.2688 H   0  0  0  0  0  0  0  0  0  0  0  0
   10.0829    8.3866   23.7771 H   0  0  0  0  0  0  0  0  0  0  0  0
  1  2  1  0  0  0  0
  1  4  1  0  0  0  0
  2  5  1  1  0  0  0
  3  4  1  6  0  0  0
  3  6  1  0  0  0  0
  4  7  1  0  0  0  0
  5  6  1  0  0  0  0
  5  8  1  0  0  0  0
  6  9  1  6  0  0  0
  7  8  1  0  0  0  0
  7 10  1  1  0  0  0
  8 11  1  1  0  0  0
  1 12  1  0  0  0  0
  1 13  1  0  0  0  0
  2 14  1  0  0  0  0
  2 15  1  0  0  0  0
  3 16  1  0  0  0  0
  3 17  1  0  0  0  0
  4 18  1  0  0  0  0
  5 19  1  0  0  0  0
  6 20  1  0  0  0  0
  7 21  1  0  0  0  0
  8 22  1  0  0  0  0
  9 23  1  0  0  0  0
  9 24  1  0  0  0  0
 10 25  1  0  0  0  0
 11 26  1  0  0  0  0
M  END
> <id>
EN300-26990236

> <smiles>
Cl.N[C@@H]1C[C@H]2CC[C@@H]1[C@H](O)[C@@H]2O |&1:2,4,7,8,10,r|

> <IUPAC Name>
rac-(1R,2R,3S,4S,5R)-5-aminobicyclo[2.2.2]octane-2,3-diol hydrochloride

> <CAS>
2460740-54-7

> <Purity>
95

> <URL>
https://www.enaminestore.com/catalog/EN300-26990236

> <Saltdate>
Cl

> <ROCS_ShapeQuery>
x0812_0A_x1140_0A_x1097_0A_x0365_0A_x1097_0A_x0310_0A

> <ROCS_TanimotoCombo>
0.719 

> <ROCS_ShapeTanimoto>
0.204 

> <ROCS_ColorTanimoto>
0.515 

> <ROCS_RefTversky>
0.186 

> <ROCS_RefColorTversky>
0.615 

> <ROCS_RefTverskyCombo>
0.801 

> <ROCS_FitTversky>
1.913 

> <ROCS_FitColorTversky>
0.759 

> <ROCS_FitTverskyCombo>
2.672 

> <ROCS_ColorScore>
-9.214

> <ROCS_Overlap>
1878.233

> <ROCS_Rank>
141                 

$$$$
untitled-dbase-573885_8
  -OEChem-02092408543D

 37 38  0     0  0  0  0  0  0999 V2000
    9.6723   12.1256   22.1901 C   0  0  0  0  0  0  0  0  0  0  0  0
    8.8953   10.2948   25.2669 C   0  0  0  0  0  0  0  0  0  0  0  0
    7.0939   10.4783   24.2051 C   0  0  0  0  0  0  0  0  0  0  0  0
    8.4359   12.5632   24.3637 C   0  0  0  0  0  0  0  0  0  0  0  0
    7.8167   11.4427   25.2206 C   0  0  0  0  0  0  0  0  0  0  0  0
    8.5881   10.3225   23.7180 C   0  0  0  0  0  0  0  0  0  0  0  0
   10.9845   13.5401   20.0791 C   0  0  0  0  0  0  0  0  0  0  0  0
   10.9570   15.5136   21.6327 C   0  0  0  0  0  0  0  0  0  0  0  0
   12.2191   13.4378   22.2699 C   0  0  0  0  0  0  0  0  0  0  0  0
    8.9930    9.1833   22.8339 C   0  0  0  0  0  0  0  0  0  0  0  0
    7.1193   11.8773   26.4775 C   0  0  0  0  0  0  0  0  0  0  0  0
   10.9959   13.9898   21.5394 C   0  0  0  0  0  0  0  0  0  0  0  0
    8.9732   11.7015   23.3029 N   0  0  0  0  0  0  0  0  0  0  0  0
   10.1150   11.3909   21.3119 O   0  0  0  0  0  0  0  0  0  0  0  0
   10.4081    9.0221   22.8792 O   0  0  0  0  0  0  0  0  0  0  0  0
    9.8174   13.4881   22.1799 O   0  0  0  0  0  0  0  0  0  0  0  0
    6.2765   12.8892   26.1785 F   0  0  0  0  0  0  0  0  0  0  0  0
    8.0401   12.3564   27.3414 F   0  0  0  0  0  0  0  0  0  0  0  0
    9.9056   10.5889   25.5674 H   0  0  0  0  0  0  0  0  0  0  0  0
    8.6159    9.3811   25.8043 H   0  0  0  0  0  0  0  0  0  0  0  0
    6.6224    9.5843   24.6292 H   0  0  0  0  0  0  0  0  0  0  0  0
    6.3992   10.9464   23.5006 H   0  0  0  0  0  0  0  0  0  0  0  0
    7.6992   13.2559   23.9467 H   0  0  0  0  0  0  0  0  0  0  0  0
    9.2504   13.0979   24.8608 H   0  0  0  0  0  0  0  0  0  0  0  0
   11.0124   12.4469   20.0078 H   0  0  0  0  0  0  0  0  0  0  0  0
   10.0944   13.9003   19.5530 H   0  0  0  0  0  0  0  0  0  0  0  0
   11.8714   13.9071   19.5500 H   0  0  0  0  0  0  0  0  0  0  0  0
   10.9650   15.8407   22.6787 H   0  0  0  0  0  0  0  0  0  0  0  0
   10.0338   15.9081   21.1930 H   0  0  0  0  0  0  0  0  0  0  0  0
   11.8087   15.9717   21.1196 H   0  0  0  0  0  0  0  0  0  0  0  0
   12.2275   13.7602   23.3174 H   0  0  0  0  0  0  0  0  0  0  0  0
   12.2440   12.3435   22.2450 H   0  0  0  0  0  0  0  0  0  0  0  0
   13.1446   13.8174   21.8221 H   0  0  0  0  0  0  0  0  0  0  0  0
    8.7034    9.3658   21.7888 H   0  0  0  0  0  0  0  0  0  0  0  0
    8.5312    8.2400   23.1603 H   0  0  0  0  0  0  0  0  0  0  0  0
    6.5707   11.0591   26.9347 H   0  0  0  0  0  0  0  0  0  0  0  0
   10.6204    8.2777   22.2949 H   0  0  0  0  0  0  0  0  0  0  0  0
  1 13  1  0  0  0  0
  1 14  2  0  0  0  0
  1 16  1  0  0  0  0
  2  5  1  0  0  0  0
  2  6  1  0  0  0  0
  3  5  1  0  0  0  0
  3  6  1  0  0  0  0
  4  5  1  0  0  0  0
  4 13  1  0  0  0  0
  5 11  1  0  0  0  0
  6 10  1  0  0  0  0
  6 13  1  0  0  0  0
  7 12  1  0  0  0  0
  8 12  1  0  0  0  0
  9 12  1  0  0  0  0
 10 15  1  0  0  0  0
 11 17  1  0  0  0  0
 11 18  1  0  0  0  0
 12 16  1  0  0  0  0
  2 19  1  0  0  0  0
  2 20  1  0  0  0  0
  3 21  1  0  0  0  0
  3 22  1  0  0  0  0
  4 23  1  0  0  0  0
  4 24  1  0  0  0  0
  7 25  1  0  0  0  0
  7 26  1  0  0  0  0
  7 27  1  0  0  0  0
  8 28  1  0  0  0  0
  8 29  1  0  0  0  0
  8 30  1  0  0  0  0
  9 31  1  0  0  0  0
  9 32  1  0  0  0  0
  9 33  1  0  0  0  0
 10 34  1  0  0  0  0
 10 35  1  0  0  0  0
 11 36  1  0  0  0  0
 15 37  1  0  0  0  0
M  END
> <id>
EN300-27737172

> <smiles>
CC(C)(C)OC(=O)N1CC2(CC1(CO)C2)C(F)F

> <IUPAC Name>
tert-butyl 4-(difluoromethyl)-1-(hydroxymethyl)-2-azabicyclo[2.1.1]hexane-2-carboxylate

> <URL>
https://www.enaminestore.com/catalog/EN300-27737172

> <ROCS_ShapeQuery>
x0812_0A_x1140_0A_x1097_0A_x0365_0A_x1097_0A_x0310_0A

> <ROCS_TanimotoCombo>
0.718 

> <ROCS_ShapeTanimoto>
0.264 

> <ROCS_ColorTanimoto>
0.454 

> <ROCS_RefTversky>
0.236 

> <ROCS_RefColorTversky>
0.543 

> <ROCS_RefTverskyCombo>
0.778 

> <ROCS_FitTversky>
1.844 

> <ROCS_FitColorTversky>
0.736 

> <ROCS_FitTverskyCombo>
2.581 

> <ROCS_ColorScore>
-8.096

> <ROCS_Overlap>
2384.871

> <ROCS_Rank>
142                 

$$$$
untitled-dbase-567874_5
  -OEChem-02092408543D

 21 22  0     0  0  0  0  0  0999 V2000
    8.8391   11.8103   25.2012 C   0  0  0  0  0  0  0  0  0  0  0  0
    7.7122   11.7520   23.4362 C   0  0  0  0  0  0  0  0  0  0  0  0
    9.2204    9.8402   23.7795 C   0  0  0  0  0  0  0  0  0  0  0  0
    9.2137   11.3838   23.7329 C   0  0  0  0  0  0  0  0  0  0  0  0
    7.5693   10.9643   24.7967 C   0  0  0  0  0  0  0  0  0  0  0  0
   10.3372   12.0455   22.9936 C   0  0  0  0  0  0  0  0  0  0  0  0
    6.3063   11.0231   25.6008 C   0  0  0  0  0  0  0  0  0  0  0  0
    8.0283    9.6069   24.5484 O   0  0  0  0  0  0  0  0  0  0  0  0
   10.1854   11.8218   21.5949 O   0  0  0  0  0  0  0  0  0  0  0  0
    5.8531   12.3082   25.6328 F   0  0  0  0  0  0  0  0  0  0  0  0
    9.4602   11.3917   25.9984 H   0  0  0  0  0  0  0  0  0  0  0  0
    8.6864   12.8798   25.3837 H   0  0  0  0  0  0  0  0  0  0  0  0
    7.4501   12.8157   23.4471 H   0  0  0  0  0  0  0  0  0  0  0  0
    7.2641   11.2773   22.5584 H   0  0  0  0  0  0  0  0  0  0  0  0
    9.1174    9.3867   22.7895 H   0  0  0  0  0  0  0  0  0  0  0  0
   10.0880    9.4366   24.3093 H   0  0  0  0  0  0  0  0  0  0  0  0
   11.3111   11.6389   23.3015 H   0  0  0  0  0  0  0  0  0  0  0  0
   10.3447   13.1310   23.1678 H   0  0  0  0  0  0  0  0  0  0  0  0
    6.4670   10.7021   26.6381 H   0  0  0  0  0  0  0  0  0  0  0  0
    5.5139   10.4028   25.1621 H   0  0  0  0  0  0  0  0  0  0  0  0
   10.9307   12.2658   21.1611 H   0  0  0  0  0  0  0  0  0  0  0  0
  1  4  1  0  0  0  0
  1  5  1  0  0  0  0
  2  4  1  0  0  0  0
  2  5  1  0  0  0  0
  3  4  1  0  0  0  0
  3  8  1  0  0  0  0
  4  6  1  1  0  0  0
  5  7  1  1  0  0  0
  5  8  1  0  0  0  0
  6  9  1  0  0  0  0
  7 10  1  0  0  0  0
  1 11  1  0  0  0  0
  1 12  1  0  0  0  0
  2 13  1  0  0  0  0
  2 14  1  0  0  0  0
  3 15  1  0  0  0  0
  3 16  1  0  0  0  0
  6 17  1  0  0  0  0
  6 18  1  0  0  0  0
  7 19  1  0  0  0  0
  7 20  1  0  0  0  0
  9 21  1  0  0  0  0
M  END
> <id>
EN300-37375366

> <smiles>
OC[C@]1(C[C@@]2(CF)C1)CO2

> <IUPAC Name>
[(1r,4s)-1-(fluoromethyl)-2-oxabicyclo[2.1.1]hexan-4-yl]methanol

> <CAS>
2418722-45-7

> <URL>
https://www.enaminestore.com/catalog/EN300-37375366

> <ROCS_ShapeQuery>
x0812_0A_x1140_0A_x1097_0A_x0365_0A_x1097_0A_x0310_0A

> <ROCS_TanimotoCombo>
0.718 

> <ROCS_ShapeTanimoto>
0.207 

> <ROCS_ColorTanimoto>
0.511 

> <ROCS_RefTversky>
0.188 

> <ROCS_RefColorTversky>
0.567 

> <ROCS_RefTverskyCombo>
0.755 

> <ROCS_FitTversky>
2.008 

> <ROCS_FitColorTversky>
0.839 

> <ROCS_FitTverskyCombo>
2.847 

> <ROCS_ColorScore>
-8.430

> <ROCS_Overlap>
1895.573

> <ROCS_Rank>
143                 

$$$$
untitled-dbase-350236_5
  -OEChem-02092408543D

 21 22  0     0  0  0  0  0  0999 V2000
    8.8388   11.8104   25.2014 C   0  0  0  0  0  0  0  0  0  0  0  0
    7.7124   11.7520   23.4360 C   0  0  0  0  0  0  0  0  0  0  0  0
    9.2206    9.8403   23.7797 C   0  0  0  0  0  0  0  0  0  0  0  0
    9.2138   11.3840   23.7331 C   0  0  0  0  0  0  0  0  0  0  0  0
    7.5691   10.9642   24.7965 C   0  0  0  0  0  0  0  0  0  0  0  0
   10.3371   12.0458   22.9936 C   0  0  0  0  0  0  0  0  0  0  0  0
    6.3056   11.0229   25.5999 C   0  0  0  0  0  0  0  0  0  0  0  0
    8.0284    9.6068   24.5484 O   0  0  0  0  0  0  0  0  0  0  0  0
   10.1853   11.8216   21.5949 O   0  0  0  0  0  0  0  0  0  0  0  0
    5.8522   12.3079   25.6316 F   0  0  0  0  0  0  0  0  0  0  0  0
    9.4598   11.3917   25.9987 H   0  0  0  0  0  0  0  0  0  0  0  0
    8.6862   12.8799   25.3838 H   0  0  0  0  0  0  0  0  0  0  0  0
    7.4503   12.8157   23.4469 H   0  0  0  0  0  0  0  0  0  0  0  0
    7.2645   11.2775   22.5581 H   0  0  0  0  0  0  0  0  0  0  0  0
    9.1179    9.3868   22.7897 H   0  0  0  0  0  0  0  0  0  0  0  0
   10.0881    9.4368   24.3097 H   0  0  0  0  0  0  0  0  0  0  0  0
   11.3112   11.6394   23.3015 H   0  0  0  0  0  0  0  0  0  0  0  0
   10.3444   13.1313   23.1675 H   0  0  0  0  0  0  0  0  0  0  0  0
    6.4658   10.7019   26.6373 H   0  0  0  0  0  0  0  0  0  0  0  0
    5.5136   10.4025   25.1608 H   0  0  0  0  0  0  0  0  0  0  0  0
   10.9304   12.2657   21.1610 H   0  0  0  0  0  0  0  0  0  0  0  0
  1  4  1  0  0  0  0
  1  5  1  0  0  0  0
  2  4  1  0  0  0  0
  2  5  1  0  0  0  0
  3  4  1  0  0  0  0
  3  8  1  0  0  0  0
  4  6  1  0  0  0  0
  5  7  1  0  0  0  0
  5  8  1  0  0  0  0
  6  9  1  0  0  0  0
  7 10  1  0  0  0  0
  1 11  1  0  0  0  0
  1 12  1  0  0  0  0
  2 13  1  0  0  0  0
  2 14  1  0  0  0  0
  3 15  1  0  0  0  0
  3 16  1  0  0  0  0
  6 17  1  0  0  0  0
  6 18  1  0  0  0  0
  7 19  1  0  0  0  0
  7 20  1  0  0  0  0
  9 21  1  0  0  0  0
M  END
> <id>
EN300-26678497

> <smiles>
OCC1(CC2(CF)C1)CO2

> <MDLNUMBER>
MFCD32678767

> <IUPAC Name>
[1-(fluoromethyl)-2-oxabicyclo[2.1.1]hexan-4-yl]methanol

> <CAS>
2418722-45-7

> <Purity>
95

> <URL>
https://www.enaminestore.com/catalog/EN300-26678497

> <ROCS_ShapeQuery>
x0812_0A_x1140_0A_x1097_0A_x0365_0A_x1097_0A_x0310_0A

> <ROCS_TanimotoCombo>
0.718 

> <ROCS_ShapeTanimoto>
0.207 

> <ROCS_ColorTanimoto>
0.511 

> <ROCS_RefTversky>
0.188 

> <ROCS_RefColorTversky>
0.567 

> <ROCS_RefTverskyCombo>
0.755 

> <ROCS_FitTversky>
2.007 

> <ROCS_FitColorTversky>
0.839 

> <ROCS_FitTverskyCombo>
2.847 

> <ROCS_ColorScore>
-8.430

> <ROCS_Overlap>
1895.435

> <ROCS_Rank>
144                 

$$$$
untitled-dbase-560438_2
  -OEChem-02092408543D

 26 27  0     0  0  0  0  0  0999 V2000
   10.0379   11.9120   22.4900 C   0  0  0  0  0  0  0  0  0  0  0  0
    9.1664   11.7406   25.0217 C   0  0  0  0  0  0  0  0  0  0  0  0
    7.6112   11.8138   23.6295 C   0  0  0  0  0  0  0  0  0  0  0  0
    8.9694    9.7692   23.5714 C   0  0  0  0  0  0  0  0  0  0  0  0
    9.0934   11.3071   23.5135 C   0  0  0  0  0  0  0  0  0  0  0  0
    7.7639   11.0222   24.9842 C   0  0  0  0  0  0  0  0  0  0  0  0
   12.6452   14.4114   23.0763 C   0  0  0  0  0  0  0  0  0  0  0  0
    6.7747   11.1844   26.0979 C   0  0  0  0  0  0  0  0  0  0  0  0
   11.8107   13.4559   22.2504 C   0  0  0  0  0  0  0  0  0  0  0  0
   10.0372   11.6218   21.3014 O   0  0  0  0  0  0  0  0  0  0  0  0
    8.0114    9.6327   24.6346 O   0  0  0  0  0  0  0  0  0  0  0  0
   10.8628   12.8072   23.1041 O   0  0  0  0  0  0  0  0  0  0  0  0
    4.8013   10.6445   25.4736 I   0  0  0  0  0  0  0  0  0  0  0  0
    9.9348   11.2517   25.6279 H   0  0  0  0  0  0  0  0  0  0  0  0
    9.1718   12.8164   25.2299 H   0  0  0  0  0  0  0  0  0  0  0  0
    7.4602   12.8970   23.6984 H   0  0  0  0  0  0  0  0  0  0  0  0
    6.8999   11.3944   22.9118 H   0  0  0  0  0  0  0  0  0  0  0  0
    8.5627    9.3433   22.6499 H   0  0  0  0  0  0  0  0  0  0  0  0
    9.9066    9.2795   23.8509 H   0  0  0  0  0  0  0  0  0  0  0  0
   12.0167   15.1748   23.5434 H   0  0  0  0  0  0  0  0  0  0  0  0
   13.1876   13.8720   23.8598 H   0  0  0  0  0  0  0  0  0  0  0  0
   13.3966   14.9061   22.4520 H   0  0  0  0  0  0  0  0  0  0  0  0
    6.7641   12.2266   26.4568 H   0  0  0  0  0  0  0  0  0  0  0  0
    7.0598   10.5626   26.9622 H   0  0  0  0  0  0  0  0  0  0  0  0
   12.4452   12.6951   21.7861 H   0  0  0  0  0  0  0  0  0  0  0  0
   11.2688   13.9965   21.4686 H   0  0  0  0  0  0  0  0  0  0  0  0
  1  5  1  1  0  0  0
  1 10  2  0  0  0  0
  1 12  1  0  0  0  0
  2  5  1  0  0  0  0
  2  6  1  0  0  0  0
  3  5  1  0  0  0  0
  3  6  1  0  0  0  0
  4  5  1  0  0  0  0
  4 11  1  0  0  0  0
  6  8  1  1  0  0  0
  6 11  1  0  0  0  0
  7  9  1  0  0  0  0
  8 13  1  0  0  0  0
  9 12  1  0  0  0  0
  2 14  1  0  0  0  0
  2 15  1  0  0  0  0
  3 16  1  0  0  0  0
  3 17  1  0  0  0  0
  4 18  1  0  0  0  0
  4 19  1  0  0  0  0
  7 20  1  0  0  0  0
  7 21  1  0  0  0  0
  7 22  1  0  0  0  0
  8 23  1  0  0  0  0
  8 24  1  0  0  0  0
  9 25  1  0  0  0  0
  9 26  1  0  0  0  0
M  END
> <id>
EN300-26869945

> <smiles>
CCOC(=O)[C@]1(C[C@@]2(CI)C1)CO2

> <IUPAC Name>
ethyl (1r,4r)-1-(iodomethyl)-2-oxabicyclo[2.1.1]hexane-4-carboxylate

> <CAS>
2229432-89-5

> <URL>
https://www.enaminestore.com/catalog/EN300-26869945

> <ROCS_ShapeQuery>
x0812_0A_x1140_0A_x1097_0A_x0365_0A_x1097_0A_x0310_0A

> <ROCS_TanimotoCombo>
0.718 

> <ROCS_ShapeTanimoto>
0.230 

> <ROCS_ColorTanimoto>
0.489 

> <ROCS_RefTversky>
0.206 

> <ROCS_RefColorTversky>
0.550 

> <ROCS_RefTverskyCombo>
0.756 

> <ROCS_FitTversky>
1.975 

> <ROCS_FitColorTversky>
0.814 

> <ROCS_FitTverskyCombo>
2.790 

> <ROCS_ColorScore>
-8.181

> <ROCS_Overlap>
2084.598

> <ROCS_Rank>
145                 

$$$$
untitled-dbase-378098_2
  -OEChem-02092408543D

 26 27  0     0  0  0  0  0  0999 V2000
   10.0379   11.9121   22.4899 C   0  0  0  0  0  0  0  0  0  0  0  0
    9.1666   11.7405   25.0216 C   0  0  0  0  0  0  0  0  0  0  0  0
    7.6113   11.8137   23.6294 C   0  0  0  0  0  0  0  0  0  0  0  0
    8.9692    9.7692   23.5713 C   0  0  0  0  0  0  0  0  0  0  0  0
    9.0935   11.3069   23.5135 C   0  0  0  0  0  0  0  0  0  0  0  0
    7.7639   11.0222   24.9842 C   0  0  0  0  0  0  0  0  0  0  0  0
   12.6451   14.4117   23.0763 C   0  0  0  0  0  0  0  0  0  0  0  0
    6.7746   11.1842   26.0978 C   0  0  0  0  0  0  0  0  0  0  0  0
   11.8106   13.4561   22.2503 C   0  0  0  0  0  0  0  0  0  0  0  0
   10.0373   11.6219   21.3013 O   0  0  0  0  0  0  0  0  0  0  0  0
    8.0113    9.6328   24.6347 O   0  0  0  0  0  0  0  0  0  0  0  0
   10.8628   12.8073   23.1040 O   0  0  0  0  0  0  0  0  0  0  0  0
    4.8013   10.6444   25.4731 I   0  0  0  0  0  0  0  0  0  0  0  0
    9.9344   11.2510   25.6282 H   0  0  0  0  0  0  0  0  0  0  0  0
    9.1710   12.8162   25.2302 H   0  0  0  0  0  0  0  0  0  0  0  0
    7.4600   12.8967   23.6990 H   0  0  0  0  0  0  0  0  0  0  0  0
    6.8998   11.3945   22.9121 H   0  0  0  0  0  0  0  0  0  0  0  0
    8.5627    9.3430   22.6497 H   0  0  0  0  0  0  0  0  0  0  0  0
    9.9064    9.2798   23.8512 H   0  0  0  0  0  0  0  0  0  0  0  0
   12.0165   15.1749   23.5434 H   0  0  0  0  0  0  0  0  0  0  0  0
   13.1875   13.8723   23.8597 H   0  0  0  0  0  0  0  0  0  0  0  0
   13.3964   14.9064   22.4519 H   0  0  0  0  0  0  0  0  0  0  0  0
    6.7639   12.2263   26.4569 H   0  0  0  0  0  0  0  0  0  0  0  0
    7.0596   10.5622   26.9620 H   0  0  0  0  0  0  0  0  0  0  0  0
   12.4452   12.6954   21.7859 H   0  0  0  0  0  0  0  0  0  0  0  0
   11.2687   13.9967   21.4686 H   0  0  0  0  0  0  0  0  0  0  0  0
  1  5  1  0  0  0  0
  1 10  2  0  0  0  0
  1 12  1  0  0  0  0
  2  5  1  0  0  0  0
  2  6  1  0  0  0  0
  3  5  1  0  0  0  0
  3  6  1  0  0  0  0
  4  5  1  0  0  0  0
  4 11  1  0  0  0  0
  6  8  1  0  0  0  0
  6 11  1  0  0  0  0
  7  9  1  0  0  0  0
  8 13  1  0  0  0  0
  9 12  1  0  0  0  0
  2 14  1  0  0  0  0
  2 15  1  0  0  0  0
  3 16  1  0  0  0  0
  3 17  1  0  0  0  0
  4 18  1  0  0  0  0
  4 19  1  0  0  0  0
  7 20  1  0  0  0  0
  7 21  1  0  0  0  0
  7 22  1  0  0  0  0
  8 23  1  0  0  0  0
  8 24  1  0  0  0  0
  9 25  1  0  0  0  0
  9 26  1  0  0  0  0
M  END
> <id>
EN300-2007889

> <smiles>
CCOC(=O)C1(CC2(CI)C1)CO2

> <MDLNUMBER>
MFCD31666502

> <IUPAC Name>
ethyl 1-(iodomethyl)-2-oxabicyclo[2.1.1]hexane-4-carboxylate

> <CAS>
2229432-89-5

> <Purity>
95

> <URL>
https://www.enaminestore.com/catalog/EN300-2007889

> <ROCS_ShapeQuery>
x0812_0A_x1140_0A_x1097_0A_x0365_0A_x1097_0A_x0310_0A

> <ROCS_TanimotoCombo>
0.718 

> <ROCS_ShapeTanimoto>
0.230 

> <ROCS_ColorTanimoto>
0.489 

> <ROCS_RefTversky>
0.206 

> <ROCS_RefColorTversky>
0.550 

> <ROCS_RefTverskyCombo>
0.756 

> <ROCS_FitTversky>
1.975 

> <ROCS_FitColorTversky>
0.814 

> <ROCS_FitTverskyCombo>
2.789 

> <ROCS_ColorScore>
-8.181

> <ROCS_Overlap>
2084.576

> <ROCS_Rank>
146                 

$$$$
untitled-dbase-501524_3
  -OEChem-02092408543D

 24 25  0     0  0  0  0  0  0999 V2000
    9.1940   10.1326   23.8309 C   0  0  0  0  0  0  0  0  0  0  0  0
    9.9507   12.0803   22.3676 C   0  0  0  0  0  0  0  0  0  0  0  0
    6.9569   10.4935   24.0660 C   0  0  0  0  0  0  0  0  0  0  0  0
    8.6574   11.1375   25.8034 C   0  0  0  0  0  0  0  0  0  0  0  0
    7.5547   11.5407   23.0939 C   0  0  0  0  0  0  0  0  0  0  0  0
    9.2532   12.1847   24.8301 C   0  0  0  0  0  0  0  0  0  0  0  0
    8.1547   10.0046   24.8951 C   0  0  0  0  0  0  0  0  0  0  0  0
    9.0552   11.5670   23.4347 C   0  0  0  0  0  0  0  0  0  0  0  0
   11.6210   13.6936   21.9307 C   0  0  0  0  0  0  0  0  0  0  0  0
    9.9510    9.2848   23.4056 O   0  0  0  0  0  0  0  0  0  0  0  0
    9.9848   11.6347   21.2286 O   0  0  0  0  0  0  0  0  0  0  0  0
   10.7068   13.1026   22.8597 O   0  0  0  0  0  0  0  0  0  0  0  0
    6.1690   10.9255   24.6914 H   0  0  0  0  0  0  0  0  0  0  0  0
    6.5200    9.6674   23.4924 H   0  0  0  0  0  0  0  0  0  0  0  0
    9.4420   10.7735   26.4773 H   0  0  0  0  0  0  0  0  0  0  0  0
    7.8561   11.5639   26.4155 H   0  0  0  0  0  0  0  0  0  0  0  0
    7.3780   11.2339   22.0555 H   0  0  0  0  0  0  0  0  0  0  0  0
    7.0859   12.5218   23.2296 H   0  0  0  0  0  0  0  0  0  0  0  0
    8.7460   13.1512   24.9264 H   0  0  0  0  0  0  0  0  0  0  0  0
   10.3139   12.3476   25.0569 H   0  0  0  0  0  0  0  0  0  0  0  0
    8.0528    9.0248   25.3579 H   0  0  0  0  0  0  0  0  0  0  0  0
   12.1737   14.4973   22.4235 H   0  0  0  0  0  0  0  0  0  0  0  0
   11.0678   14.0888   21.0750 H   0  0  0  0  0  0  0  0  0  0  0  0
   12.3224   12.9296   21.5872 H   0  0  0  0  0  0  0  0  0  0  0  0
  1  7  1  0  0  0  0
  1  8  1  0  0  0  0
  1 10  2  0  0  0  0
  2  8  1  0  0  0  0
  2 11  2  0  0  0  0
  2 12  1  0  0  0  0
  3  5  1  0  0  0  0
  3  7  1  0  0  0  0
  4  6  1  0  0  0  0
  4  7  1  0  0  0  0
  5  8  1  0  0  0  0
  6  8  1  0  0  0  0
  9 12  1  0  0  0  0
  3 13  1  0  0  0  0
  3 14  1  0  0  0  0
  4 15  1  0  0  0  0
  4 16  1  0  0  0  0
  5 17  1  0  0  0  0
  5 18  1  0  0  0  0
  6 19  1  0  0  0  0
  6 20  1  0  0  0  0
  7 21  1  0  0  0  0
  9 22  1  0  0  0  0
  9 23  1  0  0  0  0
  9 24  1  0  0  0  0
M  END
> <id>
EN300-7912847

> <smiles>
COC(=O)C1(CCC2CC1)C2=O

> <MDLNUMBER>
MFCD24695537

> <IUPAC Name>
methyl 7-oxobicyclo[2.2.1]heptane-1-carboxylate

> <CAS>
90673-79-3

> <Purity>
95

> <URL>
https://www.enaminestore.com/catalog/EN300-7912847

> <ROCS_ShapeQuery>
x0812_0A_x1140_0A_x1097_0A_x0365_0A_x1097_0A_x0310_0A

> <ROCS_TanimotoCombo>
0.718 

> <ROCS_ShapeTanimoto>
0.216 

> <ROCS_ColorTanimoto>
0.502 

> <ROCS_RefTversky>
0.196 

> <ROCS_RefColorTversky>
0.531 

> <ROCS_RefTverskyCombo>
0.727 

> <ROCS_FitTversky>
1.895 

> <ROCS_FitColorTversky>
0.902 

> <ROCS_FitTverskyCombo>
2.798 

> <ROCS_ColorScore>
-7.860

> <ROCS_Overlap>
1980.844

> <ROCS_Rank>
147                 

$$$$
untitled-dbase-486013_3
  -OEChem-02092408543D

 40 41  0     0  0  0  0  0  0999 V2000
    9.8018   12.1038   22.3866 C   0  0  0  0  0  0  0  0  0  0  0  0
    9.1229   11.8354   24.9690 C   0  0  0  0  0  0  0  0  0  0  0  0
    7.5027   11.6262   23.6861 C   0  0  0  0  0  0  0  0  0  0  0  0
    9.0445   11.3409   23.4670 C   0  0  0  0  0  0  0  0  0  0  0  0
    7.8682   10.8829   25.0275 C   0  0  0  0  0  0  0  0  0  0  0  0
    9.1801    9.7925   23.5482 C   0  0  0  0  0  0  0  0  0  0  0  0
    8.6431    9.0788   22.3114 C   0  0  0  0  0  0  0  0  0  0  0  0
   10.6001    9.3308   23.8598 C   0  0  0  0  0  0  0  0  0  0  0  0
   10.2681   14.5422   20.9962 C   0  0  0  0  0  0  0  0  0  0  0  0
   11.8710   15.0800   22.8538 C   0  0  0  0  0  0  0  0  0  0  0  0
   12.2840   13.0859   21.3836 C   0  0  0  0  0  0  0  0  0  0  0  0
    6.9369   10.9004   26.2014 C   0  0  0  0  0  0  0  0  0  0  0  0
   11.2196   13.9625   22.0419 C   0  0  0  0  0  0  0  0  0  0  0  0
    5.6656   10.3356   25.8531 N   0  0  0  0  0  0  0  0  0  0  0  0
    9.8003   11.7968   21.2022 O   0  0  0  0  0  0  0  0  0  0  0  0
    8.3202    9.5408   24.6758 O   0  0  0  0  0  0  0  0  0  0  0  0
   10.4621   13.1557   22.9493 O   0  0  0  0  0  0  0  0  0  0  0  0
    9.9861   11.5237   25.5613 H   0  0  0  0  0  0  0  0  0  0  0  0
    8.9490   12.9031   25.1494 H   0  0  0  0  0  0  0  0  0  0  0  0
    7.1991   12.6772   23.7633 H   0  0  0  0  0  0  0  0  0  0  0  0
    6.7936   11.1113   23.0342 H   0  0  0  0  0  0  0  0  0  0  0  0
    8.7633    8.0019   22.4231 H   0  0  0  0  0  0  0  0  0  0  0  0
    9.1886    9.4074   21.4276 H   0  0  0  0  0  0  0  0  0  0  0  0
    7.5857    9.3068   22.1816 H   0  0  0  0  0  0  0  0  0  0  0  0
   10.6351    8.2428   23.9043 H   0  0  0  0  0  0  0  0  0  0  0  0
   10.9197    9.7359   24.8192 H   0  0  0  0  0  0  0  0  0  0  0  0
   11.2815    9.6767   23.0833 H   0  0  0  0  0  0  0  0  0  0  0  0
    9.7985   13.7432   20.4113 H   0  0  0  0  0  0  0  0  0  0  0  0
    9.4793   15.1445   21.4584 H   0  0  0  0  0  0  0  0  0  0  0  0
   10.8098   15.1714   20.2807 H   0  0  0  0  0  0  0  0  0  0  0  0
   12.5546   14.6686   23.6053 H   0  0  0  0  0  0  0  0  0  0  0  0
   11.1164   15.6536   23.4039 H   0  0  0  0  0  0  0  0  0  0  0  0
   12.4325   15.7691   22.2147 H   0  0  0  0  0  0  0  0  0  0  0  0
   12.9666   12.6700   22.1335 H   0  0  0  0  0  0  0  0  0  0  0  0
   11.8357   12.2567   20.8268 H   0  0  0  0  0  0  0  0  0  0  0  0
   12.9019   13.6738   20.6953 H   0  0  0  0  0  0  0  0  0  0  0  0
    7.3853   10.3150   27.0143 H   0  0  0  0  0  0  0  0  0  0  0  0
    6.7977   11.9401   26.5239 H   0  0  0  0  0  0  0  0  0  0  0  0
    4.9453   11.0173   25.9894 H   0  0  0  0  0  0  0  0  0  0  0  0
    5.6751   10.0519   24.8931 H   0  0  0  0  0  0  0  0  0  0  0  0
  1  4  1  0  0  0  0
  1 15  2  0  0  0  0
  1 17  1  0  0  0  0
  2  4  1  0  0  0  0
  2  5  1  0  0  0  0
  3  4  1  0  0  0  0
  3  5  1  0  0  0  0
  4  6  1  0  0  0  0
  5 12  1  0  0  0  0
  5 16  1  0  0  0  0
  6  7  1  0  0  0  0
  6  8  1  0  0  0  0
  6 16  1  0  0  0  0
  9 13  1  0  0  0  0
 10 13  1  0  0  0  0
 11 13  1  0  0  0  0
 12 14  1  0  0  0  0
 13 17  1  0  0  0  0
  2 18  1  0  0  0  0
  2 19  1  0  0  0  0
  3 20  1  0  0  0  0
  3 21  1  0  0  0  0
  7 22  1  0  0  0  0
  7 23  1  0  0  0  0
  7 24  1  0  0  0  0
  8 25  1  0  0  0  0
  8 26  1  0  0  0  0
  8 27  1  0  0  0  0
  9 28  1  0  0  0  0
  9 29  1  0  0  0  0
  9 30  1  0  0  0  0
 10 31  1  0  0  0  0
 10 32  1  0  0  0  0
 10 33  1  0  0  0  0
 11 34  1  0  0  0  0
 11 35  1  0  0  0  0
 11 36  1  0  0  0  0
 12 37  1  0  0  0  0
 12 38  1  0  0  0  0
 14 39  1  0  0  0  0
 14 40  1  0  0  0  0
M  END
> <id>
EN300-27727190

> <smiles>
CC(C)(C)OC(=O)C1(CC2(CN)C1)C(C)(C)O2

> <IUPAC Name>
tert-butyl 1-(aminomethyl)-3,3-dimethyl-2-oxabicyclo[2.1.1]hexane-4-carboxylate

> <CAS>
2639443-67-5

> <URL>
https://www.enaminestore.com/catalog/EN300-27727190

> <ROCS_ShapeQuery>
x0812_0A_x1140_0A_x1097_0A_x0365_0A_x1097_0A_x0310_0A

> <ROCS_TanimotoCombo>
0.718 

> <ROCS_ShapeTanimoto>
0.268 

> <ROCS_ColorTanimoto>
0.450 

> <ROCS_RefTversky>
0.237 

> <ROCS_RefColorTversky>
0.577 

> <ROCS_RefTverskyCombo>
0.814 

> <ROCS_FitTversky>
1.933 

> <ROCS_FitColorTversky>
0.673 

> <ROCS_FitTverskyCombo>
2.606 

> <ROCS_ColorScore>
-8.659

> <ROCS_Overlap>
2398.707

> <ROCS_Rank>
148                 

$$$$
untitled-dbase-479575_5
  -OEChem-02092408543D

 38 39  0     1  0  0  0  0  0999 V2000
   10.3415   11.8958   21.3820 C   0  0  0  0  0  0  0  0  0  0  0  0
    9.5007   12.0772   25.1081 C   0  0  0  0  0  0  0  0  0  0  0  0
    8.1926   11.5804   25.7458 C   0  0  0  0  0  0  0  0  0  0  0  0
    7.8945   11.7879   23.3720 C   0  0  0  0  0  0  0  0  0  0  0  0
    9.4264   10.0439   23.6657 C   0  0  0  0  0  0  0  0  0  0  0  0
    9.3771   11.5753   23.6554 C   0  0  2  0  0  0  0  0  0  0  0  0
    7.4875   10.9145   24.5527 C   0  0  2  0  0  0  0  0  0  0  0  0
   10.1500   12.7624   18.6687 C   0  0  0  0  0  0  0  0  0  0  0  0
   12.5743   13.3813   18.8896 C   0  0  0  0  0  0  0  0  0  0  0  0
   11.8676   10.9842   19.1404 C   0  0  0  0  0  0  0  0  0  0  0  0
    6.0075   10.6820   24.7348 C   0  0  0  0  0  0  0  0  0  0  0  0
   11.4698   12.4418   19.3687 C   0  0  0  0  0  0  0  0  0  0  0  0
   10.2761   12.1920   22.7392 N   0  0  0  0  0  0  0  0  0  0  0  0
    9.6381   11.0720   20.8065 O   0  0  0  0  0  0  0  0  0  0  0  0
    8.1815    9.6674   24.3021 O   0  0  0  0  0  0  0  0  0  0  0  0
    5.8030    9.8266   25.8513 O   0  0  0  0  0  0  0  0  0  0  0  0
   11.3030   12.6539   20.7751 O   0  0  0  0  0  0  0  0  0  0  0  0
    9.5427   13.1720   25.1543 H   0  0  0  0  0  0  0  0  0  0  0  0
   10.3820   11.6769   25.6202 H   0  0  0  0  0  0  0  0  0  0  0  0
    8.3977   10.8699   26.5534 H   0  0  0  0  0  0  0  0  0  0  0  0
    7.6201   12.4239   26.1462 H   0  0  0  0  0  0  0  0  0  0  0  0
    7.5632   12.8280   23.4593 H   0  0  0  0  0  0  0  0  0  0  0  0
    7.5864   11.3722   22.4059 H   0  0  0  0  0  0  0  0  0  0  0  0
    9.4263    9.6133   22.6584 H   0  0  0  0  0  0  0  0  0  0  0  0
   10.2653    9.6339   24.2363 H   0  0  0  0  0  0  0  0  0  0  0  0
    9.3545   12.0902   19.0099 H   0  0  0  0  0  0  0  0  0  0  0  0
    9.8358   13.7949   18.8535 H   0  0  0  0  0  0  0  0  0  0  0  0
   10.2357   12.6153   17.5860 H   0  0  0  0  0  0  0  0  0  0  0  0
   13.5231   13.1548   19.3893 H   0  0  0  0  0  0  0  0  0  0  0  0
   12.3360   14.4221   19.1369 H   0  0  0  0  0  0  0  0  0  0  0  0
   12.7260   13.3080   17.8079 H   0  0  0  0  0  0  0  0  0  0  0  0
   12.8142   10.7540   19.6424 H   0  0  0  0  0  0  0  0  0  0  0  0
   11.1027   10.2945   19.5118 H   0  0  0  0  0  0  0  0  0  0  0  0
   12.0268   10.7862   18.0742 H   0  0  0  0  0  0  0  0  0  0  0  0
    5.5770   10.2061   23.8467 H   0  0  0  0  0  0  0  0  0  0  0  0
    5.4853   11.6275   24.9188 H   0  0  0  0  0  0  0  0  0  0  0  0
   10.9186   12.9023   23.1049 H   0  0  0  0  0  0  0  0  0  0  0  0
    4.8440    9.7010   25.9360 H   0  0  0  0  0  0  0  0  0  0  0  0
  1 13  1  0  0  0  0
  1 14  2  0  0  0  0
  1 17  1  0  0  0  0
  2  3  1  0  0  0  0
  2  6  1  0  0  0  0
  3  7  1  0  0  0  0
  4  6  1  0  0  0  0
  4  7  1  0  0  0  0
  5  6  1  0  0  0  0
  5 15  1  0  0  0  0
  6 13  1  0  0  0  0
  7 11  1  0  0  0  0
  7 15  1  0  0  0  0
  8 12  1  0  0  0  0
  9 12  1  0  0  0  0
 10 12  1  0  0  0  0
 11 16  1  0  0  0  0
 12 17  1  0  0  0  0
  2 18  1  0  0  0  0
  2 19  1  0  0  0  0
  3 20  1  0  0  0  0
  3 21  1  0  0  0  0
  4 22  1  0  0  0  0
  4 23  1  0  0  0  0
  5 24  1  0  0  0  0
  5 25  1  0  0  0  0
  8 26  1  0  0  0  0
  8 27  1  0  0  0  0
  8 28  1  0  0  0  0
  9 29  1  0  0  0  0
  9 30  1  0  0  0  0
  9 31  1  0  0  0  0
 10 32  1  0  0  0  0
 10 33  1  0  0  0  0
 10 34  1  0  0  0  0
 11 35  1  0  0  0  0
 11 36  1  0  0  0  0
 13 37  1  0  0  0  0
 16 38  1  0  0  0  0
M  END
> <id>
EN300-7563710

> <smiles>
CC(C)(C)OC(=O)NC1(CCC2(CO)C1)CO2

> <IUPAC Name>
tert-butyl N-[1-(hydroxymethyl)-2-oxabicyclo[2.2.1]heptan-4-yl]carbamate

> <CAS>
2580185-38-0

> <URL>
https://www.enaminestore.com/catalog/EN300-7563710

> <ROCS_ShapeQuery>
x0812_0A_x1140_0A_x1097_0A_x0365_0A_x1097_0A_x0310_0A

> <ROCS_TanimotoCombo>
0.718 

> <ROCS_ShapeTanimoto>
0.216 

> <ROCS_ColorTanimoto>
0.501 

> <ROCS_RefTversky>
0.200 

> <ROCS_RefColorTversky>
0.613 

> <ROCS_RefTverskyCombo>
0.813 

> <ROCS_FitTversky>
1.617 

> <ROCS_FitColorTversky>
0.734 

> <ROCS_FitTverskyCombo>
2.351 

> <ROCS_ColorScore>
-9.192

> <ROCS_Overlap>
2022.214

> <ROCS_Rank>
149                 

$$$$
untitled-dbase-360563_0
  -OEChem-02092408543D

 25 26  0     1  0  0  0  0  0999 V2000
    8.6317   12.4046   24.8780 C   0  0  0  0  0  0  0  0  0  0  0  0
    7.7360   12.2772   23.6341 C   0  0  0  0  0  0  0  0  0  0  0  0
    8.7158    9.9841   25.7120 C   0  0  0  0  0  0  0  0  0  0  0  0
    7.2100    9.7697   23.6293 C   0  0  0  0  0  0  0  0  0  0  0  0
    9.4374   11.0989   24.9291 C   0  0  1  0  0  0  0  0  0  0  0  0
    8.0708   10.9033   23.0365 C   0  0  2  0  0  0  0  0  0  0  0  0
    7.3321    9.5858   25.1563 C   0  0  2  0  0  0  0  0  0  0  0  0
    9.5336   10.7367   23.4470 C   0  0  2  0  0  0  0  0  0  0  0  0
    6.2505   10.2949   25.8478 N   0  0  0  0  0  0  0  0  0  0  0  0
   10.0282    9.4350   23.2109 O   0  0  0  0  0  0  0  0  0  0  0  0
    9.3079   13.2585   24.7486 H   0  0  0  0  0  0  0  0  0  0  0  0
    8.0554   12.5856   25.7903 H   0  0  0  0  0  0  0  0  0  0  0  0
    6.6743   12.3920   23.8725 H   0  0  0  0  0  0  0  0  0  0  0  0
    7.9947   13.0694   22.9210 H   0  0  0  0  0  0  0  0  0  0  0  0
    9.3524    9.0889   25.6969 H   0  0  0  0  0  0  0  0  0  0  0  0
    8.6453   10.2656   26.7708 H   0  0  0  0  0  0  0  0  0  0  0  0
    6.1615    9.9117   23.3358 H   0  0  0  0  0  0  0  0  0  0  0  0
    7.5136    8.8270   23.1542 H   0  0  0  0  0  0  0  0  0  0  0  0
   10.4275   11.2537   25.3713 H   0  0  0  0  0  0  0  0  0  0  0  0
    7.9549   10.8992   21.9473 H   0  0  0  0  0  0  0  0  0  0  0  0
    7.1735    8.5000   25.3794 H   0  0  0  0  0  0  0  0  0  0  0  0
   10.1729   11.4502   22.9124 H   0  0  0  0  0  0  0  0  0  0  0  0
    6.6638   10.9203   26.4945 H   0  0  0  0  0  0  0  0  0  0  0  0
    5.7249   10.7831   25.1655 H   0  0  0  0  0  0  0  0  0  0  0  0
   10.0502    9.3046   22.2464 H   0  0  0  0  0  0  0  0  0  0  0  0
  1  2  1  0  0  0  0
  1  5  1  1  0  0  0
  2  6  1  1  0  0  0
  3  5  1  0  0  0  0
  3  7  1  0  0  0  0
  4  6  1  0  0  0  0
  4  7  1  0  0  0  0
  5  8  1  0  0  0  0
  6  8  1  0  0  0  0
  7  9  1  1  0  0  0
  8 10  1  6  0  0  0
  1 11  1  0  0  0  0
  1 12  1  0  0  0  0
  2 13  1  0  0  0  0
  2 14  1  0  0  0  0
  3 15  1  0  0  0  0
  3 16  1  0  0  0  0
  4 17  1  0  0  0  0
  4 18  1  0  0  0  0
  5 19  1  0  0  0  0
  6 20  1  0  0  0  0
  7 21  1  0  0  0  0
  8 22  1  0  0  0  0
  9 23  1  0  0  0  0
  9 24  1  0  0  0  0
 10 25  1  0  0  0  0
M  END
> <id>
EN300-7438932

> <smiles>
N[C@@H]1C[C@@H]2CC[C@H](C1)[C@@H]2O

> <MDLNUMBER>
MFCD32640605

> <IUPAC Name>
(1R,3S,5S,8R)-3-aminobicyclo[3.2.1]octan-8-ol

> <CAS>
1036897-63-8

> <URL>
https://www.enaminestore.com/catalog/EN300-7438932

> <ROCS_ShapeQuery>
x0812_0A_x1140_0A_x1097_0A_x0365_0A_x1097_0A_x0310_0A

> <ROCS_TanimotoCombo>
0.718 

> <ROCS_ShapeTanimoto>
0.180 

> <ROCS_ColorTanimoto>
0.538 

> <ROCS_RefTversky>
0.167 

> <ROCS_RefColorTversky>
0.585 

> <ROCS_RefTverskyCombo>
0.752 

> <ROCS_FitTversky>
1.794 

> <ROCS_FitColorTversky>
0.869 

> <ROCS_FitTverskyCombo>
2.663 

> <ROCS_ColorScore>
-8.702

> <ROCS_Overlap>
1683.338

> <ROCS_Rank>
150                 

$$$$
untitled-dbase-239727_0
  -OEChem-02092408543D

 25 26  0     1  0  0  0  0  0999 V2000
    8.6317   12.4046   24.8780 C   0  0  0  0  0  0  0  0  0  0  0  0
    7.7360   12.2772   23.6341 C   0  0  0  0  0  0  0  0  0  0  0  0
    8.7158    9.9841   25.7120 C   0  0  0  0  0  0  0  0  0  0  0  0
    7.2100    9.7697   23.6293 C   0  0  0  0  0  0  0  0  0  0  0  0
    9.4374   11.0989   24.9291 C   0  0  1  0  0  0  0  0  0  0  0  0
    8.0708   10.9033   23.0365 C   0  0  2  0  0  0  0  0  0  0  0  0
    7.3321    9.5858   25.1563 C   0  0  2  0  0  0  0  0  0  0  0  0
    9.5336   10.7367   23.4470 C   0  0  2  0  0  0  0  0  0  0  0  0
    6.2505   10.2949   25.8478 N   0  0  0  0  0  0  0  0  0  0  0  0
   10.0282    9.4350   23.2109 O   0  0  0  0  0  0  0  0  0  0  0  0
    9.3079   13.2585   24.7486 H   0  0  0  0  0  0  0  0  0  0  0  0
    8.0554   12.5856   25.7903 H   0  0  0  0  0  0  0  0  0  0  0  0
    6.6743   12.3920   23.8725 H   0  0  0  0  0  0  0  0  0  0  0  0
    7.9947   13.0694   22.9210 H   0  0  0  0  0  0  0  0  0  0  0  0
    9.3524    9.0889   25.6969 H   0  0  0  0  0  0  0  0  0  0  0  0
    8.6453   10.2656   26.7708 H   0  0  0  0  0  0  0  0  0  0  0  0
    6.1615    9.9117   23.3358 H   0  0  0  0  0  0  0  0  0  0  0  0
    7.5136    8.8270   23.1542 H   0  0  0  0  0  0  0  0  0  0  0  0
   10.4275   11.2537   25.3713 H   0  0  0  0  0  0  0  0  0  0  0  0
    7.9549   10.8992   21.9473 H   0  0  0  0  0  0  0  0  0  0  0  0
    7.1735    8.5000   25.3794 H   0  0  0  0  0  0  0  0  0  0  0  0
   10.1729   11.4502   22.9124 H   0  0  0  0  0  0  0  0  0  0  0  0
    6.6638   10.9203   26.4945 H   0  0  0  0  0  0  0  0  0  0  0  0
    5.7249   10.7831   25.1655 H   0  0  0  0  0  0  0  0  0  0  0  0
   10.0502    9.3046   22.2464 H   0  0  0  0  0  0  0  0  0  0  0  0
  1  2  1  0  0  0  0
  1  5  1  1  0  0  0
  2  6  1  1  0  0  0
  3  5  1  0  0  0  0
  3  7  1  0  0  0  0
  4  6  1  0  0  0  0
  4  7  1  0  0  0  0
  5  8  1  0  0  0  0
  6  8  1  0  0  0  0
  7  9  1  1  0  0  0
  8 10  1  6  0  0  0
  1 11  1  0  0  0  0
  1 12  1  0  0  0  0
  2 13  1  0  0  0  0
  2 14  1  0  0  0  0
  3 15  1  0  0  0  0
  3 16  1  0  0  0  0
  4 17  1  0  0  0  0
  4 18  1  0  0  0  0
  5 19  1  0  0  0  0
  6 20  1  0  0  0  0
  7 21  1  0  0  0  0
  8 22  1  0  0  0  0
  9 23  1  0  0  0  0
  9 24  1  0  0  0  0
 10 25  1  0  0  0  0
M  END
> <id>
EN300-7438931

> <smiles>
Cl.N[C@@H]1C[C@@H]2CC[C@H](C1)[C@@H]2O

> <MDLNUMBER>
MFCD32640604

> <IUPAC Name>
(1R,3S,5S,8R)-3-aminobicyclo[3.2.1]octan-8-ol hydrochloride

> <Purity>
95

> <URL>
https://www.enaminestore.com/catalog/EN300-7438931

> <Saltdate>
Cl

> <ROCS_ShapeQuery>
x0812_0A_x1140_0A_x1097_0A_x0365_0A_x1097_0A_x0310_0A

> <ROCS_TanimotoCombo>
0.718 

> <ROCS_ShapeTanimoto>
0.180 

> <ROCS_ColorTanimoto>
0.538 

> <ROCS_RefTversky>
0.167 

> <ROCS_RefColorTversky>
0.585 

> <ROCS_RefTverskyCombo>
0.752 

> <ROCS_FitTversky>
1.794 

> <ROCS_FitColorTversky>
0.869 

> <ROCS_FitTverskyCombo>
2.663 

> <ROCS_ColorScore>
-8.702

> <ROCS_Overlap>
1683.338

> <ROCS_Rank>
151                 

$$$$
untitled-dbase-148130_6
  -OEChem-02092408543D

 35 36  0     1  0  0  0  0  0999 V2000
    9.2795   10.0129   23.5807 C   0  0  0  0  0  0  0  0  0  0  0  0
   10.4916   12.0683   21.5948 C   0  0  0  0  0  0  0  0  0  0  0  0
    7.8747    9.5694   23.9289 C   0  0  0  0  0  0  0  0  0  0  0  0
    7.9573   11.3893   25.6830 C   0  0  0  0  0  0  0  0  0  0  0  0
    9.3892   11.7842   25.2586 C   0  0  0  0  0  0  0  0  0  0  0  0
    7.9367   11.8996   23.3559 C   0  0  0  0  0  0  0  0  0  0  0  0
    7.2974   10.9363   24.3615 C   0  0  1  0  0  0  0  0  0  0  0  0
    9.3669   11.5225   23.7485 C   0  0  2  0  0  0  0  0  0  0  0  0
    9.9781   14.4358   20.6063 C   0  0  0  0  0  0  0  0  0  0  0  0
   12.4489   14.8741   20.4943 C   0  0  0  0  0  0  0  0  0  0  0  0
   11.3775   13.3222   18.8354 C   0  0  0  0  0  0  0  0  0  0  0  0
   11.3457   13.8417   20.2720 C   0  0  0  0  0  0  0  0  0  0  0  0
   10.3989   12.1255   22.9842 N   0  0  0  0  0  0  0  0  0  0  0  0
   10.1930    9.2662   23.2670 O   0  0  0  0  0  0  0  0  0  0  0  0
    9.6946   11.4911   20.8625 O   0  0  0  0  0  0  0  0  0  0  0  0
   11.5955   12.7456   21.1589 O   0  0  0  0  0  0  0  0  0  0  0  0
    7.3791    9.1850   23.0339 H   0  0  0  0  0  0  0  0  0  0  0  0
    7.8759    8.8367   24.7384 H   0  0  0  0  0  0  0  0  0  0  0  0
    7.9575   10.6009   26.4421 H   0  0  0  0  0  0  0  0  0  0  0  0
    7.4370   12.2614   26.0952 H   0  0  0  0  0  0  0  0  0  0  0  0
    9.5670   12.8412   25.4870 H   0  0  0  0  0  0  0  0  0  0  0  0
   10.1381   11.1810   25.7829 H   0  0  0  0  0  0  0  0  0  0  0  0
    7.6819   11.6511   22.3191 H   0  0  0  0  0  0  0  0  0  0  0  0
    7.6943   12.9491   23.5559 H   0  0  0  0  0  0  0  0  0  0  0  0
    6.2060   10.9511   24.3941 H   0  0  0  0  0  0  0  0  0  0  0  0
    9.1835   13.6978   20.4481 H   0  0  0  0  0  0  0  0  0  0  0  0
    9.9309   14.7803   21.6445 H   0  0  0  0  0  0  0  0  0  0  0  0
    9.7486   15.2828   19.9497 H   0  0  0  0  0  0  0  0  0  0  0  0
   13.4318   14.4522   20.2556 H   0  0  0  0  0  0  0  0  0  0  0  0
   12.4913   15.1797   21.5459 H   0  0  0  0  0  0  0  0  0  0  0  0
   12.2964   15.7671   19.8796 H   0  0  0  0  0  0  0  0  0  0  0  0
   12.3583   12.8960   18.5953 H   0  0  0  0  0  0  0  0  0  0  0  0
   10.6163   12.5534   18.6676 H   0  0  0  0  0  0  0  0  0  0  0  0
   11.2118   14.1378   18.1223 H   0  0  0  0  0  0  0  0  0  0  0  0
   11.1297   12.6410   23.4908 H   0  0  0  0  0  0  0  0  0  0  0  0
  1  3  1  0  0  0  0
  1  8  1  0  0  0  0
  1 14  2  0  0  0  0
  2 13  1  0  0  0  0
  2 15  2  0  0  0  0
  2 16  1  0  0  0  0
  3  7  1  0  0  0  0
  4  5  1  0  0  0  0
  4  7  1  0  0  0  0
  5  8  1  0  0  0  0
  6  7  1  0  0  0  0
  6  8  1  0  0  0  0
  8 13  1  0  0  0  0
  9 12  1  0  0  0  0
 10 12  1  0  0  0  0
 11 12  1  0  0  0  0
 12 16  1  0  0  0  0
  3 17  1  0  0  0  0
  3 18  1  0  0  0  0
  4 19  1  0  0  0  0
  4 20  1  0  0  0  0
  5 21  1  0  0  0  0
  5 22  1  0  0  0  0
  6 23  1  0  0  0  0
  6 24  1  0  0  0  0
  7 25  1  0  0  0  0
  9 26  1  0  0  0  0
  9 27  1  0  0  0  0
  9 28  1  0  0  0  0
 10 29  1  0  0  0  0
 10 30  1  0  0  0  0
 10 31  1  0  0  0  0
 11 32  1  0  0  0  0
 11 33  1  0  0  0  0
 11 34  1  0  0  0  0
 13 35  1  0  0  0  0
M  END
> <id>
EN300-33158897

> <smiles>
CC(C)(C)OC(=O)NC1(CCC2CC1=O)C2

> <MDLNUMBER>
MFCD32220382

> <IUPAC Name>
tert-butyl N-{2-oxobicyclo[2.2.1]heptan-1-yl}carbamate

> <CAS>
2151859-12-8

> <Purity>
95

> <URL>
https://www.enaminestore.com/catalog/EN300-33158897

> <ROCS_ShapeQuery>
x0812_0A_x1140_0A_x1097_0A_x0365_0A_x1097_0A_x0310_0A

> <ROCS_TanimotoCombo>
0.718 

> <ROCS_ShapeTanimoto>
0.222 

> <ROCS_ColorTanimoto>
0.495 

> <ROCS_RefTversky>
0.204 

> <ROCS_RefColorTversky>
0.566 

> <ROCS_RefTverskyCombo>
0.770 

> <ROCS_FitTversky>
1.704 

> <ROCS_FitColorTversky>
0.798 

> <ROCS_FitTverskyCombo>
2.501 

> <ROCS_ColorScore>
-8.439

> <ROCS_Overlap>
2060.109

> <ROCS_Rank>
152                 

$$$$
untitled-dbase-559526_2
  -OEChem-02092408543D

 32 34  0     0  0  0  0  0  0999 V2000
    9.9676   12.0439   22.4752 C   0  0  0  0  0  0  0  0  0  0  0  0
    8.9291   11.9908   24.9528 C   0  0  0  0  0  0  0  0  0  0  0  0
    7.4940   11.6778   23.4597 C   0  0  0  0  0  0  0  0  0  0  0  0
    9.0152    8.9559   22.5727 C   0  0  0  0  0  0  0  0  0  0  0  0
   10.4478    9.2716   24.0650 C   0  0  0  0  0  0  0  0  0  0  0  0
    9.0490   11.3911   23.4941 C   0  0  0  0  0  0  0  0  0  0  0  0
    9.0547    9.8548   23.8117 C   0  0  0  0  0  0  0  0  0  0  0  0
    7.6350   11.0820   24.9182 C   0  0  0  0  0  0  0  0  0  0  0  0
    6.5414   11.2985   25.9246 C   0  0  0  0  0  0  0  0  0  0  0  0
   12.0763   14.9957   22.9538 C   0  0  0  0  0  0  0  0  0  0  0  0
   11.4811   13.8353   22.1851 C   0  0  0  0  0  0  0  0  0  0  0  0
   10.4801    8.8143   22.6637 N   0  0  0  0  0  0  0  0  0  0  0  0
   10.1155   11.6417   21.3291 O   0  0  0  0  0  0  0  0  0  0  0  0
    8.0358    9.6756   24.8277 O   0  0  0  0  0  0  0  0  0  0  0  0
   10.5813   13.1226   23.0398 O   0  0  0  0  0  0  0  0  0  0  0  0
    9.7003   11.6902   25.6681 H   0  0  0  0  0  0  0  0  0  0  0  0
    8.7735   13.0731   25.0272 H   0  0  0  0  0  0  0  0  0  0  0  0
    7.1902   12.7278   23.3798 H   0  0  0  0  0  0  0  0  0  0  0  0
    6.9042   11.0801   22.7586 H   0  0  0  0  0  0  0  0  0  0  0  0
    8.4724    8.0152   22.7232 H   0  0  0  0  0  0  0  0  0  0  0  0
    8.6640    9.4121   21.6427 H   0  0  0  0  0  0  0  0  0  0  0  0
   11.2398    9.9796   24.3257 H   0  0  0  0  0  0  0  0  0  0  0  0
   10.4611    8.4536   24.7950 H   0  0  0  0  0  0  0  0  0  0  0  0
    5.7162   10.5917   25.7687 H   0  0  0  0  0  0  0  0  0  0  0  0
    6.1324   12.3144   25.8502 H   0  0  0  0  0  0  0  0  0  0  0  0
    6.9138   11.1601   26.9478 H   0  0  0  0  0  0  0  0  0  0  0  0
   11.2950   15.6835   23.2889 H   0  0  0  0  0  0  0  0  0  0  0  0
   12.6299   14.6366   23.8276 H   0  0  0  0  0  0  0  0  0  0  0  0
   12.7884   15.5467   22.3304 H   0  0  0  0  0  0  0  0  0  0  0  0
   12.2677   13.1513   21.8529 H   0  0  0  0  0  0  0  0  0  0  0  0
   10.9277   14.1959   21.3129 H   0  0  0  0  0  0  0  0  0  0  0  0
   10.8288    7.8668   22.5294 H   0  0  0  0  0  0  0  0  0  0  0  0
  1  6  1  1  0  0  0
  1 13  2  0  0  0  0
  1 15  1  0  0  0  0
  2  6  1  0  0  0  0
  2  8  1  0  0  0  0
  3  6  1  0  0  0  0
  3  8  1  0  0  0  0
  4  7  1  0  0  0  0
  4 12  1  0  0  0  0
  5  7  1  0  0  0  0
  5 12  1  0  0  0  0
  6  7  1  0  0  0  0
  7 14  1  0  0  0  0
  8  9  1  1  0  0  0
  8 14  1  0  0  0  0
 10 11  1  0  0  0  0
 11 15  1  0  0  0  0
  2 16  1  0  0  0  0
  2 17  1  0  0  0  0
  3 18  1  0  0  0  0
  3 19  1  0  0  0  0
  4 20  1  0  0  0  0
  4 21  1  0  0  0  0
  5 22  1  0  0  0  0
  5 23  1  0  0  0  0
  9 24  1  0  0  0  0
  9 25  1  0  0  0  0
  9 26  1  0  0  0  0
 10 27  1  0  0  0  0
 10 28  1  0  0  0  0
 10 29  1  0  0  0  0
 11 30  1  0  0  0  0
 11 31  1  0  0  0  0
 12 32  1  0  0  0  0
M  END
> <id>
EN300-37375216

> <smiles>
Cl.CCOC(=O)[C@]1(C[C@@]2(C)C1)C3(CNC3)O2

> <IUPAC Name>
ethyl 4'-methyl-3'-oxaspiro[azetidine-3,2'-bicyclo[2.1.1]hexane]-1'-carboxylate hydrochloride

> <CAS>
2490398-60-0

> <URL>
https://www.enaminestore.com/catalog/EN300-37375216

> <ROCS_ShapeQuery>
x0812_0A_x1140_0A_x1097_0A_x0365_0A_x1097_0A_x0310_0A

> <ROCS_TanimotoCombo>
0.717 

> <ROCS_ShapeTanimoto>
0.263 

> <ROCS_ColorTanimoto>
0.454 

> <ROCS_RefTversky>
0.233 

> <ROCS_RefColorTversky>
0.562 

> <ROCS_RefTverskyCombo>
0.794 

> <ROCS_FitTversky>
2.011 

> <ROCS_FitColorTversky>
0.703 

> <ROCS_FitTverskyCombo>
2.714 

> <ROCS_ColorScore>
-8.408

> <ROCS_Overlap>
2352.991

> <ROCS_Rank>
153                 

$$$$
untitled-dbase-469603_2
  -OEChem-02092408543D

 32 34  0     0  0  0  0  0  0999 V2000
    9.9676   12.0439   22.4752 C   0  0  0  0  0  0  0  0  0  0  0  0
    8.9291   11.9908   24.9528 C   0  0  0  0  0  0  0  0  0  0  0  0
    7.4940   11.6778   23.4597 C   0  0  0  0  0  0  0  0  0  0  0  0
    9.0152    8.9559   22.5727 C   0  0  0  0  0  0  0  0  0  0  0  0
   10.4478    9.2716   24.0650 C   0  0  0  0  0  0  0  0  0  0  0  0
    9.0490   11.3911   23.4941 C   0  0  0  0  0  0  0  0  0  0  0  0
    9.0547    9.8548   23.8117 C   0  0  0  0  0  0  0  0  0  0  0  0
    7.6350   11.0820   24.9182 C   0  0  0  0  0  0  0  0  0  0  0  0
    6.5414   11.2985   25.9246 C   0  0  0  0  0  0  0  0  0  0  0  0
   12.0763   14.9957   22.9538 C   0  0  0  0  0  0  0  0  0  0  0  0
   11.4811   13.8353   22.1851 C   0  0  0  0  0  0  0  0  0  0  0  0
   10.4801    8.8143   22.6637 N   0  0  0  0  0  0  0  0  0  0  0  0
   10.1155   11.6417   21.3291 O   0  0  0  0  0  0  0  0  0  0  0  0
    8.0358    9.6756   24.8277 O   0  0  0  0  0  0  0  0  0  0  0  0
   10.5813   13.1226   23.0398 O   0  0  0  0  0  0  0  0  0  0  0  0
    9.7003   11.6902   25.6681 H   0  0  0  0  0  0  0  0  0  0  0  0
    8.7735   13.0731   25.0272 H   0  0  0  0  0  0  0  0  0  0  0  0
    7.1902   12.7278   23.3798 H   0  0  0  0  0  0  0  0  0  0  0  0
    6.9042   11.0801   22.7586 H   0  0  0  0  0  0  0  0  0  0  0  0
    8.4724    8.0152   22.7232 H   0  0  0  0  0  0  0  0  0  0  0  0
    8.6640    9.4121   21.6427 H   0  0  0  0  0  0  0  0  0  0  0  0
   11.2398    9.9796   24.3257 H   0  0  0  0  0  0  0  0  0  0  0  0
   10.4611    8.4536   24.7950 H   0  0  0  0  0  0  0  0  0  0  0  0
    5.7162   10.5917   25.7687 H   0  0  0  0  0  0  0  0  0  0  0  0
    6.1324   12.3144   25.8502 H   0  0  0  0  0  0  0  0  0  0  0  0
    6.9138   11.1601   26.9478 H   0  0  0  0  0  0  0  0  0  0  0  0
   11.2950   15.6835   23.2889 H   0  0  0  0  0  0  0  0  0  0  0  0
   12.6299   14.6366   23.8276 H   0  0  0  0  0  0  0  0  0  0  0  0
   12.7884   15.5467   22.3304 H   0  0  0  0  0  0  0  0  0  0  0  0
   12.2677   13.1513   21.8529 H   0  0  0  0  0  0  0  0  0  0  0  0
   10.9277   14.1959   21.3129 H   0  0  0  0  0  0  0  0  0  0  0  0
   10.8288    7.8668   22.5294 H   0  0  0  0  0  0  0  0  0  0  0  0
  1  6  1  1  0  0  0
  1 13  2  0  0  0  0
  1 15  1  0  0  0  0
  2  6  1  0  0  0  0
  2  8  1  0  0  0  0
  3  6  1  0  0  0  0
  3  8  1  0  0  0  0
  4  7  1  0  0  0  0
  4 12  1  0  0  0  0
  5  7  1  0  0  0  0
  5 12  1  0  0  0  0
  6  7  1  0  0  0  0
  7 14  1  0  0  0  0
  8  9  1  1  0  0  0
  8 14  1  0  0  0  0
 10 11  1  0  0  0  0
 11 15  1  0  0  0  0
  2 16  1  0  0  0  0
  2 17  1  0  0  0  0
  3 18  1  0  0  0  0
  3 19  1  0  0  0  0
  4 20  1  0  0  0  0
  4 21  1  0  0  0  0
  5 22  1  0  0  0  0
  5 23  1  0  0  0  0
  9 24  1  0  0  0  0
  9 25  1  0  0  0  0
  9 26  1  0  0  0  0
 10 27  1  0  0  0  0
 10 28  1  0  0  0  0
 10 29  1  0  0  0  0
 11 30  1  0  0  0  0
 11 31  1  0  0  0  0
 12 32  1  0  0  0  0
M  END
> <id>
EN300-39870122

> <smiles>
CCOC(=O)[C@]1(C[C@@]2(C)C1)C3(CNC3)O2

> <IUPAC Name>
ethyl 4'-methyl-3'-oxaspiro[azetidine-3,2'-bicyclo[2.1.1]hexane]-1'-carboxylate

> <URL>
https://www.enaminestore.com/catalog/EN300-39870122

> <ROCS_ShapeQuery>
x0812_0A_x1140_0A_x1097_0A_x0365_0A_x1097_0A_x0310_0A

> <ROCS_TanimotoCombo>
0.717 

> <ROCS_ShapeTanimoto>
0.263 

> <ROCS_ColorTanimoto>
0.454 

> <ROCS_RefTversky>
0.233 

> <ROCS_RefColorTversky>
0.562 

> <ROCS_RefTverskyCombo>
0.794 

> <ROCS_FitTversky>
2.011 

> <ROCS_FitColorTversky>
0.703 

> <ROCS_FitTverskyCombo>
2.714 

> <ROCS_ColorScore>
-8.408

> <ROCS_Overlap>
2352.991

> <ROCS_Rank>
154                 

$$$$
untitled-dbase-397226_2
  -OEChem-02092408543D

 32 34  0     0  0  0  0  0  0999 V2000
    9.9671   12.0448   22.4751 C   0  0  0  0  0  0  0  0  0  0  0  0
    8.9281   11.9913   24.9529 C   0  0  0  0  0  0  0  0  0  0  0  0
    7.4940   11.6771   23.4592 C   0  0  0  0  0  0  0  0  0  0  0  0
    9.0148    8.9573   22.5719 C   0  0  0  0  0  0  0  0  0  0  0  0
   10.4483    9.2713   24.0642 C   0  0  0  0  0  0  0  0  0  0  0  0
    9.0492   11.3916   23.4944 C   0  0  0  0  0  0  0  0  0  0  0  0
    9.0553    9.8553   23.8117 C   0  0  0  0  0  0  0  0  0  0  0  0
    7.6347   11.0815   24.9178 C   0  0  0  0  0  0  0  0  0  0  0  0
    6.5399   11.2974   25.9232 C   0  0  0  0  0  0  0  0  0  0  0  0
   12.0727   14.9991   22.9521 C   0  0  0  0  0  0  0  0  0  0  0  0
   11.4787   13.8376   22.1841 C   0  0  0  0  0  0  0  0  0  0  0  0
   10.4792    8.8124   22.6633 N   0  0  0  0  0  0  0  0  0  0  0  0
   10.1155   11.6420   21.3293 O   0  0  0  0  0  0  0  0  0  0  0  0
    8.0367    9.6756   24.8278 O   0  0  0  0  0  0  0  0  0  0  0  0
   10.5796   13.1245   23.0392 O   0  0  0  0  0  0  0  0  0  0  0  0
    9.6994   11.6912   25.6683 H   0  0  0  0  0  0  0  0  0  0  0  0
    8.7718   13.0736   25.0270 H   0  0  0  0  0  0  0  0  0  0  0  0
    7.1895   12.7269   23.3790 H   0  0  0  0  0  0  0  0  0  0  0  0
    6.9048   11.0789   22.7579 H   0  0  0  0  0  0  0  0  0  0  0  0
    8.4698    8.0177   22.7215 H   0  0  0  0  0  0  0  0  0  0  0  0
    8.6649    9.4148   21.6420 H   0  0  0  0  0  0  0  0  0  0  0  0
   11.2409    9.9790   24.3235 H   0  0  0  0  0  0  0  0  0  0  0  0
   10.4616    8.4540   24.7949 H   0  0  0  0  0  0  0  0  0  0  0  0
    5.7155   10.5897   25.7668 H   0  0  0  0  0  0  0  0  0  0  0  0
    6.1300   12.3128   25.8481 H   0  0  0  0  0  0  0  0  0  0  0  0
    6.9116   11.1596   26.9468 H   0  0  0  0  0  0  0  0  0  0  0  0
   11.2906   15.6863   23.2869 H   0  0  0  0  0  0  0  0  0  0  0  0
   12.6266   14.6411   23.8262 H   0  0  0  0  0  0  0  0  0  0  0  0
   12.7841   15.5506   22.3285 H   0  0  0  0  0  0  0  0  0  0  0  0
   12.2661   13.1543   21.8522 H   0  0  0  0  0  0  0  0  0  0  0  0
   10.9250   14.1972   21.3117 H   0  0  0  0  0  0  0  0  0  0  0  0
   10.8256    7.8640   22.5300 H   0  0  0  0  0  0  0  0  0  0  0  0
  1  6  1  0  0  0  0
  1 13  2  0  0  0  0
  1 15  1  0  0  0  0
  2  6  1  0  0  0  0
  2  8  1  0  0  0  0
  3  6  1  0  0  0  0
  3  8  1  0  0  0  0
  4  7  1  0  0  0  0
  4 12  1  0  0  0  0
  5  7  1  0  0  0  0
  5 12  1  0  0  0  0
  6  7  1  0  0  0  0
  7 14  1  0  0  0  0
  8  9  1  0  0  0  0
  8 14  1  0  0  0  0
 10 11  1  0  0  0  0
 11 15  1  0  0  0  0
  2 16  1  0  0  0  0
  2 17  1  0  0  0  0
  3 18  1  0  0  0  0
  3 19  1  0  0  0  0
  4 20  1  0  0  0  0
  4 21  1  0  0  0  0
  5 22  1  0  0  0  0
  5 23  1  0  0  0  0
  9 24  1  0  0  0  0
  9 25  1  0  0  0  0
  9 26  1  0  0  0  0
 10 27  1  0  0  0  0
 10 28  1  0  0  0  0
 10 29  1  0  0  0  0
 11 30  1  0  0  0  0
 11 31  1  0  0  0  0
 12 32  1  0  0  0  0
M  END
> <id>
EN300-1719234

> <smiles>
CCOC(=O)C1(CC2(C)C1)C3(CNC3)O2

> <MDLNUMBER>
MFCD31690338

> <IUPAC Name>
ethyl 4'-methyl-3'-oxaspiro[azetidine-3,2'-bicyclo[2.1.1]hexane]-1'-carboxylate

> <CAS>
2490398-59-7

> <URL>
https://www.enaminestore.com/catalog/EN300-1719234

> <ROCS_ShapeQuery>
x0812_0A_x1140_0A_x1097_0A_x0365_0A_x1097_0A_x0310_0A

> <ROCS_TanimotoCombo>
0.717 

> <ROCS_ShapeTanimoto>
0.263 

> <ROCS_ColorTanimoto>
0.454 

> <ROCS_RefTversky>
0.233 

> <ROCS_RefColorTversky>
0.562 

> <ROCS_RefTverskyCombo>
0.794 

> <ROCS_FitTversky>
2.011 

> <ROCS_FitColorTversky>
0.703 

> <ROCS_FitTverskyCombo>
2.714 

> <ROCS_ColorScore>
-8.408

> <ROCS_Overlap>
2352.888

> <ROCS_Rank>
155                 

$$$$
untitled-dbase-393101_2
  -OEChem-02092408543D

 32 34  0     0  0  0  0  0  0999 V2000
    9.9671   12.0448   22.4751 C   0  0  0  0  0  0  0  0  0  0  0  0
    8.9281   11.9913   24.9529 C   0  0  0  0  0  0  0  0  0  0  0  0
    7.4940   11.6771   23.4592 C   0  0  0  0  0  0  0  0  0  0  0  0
    9.0148    8.9573   22.5719 C   0  0  0  0  0  0  0  0  0  0  0  0
   10.4483    9.2713   24.0642 C   0  0  0  0  0  0  0  0  0  0  0  0
    9.0492   11.3916   23.4944 C   0  0  0  0  0  0  0  0  0  0  0  0
    9.0553    9.8553   23.8117 C   0  0  0  0  0  0  0  0  0  0  0  0
    7.6347   11.0815   24.9178 C   0  0  0  0  0  0  0  0  0  0  0  0
    6.5399   11.2974   25.9232 C   0  0  0  0  0  0  0  0  0  0  0  0
   12.0727   14.9991   22.9521 C   0  0  0  0  0  0  0  0  0  0  0  0
   11.4787   13.8376   22.1841 C   0  0  0  0  0  0  0  0  0  0  0  0
   10.4792    8.8124   22.6633 N   0  0  0  0  0  0  0  0  0  0  0  0
   10.1155   11.6420   21.3293 O   0  0  0  0  0  0  0  0  0  0  0  0
    8.0367    9.6756   24.8278 O   0  0  0  0  0  0  0  0  0  0  0  0
   10.5796   13.1245   23.0392 O   0  0  0  0  0  0  0  0  0  0  0  0
    9.6994   11.6912   25.6683 H   0  0  0  0  0  0  0  0  0  0  0  0
    8.7718   13.0736   25.0270 H   0  0  0  0  0  0  0  0  0  0  0  0
    7.1895   12.7269   23.3790 H   0  0  0  0  0  0  0  0  0  0  0  0
    6.9048   11.0789   22.7579 H   0  0  0  0  0  0  0  0  0  0  0  0
    8.4698    8.0177   22.7215 H   0  0  0  0  0  0  0  0  0  0  0  0
    8.6649    9.4148   21.6420 H   0  0  0  0  0  0  0  0  0  0  0  0
   11.2409    9.9790   24.3235 H   0  0  0  0  0  0  0  0  0  0  0  0
   10.4616    8.4540   24.7949 H   0  0  0  0  0  0  0  0  0  0  0  0
    5.7155   10.5897   25.7668 H   0  0  0  0  0  0  0  0  0  0  0  0
    6.1300   12.3128   25.8481 H   0  0  0  0  0  0  0  0  0  0  0  0
    6.9116   11.1596   26.9468 H   0  0  0  0  0  0  0  0  0  0  0  0
   11.2906   15.6863   23.2869 H   0  0  0  0  0  0  0  0  0  0  0  0
   12.6266   14.6411   23.8262 H   0  0  0  0  0  0  0  0  0  0  0  0
   12.7841   15.5506   22.3285 H   0  0  0  0  0  0  0  0  0  0  0  0
   12.2661   13.1543   21.8522 H   0  0  0  0  0  0  0  0  0  0  0  0
   10.9250   14.1972   21.3117 H   0  0  0  0  0  0  0  0  0  0  0  0
   10.8256    7.8640   22.5300 H   0  0  0  0  0  0  0  0  0  0  0  0
  1  6  1  0  0  0  0
  1 13  2  0  0  0  0
  1 15  1  0  0  0  0
  2  6  1  0  0  0  0
  2  8  1  0  0  0  0
  3  6  1  0  0  0  0
  3  8  1  0  0  0  0
  4  7  1  0  0  0  0
  4 12  1  0  0  0  0
  5  7  1  0  0  0  0
  5 12  1  0  0  0  0
  6  7  1  0  0  0  0
  7 14  1  0  0  0  0
  8  9  1  0  0  0  0
  8 14  1  0  0  0  0
 10 11  1  0  0  0  0
 11 15  1  0  0  0  0
  2 16  1  0  0  0  0
  2 17  1  0  0  0  0
  3 18  1  0  0  0  0
  3 19  1  0  0  0  0
  4 20  1  0  0  0  0
  4 21  1  0  0  0  0
  5 22  1  0  0  0  0
  5 23  1  0  0  0  0
  9 24  1  0  0  0  0
  9 25  1  0  0  0  0
  9 26  1  0  0  0  0
 10 27  1  0  0  0  0
 10 28  1  0  0  0  0
 10 29  1  0  0  0  0
 11 30  1  0  0  0  0
 11 31  1  0  0  0  0
 12 32  1  0  0  0  0
M  END
> <id>
EN300-1719233

> <smiles>
Cl.CCOC(=O)C1(CC2(C)C1)C3(CNC3)O2

> <MDLNUMBER>
MFCD31665932

> <IUPAC Name>
ethyl 4'-methyl-3'-oxaspiro[azetidine-3,2'-bicyclo[2.1.1]hexane]-1'-carboxylate hydrochloride

> <CAS>
2490398-60-0

> <Purity>
95

> <URL>
https://www.enaminestore.com/catalog/EN300-1719233

> <Saltdate>
Cl

> <ROCS_ShapeQuery>
x0812_0A_x1140_0A_x1097_0A_x0365_0A_x1097_0A_x0310_0A

> <ROCS_TanimotoCombo>
0.717 

> <ROCS_ShapeTanimoto>
0.263 

> <ROCS_ColorTanimoto>
0.454 

> <ROCS_RefTversky>
0.233 

> <ROCS_RefColorTversky>
0.562 

> <ROCS_RefTverskyCombo>
0.794 

> <ROCS_FitTversky>
2.011 

> <ROCS_FitColorTversky>
0.703 

> <ROCS_FitTverskyCombo>
2.714 

> <ROCS_ColorScore>
-8.408

> <ROCS_Overlap>
2352.888

> <ROCS_Rank>
156                 

$$$$
untitled-dbase-165815_2
  -OEChem-02092408543D

 31 33  0     0  0  0  0  0  0999 V2000
    9.9450   12.0894   22.4647 C   0  0  0  0  0  0  0  0  0  0  0  0
    8.9221   11.9979   24.9446 C   0  0  0  0  0  0  0  0  0  0  0  0
    7.4863   11.6665   23.4560 C   0  0  0  0  0  0  0  0  0  0  0  0
    9.0598    8.9896   22.5544 C   0  0  0  0  0  0  0  0  0  0  0  0
   10.4762    9.3171   24.0228 C   0  0  0  0  0  0  0  0  0  0  0  0
    9.0458   11.4058   23.4834 C   0  0  0  0  0  0  0  0  0  0  0  0
    9.0784    9.8733   23.7933 C   0  0  0  0  0  0  0  0  0  0  0  0
    7.6435   11.0664   24.9117 C   0  0  0  0  0  0  0  0  0  0  0  0
   11.9820   15.0889   22.9572 C   0  0  0  0  0  0  0  0  0  0  0  0
    6.5503   11.2583   25.9232 C   0  0  0  0  0  0  0  0  0  0  0  0
   11.4126   13.9197   22.1822 C   0  0  0  0  0  0  0  0  0  0  0  0
   10.0983   11.6992   21.3152 O   0  0  0  0  0  0  0  0  0  0  0  0
   10.4405    8.6031   22.7628 O   0  0  0  0  0  0  0  0  0  0  0  0
    8.0696    9.6678   24.8121 O   0  0  0  0  0  0  0  0  0  0  0  0
   10.5340   13.1788   23.0350 O   0  0  0  0  0  0  0  0  0  0  0  0
    4.7260   10.3501   25.2773 I   0  0  0  0  0  0  0  0  0  0  0  0
    9.7022   11.7072   25.6544 H   0  0  0  0  0  0  0  0  0  0  0  0
    8.7480   13.0770   25.0248 H   0  0  0  0  0  0  0  0  0  0  0  0
    7.1640   12.7116   23.3824 H   0  0  0  0  0  0  0  0  0  0  0  0
    6.9046   11.0616   22.7540 H   0  0  0  0  0  0  0  0  0  0  0  0
    8.3945    8.1223   22.6088 H   0  0  0  0  0  0  0  0  0  0  0  0
    8.9223    9.4890   21.5912 H   0  0  0  0  0  0  0  0  0  0  0  0
   11.2975   10.0387   24.0545 H   0  0  0  0  0  0  0  0  0  0  0  0
   10.5719    8.6254   24.8658 H   0  0  0  0  0  0  0  0  0  0  0  0
   11.1852   15.7547   23.3003 H   0  0  0  0  0  0  0  0  0  0  0  0
   12.5476   14.7372   23.8262 H   0  0  0  0  0  0  0  0  0  0  0  0
   12.6777   15.6619   22.3352 H   0  0  0  0  0  0  0  0  0  0  0  0
    6.3756   12.3311   26.0998 H   0  0  0  0  0  0  0  0  0  0  0  0
    6.8445   10.8265   26.8924 H   0  0  0  0  0  0  0  0  0  0  0  0
   12.2146   13.2578   21.8420 H   0  0  0  0  0  0  0  0  0  0  0  0
   10.8471   14.2728   21.3148 H   0  0  0  0  0  0  0  0  0  0  0  0
  1  6  1  0  0  0  0
  1 12  2  0  0  0  0
  1 15  1  0  0  0  0
  2  6  1  0  0  0  0
  2  8  1  0  0  0  0
  3  6  1  0  0  0  0
  3  8  1  0  0  0  0
  4  7  1  0  0  0  0
  4 13  1  0  0  0  0
  5  7  1  0  0  0  0
  5 13  1  0  0  0  0
  6  7  1  0  0  0  0
  7 14  1  0  0  0  0
  8 10  1  0  0  0  0
  8 14  1  0  0  0  0
  9 11  1  0  0  0  0
 10 16  1  0  0  0  0
 11 15  1  0  0  0  0
  2 17  1  0  0  0  0
  2 18  1  0  0  0  0
  3 19  1  0  0  0  0
  3 20  1  0  0  0  0
  4 21  1  0  0  0  0
  4 22  1  0  0  0  0
  5 23  1  0  0  0  0
  5 24  1  0  0  0  0
  9 25  1  0  0  0  0
  9 26  1  0  0  0  0
  9 27  1  0  0  0  0
 10 28  1  0  0  0  0
 10 29  1  0  0  0  0
 11 30  1  0  0  0  0
 11 31  1  0  0  0  0
M  END
> <id>
EN300-1709262

> <smiles>
CCOC(=O)C1(CC2(CI)C1)C3(COC3)O2

> <MDLNUMBER>
MFCD31665835

> <IUPAC Name>
ethyl 4-(iodomethyl)-3-oxaspiro[bicyclo[2.1.1]hexane-2,3'-oxetane]-1-carboxylate

> <CAS>
2490375-70-5

> <Purity>
95

> <URL>
https://www.enaminestore.com/catalog/EN300-1709262

> <ROCS_ShapeQuery>
x0812_0A_x1140_0A_x1097_0A_x0365_0A_x1097_0A_x0310_0A

> <ROCS_TanimotoCombo>
0.717 

> <ROCS_ShapeTanimoto>
0.267 

> <ROCS_ColorTanimoto>
0.451 

> <ROCS_RefTversky>
0.236 

> <ROCS_RefColorTversky>
0.559 

> <ROCS_RefTverskyCombo>
0.794 

> <ROCS_FitTversky>
1.991 

> <ROCS_FitColorTversky>
0.699 

> <ROCS_FitTverskyCombo>
2.690 

> <ROCS_ColorScore>
-8.363

> <ROCS_Overlap>
2383.579

> <ROCS_Rank>
157                 

$$$$
untitled-dbase-567444_2
  -OEChem-02092408543D

 31 33  0     0  0  0  0  0  0999 V2000
    9.9447   12.0899   22.4646 C   0  0  0  0  0  0  0  0  0  0  0  0
    8.9220   11.9978   24.9447 C   0  0  0  0  0  0  0  0  0  0  0  0
    7.4864   11.6664   23.4561 C   0  0  0  0  0  0  0  0  0  0  0  0
    9.0606    8.9902   22.5541 C   0  0  0  0  0  0  0  0  0  0  0  0
   10.4764    9.3173   24.0232 C   0  0  0  0  0  0  0  0  0  0  0  0
    9.0459   11.4060   23.4836 C   0  0  0  0  0  0  0  0  0  0  0  0
    9.0787    9.8736   23.7932 C   0  0  0  0  0  0  0  0  0  0  0  0
    7.6435   11.0662   24.9115 C   0  0  0  0  0  0  0  0  0  0  0  0
   11.9804   15.0904   22.9562 C   0  0  0  0  0  0  0  0  0  0  0  0
    6.5505   11.2578   25.9237 C   0  0  0  0  0  0  0  0  0  0  0  0
   11.4115   13.9208   22.1815 C   0  0  0  0  0  0  0  0  0  0  0  0
   10.0981   11.6996   21.3151 O   0  0  0  0  0  0  0  0  0  0  0  0
   10.4404    8.6018   22.7641 O   0  0  0  0  0  0  0  0  0  0  0  0
    8.0697    9.6678   24.8117 O   0  0  0  0  0  0  0  0  0  0  0  0
   10.5333   13.1797   23.0346 O   0  0  0  0  0  0  0  0  0  0  0  0
    4.7260   10.3499   25.2780 I   0  0  0  0  0  0  0  0  0  0  0  0
    9.7020   11.7071   25.6548 H   0  0  0  0  0  0  0  0  0  0  0  0
    8.7475   13.0768   25.0250 H   0  0  0  0  0  0  0  0  0  0  0  0
    7.1635   12.7111   23.3824 H   0  0  0  0  0  0  0  0  0  0  0  0
    6.9048   11.0614   22.7541 H   0  0  0  0  0  0  0  0  0  0  0  0
    8.3940    8.1237   22.6073 H   0  0  0  0  0  0  0  0  0  0  0  0
    8.9246    9.4900   21.5909 H   0  0  0  0  0  0  0  0  0  0  0  0
   11.2982   10.0383   24.0535 H   0  0  0  0  0  0  0  0  0  0  0  0
   10.5717    8.6269   24.8672 H   0  0  0  0  0  0  0  0  0  0  0  0
   11.1834   15.7559   23.2993 H   0  0  0  0  0  0  0  0  0  0  0  0
   12.5464   14.7391   23.8252 H   0  0  0  0  0  0  0  0  0  0  0  0
   12.6758   15.6636   22.3340 H   0  0  0  0  0  0  0  0  0  0  0  0
    6.3761   12.3305   26.1006 H   0  0  0  0  0  0  0  0  0  0  0  0
    6.8452   10.8255   26.8925 H   0  0  0  0  0  0  0  0  0  0  0  0
   12.2137   13.2593   21.8413 H   0  0  0  0  0  0  0  0  0  0  0  0
   10.8457   14.2736   21.3141 H   0  0  0  0  0  0  0  0  0  0  0  0
  1  6  1  1  0  0  0
  1 12  2  0  0  0  0
  1 15  1  0  0  0  0
  2  6  1  0  0  0  0
  2  8  1  0  0  0  0
  3  6  1  0  0  0  0
  3  8  1  0  0  0  0
  4  7  1  0  0  0  0
  4 13  1  0  0  0  0
  5  7  1  0  0  0  0
  5 13  1  0  0  0  0
  6  7  1  0  0  0  0
  7 14  1  0  0  0  0
  8 10  1  1  0  0  0
  8 14  1  0  0  0  0
  9 11  1  0  0  0  0
 10 16  1  0  0  0  0
 11 15  1  0  0  0  0
  2 17  1  0  0  0  0
  2 18  1  0  0  0  0
  3 19  1  0  0  0  0
  3 20  1  0  0  0  0
  4 21  1  0  0  0  0
  4 22  1  0  0  0  0
  5 23  1  0  0  0  0
  5 24  1  0  0  0  0
  9 25  1  0  0  0  0
  9 26  1  0  0  0  0
  9 27  1  0  0  0  0
 10 28  1  0  0  0  0
 10 29  1  0  0  0  0
 11 30  1  0  0  0  0
 11 31  1  0  0  0  0
M  END
> <id>
EN300-37375203

> <smiles>
CCOC(=O)[C@]1(C[C@@]2(CI)C1)C3(COC3)O2

> <IUPAC Name>
ethyl 4-(iodomethyl)-3-oxaspiro[bicyclo[2.1.1]hexane-2,3'-oxetane]-1-carboxylate

> <CAS>
2490375-70-5

> <URL>
https://www.enaminestore.com/catalog/EN300-37375203

> <ROCS_ShapeQuery>
x0812_0A_x1140_0A_x1097_0A_x0365_0A_x1097_0A_x0310_0A

> <ROCS_TanimotoCombo>
0.717 

> <ROCS_ShapeTanimoto>
0.267 

> <ROCS_ColorTanimoto>
0.451 

> <ROCS_RefTversky>
0.236 

> <ROCS_RefColorTversky>
0.559 

> <ROCS_RefTverskyCombo>
0.794 

> <ROCS_FitTversky>
1.991 

> <ROCS_FitColorTversky>
0.699 

> <ROCS_FitTverskyCombo>
2.690 

> <ROCS_ColorScore>
-8.363

> <ROCS_Overlap>
2383.483

> <ROCS_Rank>
158                 

$$$$
untitled-dbase-153727_0
  -OEChem-02092408543D

 35 37  0     0  0  0  0  0  0999 V2000
   12.2325   15.5270   22.5374 C   0  0  0  0  0  0  0  0  0  0  0  0
    7.9730   11.5462   25.8487 C   0  0  0  0  0  0  0  0  0  0  0  0
    8.4698    9.3112   24.8254 C   0  0  0  0  0  0  0  0  0  0  0  0
    6.6542   10.7524   23.8686 C   0  0  0  0  0  0  0  0  0  0  0  0
   10.1026   11.1972   24.5717 C   0  0  0  0  0  0  0  0  0  0  0  0
    8.2850   12.6399   23.6140 C   0  0  0  0  0  0  0  0  0  0  0  0
    8.7821   10.4015   22.5887 C   0  0  0  0  0  0  0  0  0  0  0  0
    9.0864   10.5375   25.5197 C   0  0  0  0  0  0  0  0  0  0  0  0
    7.2614   11.9861   24.5581 C   0  0  0  0  0  0  0  0  0  0  0  0
    7.7606    9.7391   23.5293 C   0  0  0  0  0  0  0  0  0  0  0  0
    9.4096   11.6402   23.2640 C   0  0  0  0  0  0  0  0  0  0  0  0
   11.9537   14.1328   22.1626 C   0  0  0  0  0  0  0  0  0  0  0  0
   10.6345   13.6384   22.7466 C   0  0  0  0  0  0  0  0  0  0  0  0
   12.4544   16.6272   22.8320 N   0  0  0  0  0  0  0  0  0  0  0  0
   10.3849   12.2559   22.3674 N   0  0  0  0  0  0  0  0  0  0  0  0
    7.2503   11.0940   26.5391 H   0  0  0  0  0  0  0  0  0  0  0  0
    8.3977   12.4195   26.3589 H   0  0  0  0  0  0  0  0  0  0  0  0
    9.2518    8.5759   24.5995 H   0  0  0  0  0  0  0  0  0  0  0  0
    7.7560    8.8198   25.4980 H   0  0  0  0  0  0  0  0  0  0  0  0
    5.9083   10.2865   24.5242 H   0  0  0  0  0  0  0  0  0  0  0  0
    6.1297   11.0544   22.9538 H   0  0  0  0  0  0  0  0  0  0  0  0
   10.5645   12.0586   25.0724 H   0  0  0  0  0  0  0  0  0  0  0  0
   10.9136   10.4895   24.3539 H   0  0  0  0  0  0  0  0  0  0  0  0
    7.7767   12.9793   22.7017 H   0  0  0  0  0  0  0  0  0  0  0  0
    8.7036   13.5357   24.0918 H   0  0  0  0  0  0  0  0  0  0  0  0
    9.5611    9.6745   22.3232 H   0  0  0  0  0  0  0  0  0  0  0  0
    8.2854   10.6856   21.6513 H   0  0  0  0  0  0  0  0  0  0  0  0
    9.5885   10.2265   26.4426 H   0  0  0  0  0  0  0  0  0  0  0  0
    6.4685   12.7030   24.7988 H   0  0  0  0  0  0  0  0  0  0  0  0
    7.3219    8.8620   23.0408 H   0  0  0  0  0  0  0  0  0  0  0  0
   12.7662   13.4969   22.5329 H   0  0  0  0  0  0  0  0  0  0  0  0
   11.9450   14.0393   21.0703 H   0  0  0  0  0  0  0  0  0  0  0  0
   10.6725   13.6972   23.8393 H   0  0  0  0  0  0  0  0  0  0  0  0
    9.7998   14.2631   22.4098 H   0  0  0  0  0  0  0  0  0  0  0  0
   11.2556   11.7299   22.4136 H   0  0  0  0  0  0  0  0  0  0  0  0
  1 12  1  0  0  0  0
  1 14  3  0  0  0  0
  2  8  1  0  0  0  0
  2  9  1  0  0  0  0
  3  8  1  0  0  0  0
  3 10  1  0  0  0  0
  4  9  1  0  0  0  0
  4 10  1  0  0  0  0
  5  8  1  0  0  0  0
  5 11  1  0  0  0  0
  6  9  1  0  0  0  0
  6 11  1  0  0  0  0
  7 10  1  0  0  0  0
  7 11  1  0  0  0  0
 11 15  1  0  0  0  0
 12 13  1  0  0  0  0
 13 15  1  0  0  0  0
  2 16  1  0  0  0  0
  2 17  1  0  0  0  0
  3 18  1  0  0  0  0
  3 19  1  0  0  0  0
  4 20  1  0  0  0  0
  4 21  1  0  0  0  0
  5 22  1  0  0  0  0
  5 23  1  0  0  0  0
  6 24  1  0  0  0  0
  6 25  1  0  0  0  0
  7 26  1  0  0  0  0
  7 27  1  0  0  0  0
  8 28  1  0  0  0  0
  9 29  1  0  0  0  0
 10 30  1  0  0  0  0
 12 31  1  0  0  0  0
 12 32  1  0  0  0  0
 13 33  1  0  0  0  0
 13 34  1  0  0  0  0
 15 35  1  0  0  0  0
M  END
> <id>
EN300-04473

> <smiles>
N#CCCNC1(CC2CC3CC(C2)C1)C3

> <MDLNUMBER>
MFCD03964659

> <IUPAC Name>
3-[(adamantan-1-yl)amino]propanenitrile

> <CAS>
32901-14-7

> <URL>
https://www.enaminestore.com/catalog/EN300-04473

> <ROCS_ShapeQuery>
x0812_0A_x1140_0A_x1097_0A_x0365_0A_x1097_0A_x0310_0A

> <ROCS_TanimotoCombo>
0.717 

> <ROCS_ShapeTanimoto>
0.232 

> <ROCS_ColorTanimoto>
0.485 

> <ROCS_RefTversky>
0.210 

> <ROCS_RefColorTversky>
0.541 

> <ROCS_RefTverskyCombo>
0.751 

> <ROCS_FitTversky>
1.834 

> <ROCS_FitColorTversky>
0.824 

> <ROCS_FitTverskyCombo>
2.658 

> <ROCS_ColorScore>
-8.037

> <ROCS_Overlap>
2120.581

> <ROCS_Rank>
159                 

$$$$
untitled-dbase-81957_0
  -OEChem-02092408543D

 35 37  0     0  0  0  0  0  0999 V2000
   12.2325   15.5270   22.5374 C   0  0  0  0  0  0  0  0  0  0  0  0
    7.9730   11.5462   25.8487 C   0  0  0  0  0  0  0  0  0  0  0  0
    8.4698    9.3112   24.8254 C   0  0  0  0  0  0  0  0  0  0  0  0
    6.6542   10.7524   23.8686 C   0  0  0  0  0  0  0  0  0  0  0  0
   10.1026   11.1972   24.5717 C   0  0  0  0  0  0  0  0  0  0  0  0
    8.2850   12.6399   23.6140 C   0  0  0  0  0  0  0  0  0  0  0  0
    8.7821   10.4015   22.5887 C   0  0  0  0  0  0  0  0  0  0  0  0
    9.0864   10.5375   25.5197 C   0  0  0  0  0  0  0  0  0  0  0  0
    7.2614   11.9861   24.5581 C   0  0  0  0  0  0  0  0  0  0  0  0
    7.7606    9.7391   23.5293 C   0  0  0  0  0  0  0  0  0  0  0  0
    9.4096   11.6402   23.2640 C   0  0  0  0  0  0  0  0  0  0  0  0
   11.9537   14.1328   22.1626 C   0  0  0  0  0  0  0  0  0  0  0  0
   10.6345   13.6384   22.7466 C   0  0  0  0  0  0  0  0  0  0  0  0
   12.4544   16.6272   22.8320 N   0  0  0  0  0  0  0  0  0  0  0  0
   10.3849   12.2559   22.3674 N   0  0  0  0  0  0  0  0  0  0  0  0
    7.2503   11.0940   26.5391 H   0  0  0  0  0  0  0  0  0  0  0  0
    8.3977   12.4195   26.3589 H   0  0  0  0  0  0  0  0  0  0  0  0
    9.2518    8.5759   24.5995 H   0  0  0  0  0  0  0  0  0  0  0  0
    7.7560    8.8198   25.4980 H   0  0  0  0  0  0  0  0  0  0  0  0
    5.9083   10.2865   24.5242 H   0  0  0  0  0  0  0  0  0  0  0  0
    6.1297   11.0544   22.9538 H   0  0  0  0  0  0  0  0  0  0  0  0
   10.5645   12.0586   25.0724 H   0  0  0  0  0  0  0  0  0  0  0  0
   10.9136   10.4895   24.3539 H   0  0  0  0  0  0  0  0  0  0  0  0
    7.7767   12.9793   22.7017 H   0  0  0  0  0  0  0  0  0  0  0  0
    8.7036   13.5357   24.0918 H   0  0  0  0  0  0  0  0  0  0  0  0
    9.5611    9.6745   22.3232 H   0  0  0  0  0  0  0  0  0  0  0  0
    8.2854   10.6856   21.6513 H   0  0  0  0  0  0  0  0  0  0  0  0
    9.5885   10.2265   26.4426 H   0  0  0  0  0  0  0  0  0  0  0  0
    6.4685   12.7030   24.7988 H   0  0  0  0  0  0  0  0  0  0  0  0
    7.3219    8.8620   23.0408 H   0  0  0  0  0  0  0  0  0  0  0  0
   12.7662   13.4969   22.5329 H   0  0  0  0  0  0  0  0  0  0  0  0
   11.9450   14.0393   21.0703 H   0  0  0  0  0  0  0  0  0  0  0  0
   10.6725   13.6972   23.8393 H   0  0  0  0  0  0  0  0  0  0  0  0
    9.7998   14.2631   22.4098 H   0  0  0  0  0  0  0  0  0  0  0  0
   11.2556   11.7299   22.4136 H   0  0  0  0  0  0  0  0  0  0  0  0
  1 12  1  0  0  0  0
  1 14  3  0  0  0  0
  2  8  1  0  0  0  0
  2  9  1  0  0  0  0
  3  8  1  0  0  0  0
  3 10  1  0  0  0  0
  4  9  1  0  0  0  0
  4 10  1  0  0  0  0
  5  8  1  0  0  0  0
  5 11  1  0  0  0  0
  6  9  1  0  0  0  0
  6 11  1  0  0  0  0
  7 10  1  0  0  0  0
  7 11  1  0  0  0  0
 11 15  1  0  0  0  0
 12 13  1  0  0  0  0
 13 15  1  0  0  0  0
  2 16  1  0  0  0  0
  2 17  1  0  0  0  0
  3 18  1  0  0  0  0
  3 19  1  0  0  0  0
  4 20  1  0  0  0  0
  4 21  1  0  0  0  0
  5 22  1  0  0  0  0
  5 23  1  0  0  0  0
  6 24  1  0  0  0  0
  6 25  1  0  0  0  0
  7 26  1  0  0  0  0
  7 27  1  0  0  0  0
  8 28  1  0  0  0  0
  9 29  1  0  0  0  0
 10 30  1  0  0  0  0
 12 31  1  0  0  0  0
 12 32  1  0  0  0  0
 13 33  1  0  0  0  0
 13 34  1  0  0  0  0
 15 35  1  0  0  0  0
M  END
> <id>
EN300-35241

> <smiles>
Cl.N#CCCNC1(CC2CC3CC(C2)C1)C3

> <IUPAC Name>
3-[(adamantan-1-yl)amino]propanenitrile hydrochloride

> <CAS>
81099-47-0

> <Purity>
95

> <URL>
https://www.enaminestore.com/catalog/EN300-35241

> <Saltdate>
Cl

> <ROCS_ShapeQuery>
x0812_0A_x1140_0A_x1097_0A_x0365_0A_x1097_0A_x0310_0A

> <ROCS_TanimotoCombo>
0.717 

> <ROCS_ShapeTanimoto>
0.232 

> <ROCS_ColorTanimoto>
0.485 

> <ROCS_RefTversky>
0.210 

> <ROCS_RefColorTversky>
0.541 

> <ROCS_RefTverskyCombo>
0.751 

> <ROCS_FitTversky>
1.834 

> <ROCS_FitColorTversky>
0.824 

> <ROCS_FitTverskyCombo>
2.658 

> <ROCS_ColorScore>
-8.037

> <ROCS_Overlap>
2120.581

> <ROCS_Rank>
160                 

$$$$
untitled-dbase-472327_3
  -OEChem-02092408543D

 37 39  0     1  0  0  0  0  0999 V2000
    9.1393    9.5448   24.3283 C   0  0  0  0  0  0  0  0  0  0  0  0
    8.6841    9.8905   23.1134 C   0  0  0  0  0  0  0  0  0  0  0  0
   10.0515   12.5642   22.6067 C   0  0  0  0  0  0  0  0  0  0  0  0
    7.3226   10.7647   25.4653 C   0  0  0  0  0  0  0  0  0  0  0  0
    6.7942   11.1462   24.0611 C   0  0  0  0  0  0  0  0  0  0  0  0
   13.4072   14.7406   24.2478 C   0  0  0  0  0  0  0  0  0  0  0  0
   14.2834   14.8316   23.0293 C   0  0  0  0  0  0  0  0  0  0  0  0
    9.5032   11.8947   24.9772 C   0  0  0  0  0  0  0  0  0  0  0  0
    8.8544   10.5594   25.4149 C   0  0  2  0  0  0  0  0  0  0  0  0
    7.9739   11.2309   23.0647 C   0  0  1  0  0  0  0  0  0  0  0  0
    8.9464   12.3186   23.5922 C   0  0  2  0  0  0  0  0  0  0  0  0
   12.7913   14.9724   22.8946 C   0  0  0  0  0  0  0  0  0  0  0  0
   11.0274   16.4864   23.2402 C   0  0  0  0  0  0  0  0  0  0  0  0
   11.9792   13.8790   22.2338 C   0  0  0  0  0  0  0  0  0  0  0  0
   10.1715   11.9629   21.5479 O   0  0  0  0  0  0  0  0  0  0  0  0
   10.8748   13.5427   23.0796 O   0  0  0  0  0  0  0  0  0  0  0  0
   12.2986   16.2996   22.6464 O   0  0  0  0  0  0  0  0  0  0  0  0
    9.6655    8.6203   24.5238 H   0  0  0  0  0  0  0  0  0  0  0  0
    8.8070    9.2706   22.2356 H   0  0  0  0  0  0  0  0  0  0  0  0
    7.0663   11.5507   26.1857 H   0  0  0  0  0  0  0  0  0  0  0  0
    6.8256    9.8481   25.8070 H   0  0  0  0  0  0  0  0  0  0  0  0
    6.0634   10.3990   23.7271 H   0  0  0  0  0  0  0  0  0  0  0  0
    6.2644   12.1050   24.1109 H   0  0  0  0  0  0  0  0  0  0  0  0
   13.2904   13.7681   24.7105 H   0  0  0  0  0  0  0  0  0  0  0  0
   13.4318   15.5668   24.9482 H   0  0  0  0  0  0  0  0  0  0  0  0
   14.8949   15.7186   22.9140 H   0  0  0  0  0  0  0  0  0  0  0  0
   14.7511   13.9198   22.6782 H   0  0  0  0  0  0  0  0  0  0  0  0
    9.2740   12.6742   25.7148 H   0  0  0  0  0  0  0  0  0  0  0  0
   10.5960   11.7959   24.9592 H   0  0  0  0  0  0  0  0  0  0  0  0
    9.2428   10.2283   26.3825 H   0  0  0  0  0  0  0  0  0  0  0  0
    7.6249   11.4511   22.0507 H   0  0  0  0  0  0  0  0  0  0  0  0
    8.4096   13.2704   23.6933 H   0  0  0  0  0  0  0  0  0  0  0  0
   10.6754   17.5009   23.0376 H   0  0  0  0  0  0  0  0  0  0  0  0
   11.1004   16.3231   24.3184 H   0  0  0  0  0  0  0  0  0  0  0  0
   10.3256   15.7672   22.8114 H   0  0  0  0  0  0  0  0  0  0  0  0
   12.5914   12.9851   22.0814 H   0  0  0  0  0  0  0  0  0  0  0  0
   11.5930   14.2179   21.2679 H   0  0  0  0  0  0  0  0  0  0  0  0
  1  2  2  0  0  0  0
  1  9  1  0  0  0  0
  2 10  1  0  0  0  0
  3 11  1  6  0  0  0
  3 15  2  0  0  0  0
  3 16  1  0  0  0  0
  4  5  1  0  0  0  0
  4  9  1  0  0  0  0
  5 10  1  1  0  0  0
  6  7  1  0  0  0  0
  6 12  1  0  0  0  0
  7 12  1  0  0  0  0
  8  9  1  1  0  0  0
  8 11  1  0  0  0  0
 10 11  1  0  0  0  0
 12 14  1  0  0  0  0
 12 17  1  0  0  0  0
 13 17  1  0  0  0  0
 14 16  1  0  0  0  0
  1 18  1  0  0  0  0
  2 19  1  0  0  0  0
  4 20  1  0  0  0  0
  4 21  1  0  0  0  0
  5 22  1  0  0  0  0
  5 23  1  0  0  0  0
  6 24  1  0  0  0  0
  6 25  1  0  0  0  0
  7 26  1  0  0  0  0
  7 27  1  0  0  0  0
  8 28  1  0  0  0  0
  8 29  1  0  0  0  0
  9 30  1  0  0  0  0
 10 31  1  0  0  0  0
 11 32  1  0  0  0  0
 13 33  1  0  0  0  0
 13 34  1  0  0  0  0
 13 35  1  0  0  0  0
 14 36  1  0  0  0  0
 14 37  1  0  0  0  0
M  END
> <id>
EN300-27148940

> <smiles>
COC1(COC(=O)[C@@H]2C[C@H]3CC[C@@H]2C=C3)CC1 |&1:7,9,12,r|

> <IUPAC Name>
rac-(1-methoxycyclopropyl)methyl (1R,2R,4R)-bicyclo[2.2.2]oct-5-ene-2-carboxylate

> <CAS>
2503155-20-0

> <Purity>
90

> <URL>
https://www.enaminestore.com/catalog/EN300-27148940

> <ROCS_ShapeQuery>
x0812_0A_x1140_0A_x1097_0A_x0365_0A_x1097_0A_x0310_0A

> <ROCS_TanimotoCombo>
0.717 

> <ROCS_ShapeTanimoto>
0.223 

> <ROCS_ColorTanimoto>
0.494 

> <ROCS_RefTversky>
0.204 

> <ROCS_RefColorTversky>
0.518 

> <ROCS_RefTverskyCombo>
0.723 

> <ROCS_FitTversky>
1.664 

> <ROCS_FitColorTversky>
0.914 

> <ROCS_FitTverskyCombo>
2.577 

> <ROCS_ColorScore>
-7.664

> <ROCS_Overlap>
2068.335

> <ROCS_Rank>
161                 

$$$$
untitled-dbase-164431_3
  -OEChem-02092408543D

 33 35  0     0  0  0  0  0  0999 V2000
   10.0429   11.9631   22.4552 C   0  0  0  0  0  0  0  0  0  0  0  0
    9.6624    7.9489   22.8009 C   0  0  0  0  0  0  0  0  0  0  0  0
    8.6809    9.0331   22.3094 C   0  0  0  0  0  0  0  0  0  0  0  0
   10.2759    9.0055   23.7430 C   0  0  0  0  0  0  0  0  0  0  0  0
    9.1708   11.7710   24.9878 C   0  0  0  0  0  0  0  0  0  0  0  0
    7.6132   11.7976   23.5874 C   0  0  0  0  0  0  0  0  0  0  0  0
    9.1162   11.3202   23.4732 C   0  0  0  0  0  0  0  0  0  0  0  0
    8.9458    9.7713   23.6332 C   0  0  0  0  0  0  0  0  0  0  0  0
    7.7701   11.0380   24.9650 C   0  0  0  0  0  0  0  0  0  0  0  0
   12.5394   14.5697   23.0570 C   0  0  0  0  0  0  0  0  0  0  0  0
    6.7814   11.2779   26.0698 C   0  0  0  0  0  0  0  0  0  0  0  0
   11.7517   13.5792   22.2264 C   0  0  0  0  0  0  0  0  0  0  0  0
   10.0633   11.6716   21.2671 O   0  0  0  0  0  0  0  0  0  0  0  0
    7.9786    9.6121   24.7062 O   0  0  0  0  0  0  0  0  0  0  0  0
   10.8252   12.8927   23.0740 O   0  0  0  0  0  0  0  0  0  0  0  0
    4.8066   10.7075   25.4824 I   0  0  0  0  0  0  0  0  0  0  0  0
    9.1741    7.1213   23.3283 H   0  0  0  0  0  0  0  0  0  0  0  0
   10.3360    7.5401   22.0436 H   0  0  0  0  0  0  0  0  0  0  0  0
    9.0135    9.5505   21.4033 H   0  0  0  0  0  0  0  0  0  0  0  0
    7.6549    8.6864   22.1558 H   0  0  0  0  0  0  0  0  0  0  0  0
   10.5309    8.6368   24.7406 H   0  0  0  0  0  0  0  0  0  0  0  0
   11.1512    9.5136   23.3247 H   0  0  0  0  0  0  0  0  0  0  0  0
    9.9415   11.3026   25.6071 H   0  0  0  0  0  0  0  0  0  0  0  0
    9.1630   12.8498   25.1802 H   0  0  0  0  0  0  0  0  0  0  0  0
    7.4430   12.8793   23.6340 H   0  0  0  0  0  0  0  0  0  0  0  0
    6.9069   11.3545   22.8789 H   0  0  0  0  0  0  0  0  0  0  0  0
   11.8762   15.3068   23.5182 H   0  0  0  0  0  0  0  0  0  0  0  0
   13.0979   14.0544   23.8454 H   0  0  0  0  0  0  0  0  0  0  0  0
   13.2743   15.0945   22.4375 H   0  0  0  0  0  0  0  0  0  0  0  0
    6.7786   12.3408   26.3575 H   0  0  0  0  0  0  0  0  0  0  0  0
    7.0673   10.7119   26.9700 H   0  0  0  0  0  0  0  0  0  0  0  0
   12.4208   12.8449   21.7680 H   0  0  0  0  0  0  0  0  0  0  0  0
   11.1937   14.0958   21.4397 H   0  0  0  0  0  0  0  0  0  0  0  0
  1  7  1  0  0  0  0
  1 13  2  0  0  0  0
  1 15  1  0  0  0  0
  2  3  1  0  0  0  0
  2  4  1  0  0  0  0
  3  8  1  0  0  0  0
  4  8  1  0  0  0  0
  5  7  1  0  0  0  0
  5  9  1  0  0  0  0
  6  7  1  0  0  0  0
  6  9  1  0  0  0  0
  7  8  1  0  0  0  0
  8 14  1  0  0  0  0
  9 11  1  0  0  0  0
  9 14  1  0  0  0  0
 10 12  1  0  0  0  0
 11 16  1  0  0  0  0
 12 15  1  0  0  0  0
  2 17  1  0  0  0  0
  2 18  1  0  0  0  0
  3 19  1  0  0  0  0
  3 20  1  0  0  0  0
  4 21  1  0  0  0  0
  4 22  1  0  0  0  0
  5 23  1  0  0  0  0
  5 24  1  0  0  0  0
  6 25  1  0  0  0  0
  6 26  1  0  0  0  0
 10 27  1  0  0  0  0
 10 28  1  0  0  0  0
 10 29  1  0  0  0  0
 11 30  1  0  0  0  0
 11 31  1  0  0  0  0
 12 32  1  0  0  0  0
 12 33  1  0  0  0  0
M  END
> <id>
EN300-1718246

> <smiles>
CCOC(=O)C1(CC2(CI)C1)C3(CCC3)O2

> <MDLNUMBER>
MFCD31665501

> <IUPAC Name>
ethyl 4-(iodomethyl)-3-oxaspiro[bicyclo[2.1.1]hexane-2,1'-cyclobutane]-1-carboxylate

> <CAS>
2490400-69-4

> <Purity>
95

> <URL>
https://www.enaminestore.com/catalog/EN300-1718246

> <ROCS_ShapeQuery>
x0812_0A_x1140_0A_x1097_0A_x0365_0A_x1097_0A_x0310_0A

> <ROCS_TanimotoCombo>
0.717 

> <ROCS_ShapeTanimoto>
0.262 

> <ROCS_ColorTanimoto>
0.455 

> <ROCS_RefTversky>
0.232 

> <ROCS_RefColorTversky>
0.544 

> <ROCS_RefTverskyCombo>
0.775 

> <ROCS_FitTversky>
1.967 

> <ROCS_FitColorTversky>
0.737 

> <ROCS_FitTverskyCombo>
2.704 

> <ROCS_ColorScore>
-8.110

> <ROCS_Overlap>
2344.708

> <ROCS_Rank>
162                 

$$$$
untitled-dbase-469317_3
  -OEChem-02092408543D

 33 35  0     0  0  0  0  0  0999 V2000
   10.0436   11.9632   22.4558 C   0  0  0  0  0  0  0  0  0  0  0  0
    9.6607    7.9482   22.7992 C   0  0  0  0  0  0  0  0  0  0  0  0
    8.6801    9.0334   22.3078 C   0  0  0  0  0  0  0  0  0  0  0  0
   10.2750    9.0046   23.7411 C   0  0  0  0  0  0  0  0  0  0  0  0
    9.1713   11.7690   24.9883 C   0  0  0  0  0  0  0  0  0  0  0  0
    7.6139   11.7980   23.5878 C   0  0  0  0  0  0  0  0  0  0  0  0
    9.1165   11.3198   23.4733 C   0  0  0  0  0  0  0  0  0  0  0  0
    8.9453    9.7709   23.6318 C   0  0  0  0  0  0  0  0  0  0  0  0
    7.7702   11.0370   24.9648 C   0  0  0  0  0  0  0  0  0  0  0  0
   12.5416   14.5678   23.0600 C   0  0  0  0  0  0  0  0  0  0  0  0
    6.7810   11.2762   26.0692 C   0  0  0  0  0  0  0  0  0  0  0  0
   11.7532   13.5786   22.2284 C   0  0  0  0  0  0  0  0  0  0  0  0
   10.0638   11.6728   21.2673 O   0  0  0  0  0  0  0  0  0  0  0  0
    7.9779    9.6112   24.7046 O   0  0  0  0  0  0  0  0  0  0  0  0
   10.8264   12.8918   23.0754 O   0  0  0  0  0  0  0  0  0  0  0  0
    4.8065   10.7070   25.4801 I   0  0  0  0  0  0  0  0  0  0  0  0
    9.1718    7.1211   23.3266 H   0  0  0  0  0  0  0  0  0  0  0  0
   10.3340    7.5394   22.0417 H   0  0  0  0  0  0  0  0  0  0  0  0
    9.0141    9.5510   21.4024 H   0  0  0  0  0  0  0  0  0  0  0  0
    7.6539    8.6875   22.1540 H   0  0  0  0  0  0  0  0  0  0  0  0
   10.5300    8.6356   24.7387 H   0  0  0  0  0  0  0  0  0  0  0  0
   11.1499    9.5125   23.3219 H   0  0  0  0  0  0  0  0  0  0  0  0
    9.9417   11.2994   25.6071 H   0  0  0  0  0  0  0  0  0  0  0  0
    9.1639   12.8477   25.1817 H   0  0  0  0  0  0  0  0  0  0  0  0
    7.4445   12.8797   23.6354 H   0  0  0  0  0  0  0  0  0  0  0  0
    6.9075   11.3561   22.8788 H   0  0  0  0  0  0  0  0  0  0  0  0
   11.8788   15.3048   23.5219 H   0  0  0  0  0  0  0  0  0  0  0  0
   13.0998   14.0514   23.8479 H   0  0  0  0  0  0  0  0  0  0  0  0
   13.2767   15.0928   22.4410 H   0  0  0  0  0  0  0  0  0  0  0  0
    6.7787   12.3387   26.3577 H   0  0  0  0  0  0  0  0  0  0  0  0
    7.0665   10.7091   26.9688 H   0  0  0  0  0  0  0  0  0  0  0  0
   12.4220   12.8443   21.7693 H   0  0  0  0  0  0  0  0  0  0  0  0
   11.1955   14.0962   21.4423 H   0  0  0  0  0  0  0  0  0  0  0  0
  1  7  1  1  0  0  0
  1 13  2  0  0  0  0
  1 15  1  0  0  0  0
  2  3  1  0  0  0  0
  2  4  1  0  0  0  0
  3  8  1  0  0  0  0
  4  8  1  0  0  0  0
  5  7  1  0  0  0  0
  5  9  1  0  0  0  0
  6  7  1  0  0  0  0
  6  9  1  0  0  0  0
  7  8  1  0  0  0  0
  8 14  1  0  0  0  0
  9 11  1  1  0  0  0
  9 14  1  0  0  0  0
 10 12  1  0  0  0  0
 11 16  1  0  0  0  0
 12 15  1  0  0  0  0
  2 17  1  0  0  0  0
  2 18  1  0  0  0  0
  3 19  1  0  0  0  0
  3 20  1  0  0  0  0
  4 21  1  0  0  0  0
  4 22  1  0  0  0  0
  5 23  1  0  0  0  0
  5 24  1  0  0  0  0
  6 25  1  0  0  0  0
  6 26  1  0  0  0  0
 10 27  1  0  0  0  0
 10 28  1  0  0  0  0
 10 29  1  0  0  0  0
 11 30  1  0  0  0  0
 11 31  1  0  0  0  0
 12 32  1  0  0  0  0
 12 33  1  0  0  0  0
M  END
> <id>
EN300-39870119

> <smiles>
CCOC(=O)[C@]1(C[C@@]2(CI)C1)C3(CCC3)O2

> <IUPAC Name>
ethyl 4-(iodomethyl)-3-oxaspiro[bicyclo[2.1.1]hexane-2,1'-cyclobutane]-1-carboxylate

> <URL>
https://www.enaminestore.com/catalog/EN300-39870119

> <ROCS_ShapeQuery>
x0812_0A_x1140_0A_x1097_0A_x0365_0A_x1097_0A_x0310_0A

> <ROCS_TanimotoCombo>
0.717 

> <ROCS_ShapeTanimoto>
0.262 

> <ROCS_ColorTanimoto>
0.455 

> <ROCS_RefTversky>
0.232 

> <ROCS_RefColorTversky>
0.544 

> <ROCS_RefTverskyCombo>
0.775 

> <ROCS_FitTversky>
1.967 

> <ROCS_FitColorTversky>
0.737 

> <ROCS_FitTverskyCombo>
2.704 

> <ROCS_ColorScore>
-8.110

> <ROCS_Overlap>
2344.540

> <ROCS_Rank>
163                 

$$$$
untitled-dbase-492000_5
  -OEChem-02092408543D

 48 50  0     1  0  0  0  0  0999 V2000
    6.3100   15.5898   26.8912 C   0  0  0  0  0  0  0  0  0  0  0  0
    7.0360   14.5436   27.4603 C   0  0  0  0  0  0  0  0  0  0  0  0
    5.8694   15.4958   25.5711 C   0  0  0  0  0  0  0  0  0  0  0  0
    7.3214   13.4033   26.7093 C   0  0  0  0  0  0  0  0  0  0  0  0
    6.1548   14.3555   24.8201 C   0  0  0  0  0  0  0  0  0  0  0  0
    6.8808   13.3092   25.3892 C   0  0  0  0  0  0  0  0  0  0  0  0
    5.1147   10.0736   25.7767 C   0  0  0  0  0  0  0  0  0  0  0  0
    9.5680   11.6973   24.8268 C   0  0  0  0  0  0  0  0  0  0  0  0
    7.1862   12.0888   24.5845 C   0  0  1  0  0  0  0  0  0  0  0  0
    8.5379   12.2337   23.8227 C   0  0  2  0  0  0  0  0  0  0  0  0
    8.8427   10.3601   25.0022 C   0  0  1  0  0  0  0  0  0  0  0  0
    7.4621   10.8555   25.4946 C   0  0  2  0  0  0  0  0  0  0  0  0
    8.5933   11.1410   22.7281 C   0  0  2  0  0  0  0  0  0  0  0  0
    8.7826    9.8471   23.5457 C   0  0  1  0  0  0  0  0  0  0  0  0
    2.3493   10.1125   25.0692 C   0  0  0  0  0  0  0  0  0  0  0  0
    2.3651    7.6614   25.6178 C   0  0  0  0  0  0  0  0  0  0  0  0
    2.8792    9.3469   27.4075 C   0  0  0  0  0  0  0  0  0  0  0  0
    2.9951    9.0195   25.9195 C   0  0  0  0  0  0  0  0  0  0  0  0
    6.4307    9.8585   25.4086 N   0  0  0  0  0  0  0  0  0  0  0  0
    4.6616   11.1248   26.2173 O   0  0  0  0  0  0  0  0  0  0  0  0
    9.6813   11.3998   21.8546 O   0  0  0  0  0  0  0  0  0  0  0  0
    9.9956    9.1801   23.2302 O   0  0  0  0  0  0  0  0  0  0  0  0
    4.3832    8.9366   25.5776 O   0  0  0  0  0  0  0  0  0  0  0  0
    6.0867   16.4770   27.4765 H   0  0  0  0  0  0  0  0  0  0  0  0
    7.3783   14.6161   28.4885 H   0  0  0  0  0  0  0  0  0  0  0  0
    5.3032   16.3097   25.1280 H   0  0  0  0  0  0  0  0  0  0  0  0
    7.8878   12.5931   27.1610 H   0  0  0  0  0  0  0  0  0  0  0  0
    5.8075   14.2911   23.7923 H   0  0  0  0  0  0  0  0  0  0  0  0
   10.5746   11.5963   24.4079 H   0  0  0  0  0  0  0  0  0  0  0  0
    9.6214   12.2854   25.7490 H   0  0  0  0  0  0  0  0  0  0  0  0
    6.3542   11.9256   23.8905 H   0  0  0  0  0  0  0  0  0  0  0  0
    8.7598   13.2387   23.4536 H   0  0  0  0  0  0  0  0  0  0  0  0
    9.3423    9.6780   25.6950 H   0  0  0  0  0  0  0  0  0  0  0  0
    7.5278   11.1426   26.5517 H   0  0  0  0  0  0  0  0  0  0  0  0
    7.6707   11.1227   22.1384 H   0  0  0  0  0  0  0  0  0  0  0  0
    7.9566    9.1449   23.3965 H   0  0  0  0  0  0  0  0  0  0  0  0
    2.7987   11.0889   25.2828 H   0  0  0  0  0  0  0  0  0  0  0  0
    2.4562    9.9071   23.9991 H   0  0  0  0  0  0  0  0  0  0  0  0
    1.2817   10.2068   25.2985 H   0  0  0  0  0  0  0  0  0  0  0  0
    2.8254    6.8741   26.2257 H   0  0  0  0  0  0  0  0  0  0  0  0
    2.5288    7.3790   24.5716 H   0  0  0  0  0  0  0  0  0  0  0  0
    1.2876    7.6638   25.8118 H   0  0  0  0  0  0  0  0  0  0  0  0
    3.3424    8.5630   28.0176 H   0  0  0  0  0  0  0  0  0  0  0  0
    3.3585   10.3012   27.6490 H   0  0  0  0  0  0  0  0  0  0  0  0
    1.8283    9.3975   27.7147 H   0  0  0  0  0  0  0  0  0  0  0  0
    6.6842    8.9371   25.0550 H   0  0  0  0  0  0  0  0  0  0  0  0
    9.5250   12.2738   21.4601 H   0  0  0  0  0  0  0  0  0  0  0  0
   10.0802    8.4398   23.8534 H   0  0  0  0  0  0  0  0  0  0  0  0
  1  2  1  0  0  0  0
  1  3  2  0  0  0  0
  2  4  2  0  0  0  0
  3  5  1  0  0  0  0
  4  6  1  0  0  0  0
  5  6  2  0  0  0  0
  6  9  1  6  0  0  0
  7 19  1  0  0  0  0
  7 20  2  0  0  0  0
  7 23  1  0  0  0  0
  8 10  1  6  0  0  0
  8 11  1  6  0  0  0
  9 10  1  0  0  0  0
  9 12  1  0  0  0  0
 10 13  1  0  0  0  0
 11 12  1  0  0  0  0
 11 14  1  0  0  0  0
 12 19  1  1  0  0  0
 13 14  1  0  0  0  0
 13 21  1  6  0  0  0
 14 22  1  6  0  0  0
 15 18  1  0  0  0  0
 16 18  1  0  0  0  0
 17 18  1  0  0  0  0
 18 23  1  0  0  0  0
  1 24  1  0  0  0  0
  2 25  1  0  0  0  0
  3 26  1  0  0  0  0
  4 27  1  0  0  0  0
  5 28  1  0  0  0  0
  8 29  1  0  0  0  0
  8 30  1  0  0  0  0
  9 31  1  0  0  0  0
 10 32  1  0  0  0  0
 11 33  1  0  0  0  0
 12 34  1  0  0  0  0
 13 35  1  0  0  0  0
 14 36  1  0  0  0  0
 15 37  1  0  0  0  0
 15 38  1  0  0  0  0
 15 39  1  0  0  0  0
 16 40  1  0  0  0  0
 16 41  1  0  0  0  0
 16 42  1  0  0  0  0
 17 43  1  0  0  0  0
 17 44  1  0  0  0  0
 17 45  1  0  0  0  0
 19 46  1  0  0  0  0
 21 47  1  0  0  0  0
 22 48  1  0  0  0  0
M  END
> <id>
EN300-28229539

> <smiles>
CC(C)(C)OC(=O)N[C@@H]1[C@H]([C@H]2C[C@@H]1[C@H](O)[C@@H]2O)C=3C=CC=CC3 |&1:8,9,10,12,13,15,r|

> <IUPAC Name>
rac-tert-butyl N-[(1R,2S,3S,4S,5S,6R)-5,6-dihydroxy-3-phenylbicyclo[2.2.1]heptan-2-yl]carbamate

> <CAS>
2639391-31-2

> <URL>
https://www.enaminestore.com/catalog/EN300-28229539

> <ROCS_ShapeQuery>
x0812_0A_x1140_0A_x1097_0A_x0365_0A_x1097_0A_x0310_0A

> <ROCS_TanimotoCombo>
0.717 

> <ROCS_ShapeTanimoto>
0.236 

> <ROCS_ColorTanimoto>
0.481 

> <ROCS_RefTversky>
0.220 

> <ROCS_RefColorTversky>
0.633 

> <ROCS_RefTverskyCombo>
0.852 

> <ROCS_FitTversky>
1.470 

> <ROCS_FitColorTversky>
0.666 

> <ROCS_FitTverskyCombo>
2.136 

> <ROCS_ColorScore>
-9.552

> <ROCS_Overlap>
2224.560

> <ROCS_Rank>
164                 

$$$$
untitled-dbase-397078_2
  -OEChem-02092408543D

 41 42  0     1  0  0  0  0  0999 V2000
    6.4273   12.8786   25.3035 C   0  0  0  0  0  0  0  0  0  0  0  0
    5.8327   10.1642   27.2473 C   0  0  0  0  0  0  0  0  0  0  0  0
    7.5298   10.8129   23.1814 C   0  0  0  0  0  0  0  0  0  0  0  0
    7.7170   12.1193   25.1901 C   0  0  2  0  0  0  0  0  0  0  0  0
    8.2043   12.0799   23.7237 C   0  0  1  0  0  0  0  0  0  0  0  0
    8.1138    9.9193   24.2789 C   0  0  2  0  0  0  0  0  0  0  0  0
    7.6156   10.6175   25.5690 C   0  0  2  0  0  0  0  0  0  0  0  0
    9.6911   11.6662   23.7159 C   0  0  1  0  0  0  0  0  0  0  0  0
    9.6305   10.1779   24.1191 C   0  0  2  0  0  0  0  0  0  0  0  0
    6.1088    9.2200   29.9272 C   0  0  0  0  0  0  0  0  0  0  0  0
    7.6822   11.1514   30.2488 C   0  0  0  0  0  0  0  0  0  0  0  0
    5.2764   11.5812   29.6696 C   0  0  0  0  0  0  0  0  0  0  0  0
    6.4643   10.6383   29.4835 C   0  0  0  0  0  0  0  0  0  0  0  0
    6.2950   10.1857   25.9451 N   0  0  0  0  0  0  0  0  0  0  0  0
    5.5893   12.9746   24.4193 O   0  0  0  0  0  0  0  0  0  0  0  0
    4.7154    9.8027   27.6016 O   0  0  0  0  0  0  0  0  0  0  0  0
    6.3149   13.4512   26.5269 O   0  0  0  0  0  0  0  0  0  0  0  0
   10.2295   11.8579   22.4170 O   0  0  0  0  0  0  0  0  0  0  0  0
   10.1556    9.3217   23.1169 O   0  0  0  0  0  0  0  0  0  0  0  0
    6.8092   10.6081   28.0940 O   0  0  0  0  0  0  0  0  0  0  0  0
    6.4368   10.8615   23.1909 H   0  0  0  0  0  0  0  0  0  0  0  0
    7.8649   10.5395   22.1753 H   0  0  0  0  0  0  0  0  0  0  0  0
    8.4370   12.6302   25.8403 H   0  0  0  0  0  0  0  0  0  0  0  0
    7.9864   12.9756   23.1360 H   0  0  0  0  0  0  0  0  0  0  0  0
    7.8398    8.8643   24.1954 H   0  0  0  0  0  0  0  0  0  0  0  0
    8.2709   10.3851   26.4158 H   0  0  0  0  0  0  0  0  0  0  0  0
   10.2751   12.2609   24.4262 H   0  0  0  0  0  0  0  0  0  0  0  0
   10.1638    9.9854   25.0562 H   0  0  0  0  0  0  0  0  0  0  0  0
    5.2351    8.8481   29.3802 H   0  0  0  0  0  0  0  0  0  0  0  0
    6.9408    8.5266   29.7665 H   0  0  0  0  0  0  0  0  0  0  0  0
    5.8406    9.1984   30.9897 H   0  0  0  0  0  0  0  0  0  0  0  0
    7.9408   12.1688   29.9336 H   0  0  0  0  0  0  0  0  0  0  0  0
    8.5622   10.5314   30.0429 H   0  0  0  0  0  0  0  0  0  0  0  0
    7.5073   11.1572   31.3295 H   0  0  0  0  0  0  0  0  0  0  0  0
    5.5311   12.5987   29.3514 H   0  0  0  0  0  0  0  0  0  0  0  0
    4.4040   11.2486   29.0978 H   0  0  0  0  0  0  0  0  0  0  0  0
    4.9947   11.6493   30.7266 H   0  0  0  0  0  0  0  0  0  0  0  0
    5.6641    9.8778   25.2081 H   0  0  0  0  0  0  0  0  0  0  0  0
    5.4781   13.9545   26.6204 H   0  0  0  0  0  0  0  0  0  0  0  0
   10.1342   12.8020   22.2084 H   0  0  0  0  0  0  0  0  0  0  0  0
    9.9918    8.4099   23.4100 H   0  0  0  0  0  0  0  0  0  0  0  0
  1  4  1  1  0  0  0
  1 15  2  0  0  0  0
  1 17  1  0  0  0  0
  2 14  1  0  0  0  0
  2 16  2  0  0  0  0
  2 20  1  0  0  0  0
  3  5  1  1  0  0  0
  3  6  1  1  0  0  0
  4  5  1  0  0  0  0
  4  7  1  0  0  0  0
  5  8  1  0  0  0  0
  6  7  1  0  0  0  0
  6  9  1  0  0  0  0
  7 14  1  1  0  0  0
  8  9  1  0  0  0  0
  8 18  1  1  0  0  0
  9 19  1  1  0  0  0
 10 13  1  0  0  0  0
 11 13  1  0  0  0  0
 12 13  1  0  0  0  0
 13 20  1  0  0  0  0
  3 21  1  0  0  0  0
  3 22  1  0  0  0  0
  4 23  1  0  0  0  0
  5 24  1  0  0  0  0
  6 25  1  0  0  0  0
  7 26  1  0  0  0  0
  8 27  1  0  0  0  0
  9 28  1  0  0  0  0
 10 29  1  0  0  0  0
 10 30  1  0  0  0  0
 10 31  1  0  0  0  0
 11 32  1  0  0  0  0
 11 33  1  0  0  0  0
 11 34  1  0  0  0  0
 12 35  1  0  0  0  0
 12 36  1  0  0  0  0
 12 37  1  0  0  0  0
 14 38  1  0  0  0  0
 17 39  1  0  0  0  0
 18 40  1  0  0  0  0
 19 41  1  0  0  0  0
M  END
> <id>
EN300-26978994

> <smiles>
CC(C)(C)OC(=O)N[C@@H]1[C@@H]([C@@H]2C[C@H]1[C@@H](O)[C@H]2O)C(=O)O |&1:8,9,10,12,13,15,r|

> <IUPAC Name>
rac-(1R,2S,3R,4S,5S,6R)-3-{[(tert-butoxy)carbonyl]amino}-5,6-dihydroxybicyclo[2.2.1]heptane-2-carboxylic acid

> <CAS>
2460739-47-1

> <Purity>
95

> <URL>
https://www.enaminestore.com/catalog/EN300-26978994

> <ROCS_ShapeQuery>
x0812_0A_x1140_0A_x1097_0A_x0365_0A_x1097_0A_x0310_0A

> <ROCS_TanimotoCombo>
0.716 

> <ROCS_ShapeTanimoto>
0.250 

> <ROCS_ColorTanimoto>
0.466 

> <ROCS_RefTversky>
0.227 

> <ROCS_RefColorTversky>
0.658 

> <ROCS_RefTverskyCombo>
0.886 

> <ROCS_FitTversky>
1.672 

> <ROCS_FitColorTversky>
0.615 

> <ROCS_FitTverskyCombo>
2.287 

> <ROCS_ColorScore>
-10.002

> <ROCS_Overlap>
2303.034

> <ROCS_Rank>
165                 

$$$$
untitled-dbase-578107_6
  -OEChem-02092408543D

 32 33  0     0  0  0  0  0  0999 V2000
    9.7202   12.1152   22.1074 C   0  0  0  0  0  0  0  0  0  0  0  0
    7.6264   12.2057   23.4749 C   0  0  0  0  0  0  0  0  0  0  0  0
    9.8268   11.8142   24.5771 C   0  0  0  0  0  0  0  0  0  0  0  0
    6.8986   11.5436   24.6504 C   0  0  0  0  0  0  0  0  0  0  0  0
    9.1309   11.1468   25.7688 C   0  0  0  0  0  0  0  0  0  0  0  0
    8.8067   10.0409   23.1690 C   0  0  0  0  0  0  0  0  0  0  0  0
    9.0084   11.5568   23.3028 C   0  0  0  0  0  0  0  0  0  0  0  0
    7.8156   10.4934   25.3045 C   0  0  0  0  0  0  0  0  0  0  0  0
   10.5571   14.1244   21.1875 C   0  0  0  0  0  0  0  0  0  0  0  0
    7.1113    9.7937   26.4619 C   0  0  0  0  0  0  0  0  0  0  0  0
   10.0854   11.4438   21.1520 O   0  0  0  0  0  0  0  0  0  0  0  0
    4.5840    9.9661   25.7946 O   0  0  0  0  0  0  0  0  0  0  0  0
    5.4673    7.7667   26.6872 O   0  0  0  0  0  0  0  0  0  0  0  0
    8.1334    9.4963   24.3143 O   0  0  0  0  0  0  0  0  0  0  0  0
    9.8865   13.4595   22.2628 O   0  0  0  0  0  0  0  0  0  0  0  0
    5.9392    8.4991   24.4320 F   0  0  0  0  0  0  0  0  0  0  0  0
    5.6474    8.9848   25.9175 S   0  0  0  0  0  0  0  0  0  0  0  0
    7.0296   12.1010   22.5598 H   0  0  0  0  0  0  0  0  0  0  0  0
    7.7208   13.2846   23.6524 H   0  0  0  0  0  0  0  0  0  0  0  0
    9.9354   12.8910   24.7597 H   0  0  0  0  0  0  0  0  0  0  0  0
   10.8465   11.4215   24.4732 H   0  0  0  0  0  0  0  0  0  0  0  0
    6.5895   12.3044   25.3768 H   0  0  0  0  0  0  0  0  0  0  0  0
    5.9868   11.0644   24.2723 H   0  0  0  0  0  0  0  0  0  0  0  0
    9.8028   10.3857   26.1850 H   0  0  0  0  0  0  0  0  0  0  0  0
    8.9471   11.8854   26.5578 H   0  0  0  0  0  0  0  0  0  0  0  0
    8.2120    9.7940   22.2818 H   0  0  0  0  0  0  0  0  0  0  0  0
    9.7639    9.5168   23.0646 H   0  0  0  0  0  0  0  0  0  0  0  0
   10.6377   15.1910   21.4113 H   0  0  0  0  0  0  0  0  0  0  0  0
    9.9967   13.9771   20.2608 H   0  0  0  0  0  0  0  0  0  0  0  0
   11.5582   13.7010   21.0769 H   0  0  0  0  0  0  0  0  0  0  0  0
    6.8252   10.5169   27.2242 H   0  0  0  0  0  0  0  0  0  0  0  0
    7.7621    9.0391   26.9010 H   0  0  0  0  0  0  0  0  0  0  0  0
  1  7  1  0  0  0  0
  1 11  2  0  0  0  0
  1 15  1  0  0  0  0
  2  4  1  0  0  0  0
  2  7  1  0  0  0  0
  3  5  1  0  0  0  0
  3  7  1  0  0  0  0
  4  8  1  0  0  0  0
  5  8  1  0  0  0  0
  6  7  1  0  0  0  0
  6 14  1  0  0  0  0
  8 10  1  0  0  0  0
  8 14  1  0  0  0  0
  9 15  1  0  0  0  0
 10 17  1  0  0  0  0
 12 17  2  0  0  0  0
 13 17  2  0  0  0  0
 16 17  1  0  0  0  0
  2 18  1  0  0  0  0
  2 19  1  0  0  0  0
  3 20  1  0  0  0  0
  3 21  1  0  0  0  0
  4 22  1  0  0  0  0
  4 23  1  0  0  0  0
  5 24  1  0  0  0  0
  5 25  1  0  0  0  0
  6 26  1  0  0  0  0
  6 27  1  0  0  0  0
  9 28  1  0  0  0  0
  9 29  1  0  0  0  0
  9 30  1  0  0  0  0
 10 31  1  0  0  0  0
 10 32  1  0  0  0  0
M  END
> <id>
EN300-7469914

> <smiles>
COC(=O)C1(CCC2(CS(=O)(=O)F)CC1)CO2

> <IUPAC Name>
methyl 1-[(fluorosulfonyl)methyl]-2-oxabicyclo[2.2.2]octane-4-carboxylate

> <CAS>
2648957-63-3

> <URL>
https://www.enaminestore.com/catalog/EN300-7469914

> <ROCS_ShapeQuery>
x0812_0A_x1140_0A_x1097_0A_x0365_0A_x1097_0A_x0310_0A

> <ROCS_TanimotoCombo>
0.716 

> <ROCS_ShapeTanimoto>
0.222 

> <ROCS_ColorTanimoto>
0.494 

> <ROCS_RefTversky>
0.204 

> <ROCS_RefColorTversky>
0.519 

> <ROCS_RefTverskyCombo>
0.723 

> <ROCS_FitTversky>
1.672 

> <ROCS_FitColorTversky>
0.913 

> <ROCS_FitTverskyCombo>
2.585 

> <ROCS_ColorScore>
-7.668

> <ROCS_Overlap>
2064.637

> <ROCS_Rank>
166                 

$$$$
untitled-dbase-411638_1
  -OEChem-02092408543D

 23 24  0     1  0  0  0  0  0999 V2000
    6.5404   11.6042   23.8002 C   0  0  0  0  0  0  0  0  0  0  0  0
    9.2185   10.3873   24.9985 C   0  0  0  0  0  0  0  0  0  0  0  0
    8.0161   12.0468   23.6313 C   0  0  1  0  0  0  0  0  0  0  0  0
    8.2923   11.6059   25.0963 C   0  0  1  0  0  0  0  0  0  0  0  0
    6.7589   11.5542   25.3186 C   0  0  2  0  0  0  0  0  0  0  0  0
    9.0874    9.8926   23.5613 C   0  0  1  0  0  0  0  0  0  0  0  0
    8.8943   11.1711   22.7453 C   0  0  2  0  0  0  0  0  0  0  0  0
    6.3586   10.2467   25.8184 N   0  0  0  0  0  0  0  0  0  0  0  0
   10.2354    9.1801   23.1436 O   0  0  0  0  0  0  0  0  0  0  0  0
   10.1330   11.8401   22.5200 O   0  0  0  0  0  0  0  0  0  0  0  0
    5.7978   12.3411   23.4639 H   0  0  0  0  0  0  0  0  0  0  0  0
    6.2940   10.6425   23.3221 H   0  0  0  0  0  0  0  0  0  0  0  0
   10.2559   10.6660   25.2538 H   0  0  0  0  0  0  0  0  0  0  0  0
    8.9063    9.5867   25.6921 H   0  0  0  0  0  0  0  0  0  0  0  0
    8.1387   13.1312   23.4798 H   0  0  0  0  0  0  0  0  0  0  0  0
    8.7726   12.4002   25.6980 H   0  0  0  0  0  0  0  0  0  0  0  0
    6.3467   12.4093   25.8718 H   0  0  0  0  0  0  0  0  0  0  0  0
    8.2144    9.2072   23.4376 H   0  0  0  0  0  0  0  0  0  0  0  0
    8.4235   10.9672   21.7993 H   0  0  0  0  0  0  0  0  0  0  0  0
    5.8796    9.7640   25.0931 H   0  0  0  0  0  0  0  0  0  0  0  0
    7.1756    9.7475   26.0863 H   0  0  0  0  0  0  0  0  0  0  0  0
   10.3258    8.4240   23.7444 H   0  0  0  0  0  0  0  0  0  0  0  0
    9.9258   12.6824   22.0808 H   0  0  0  0  0  0  0  0  0  0  0  0
  1  3  1  1  0  0  0
  1  5  1  0  0  0  0
  2  4  1  1  0  0  0
  2  6  1  0  0  0  0
  3  4  1  0  0  0  0
  3  7  1  0  0  0  0
  4  5  1  0  0  0  0
  5  8  1  1  0  0  0
  6  7  1  0  0  0  0
  6  9  1  6  0  0  0
  7 10  1  6  0  0  0
  1 11  1  0  0  0  0
  1 12  1  0  0  0  0
  2 13  1  0  0  0  0
  2 14  1  0  0  0  0
  3 15  1  0  0  0  0
  4 16  1  0  0  0  0
  5 17  1  0  0  0  0
  6 18  1  0  0  0  0
  7 19  1  0  0  0  0
  8 20  1  0  0  0  0
  8 21  1  0  0  0  0
  9 22  1  0  0  0  0
 10 23  1  0  0  0  0
M  END
> <id>
EN300-6736851

> <smiles>
Cl.N[C@@H]1C[C@H]2[C@@H]1C[C@H](O)[C@@H]2O |&1:2,4,5,7,9,r|

> <IUPAC Name>
rac-(1R,2S,3R,5R,6S)-6-aminobicyclo[3.2.0]heptane-2,3-diol hydrochloride

> <CAS>
2287239-58-9

> <Purity>
95

> <URL>
https://www.enaminestore.com/catalog/EN300-6736851

> <Saltdate>
Cl

> <ROCS_ShapeQuery>
x0812_0A_x1140_0A_x1097_0A_x0365_0A_x1097_0A_x0310_0A

> <ROCS_TanimotoCombo>
0.716 

> <ROCS_ShapeTanimoto>
0.199 

> <ROCS_ColorTanimoto>
0.517 

> <ROCS_RefTversky>
0.181 

> <ROCS_RefColorTversky>
0.601 

> <ROCS_RefTverskyCombo>
0.783 

> <ROCS_FitTversky>
1.951 

> <ROCS_FitColorTversky>
0.787 

> <ROCS_FitTverskyCombo>
2.738 

> <ROCS_ColorScore>
-8.982

> <ROCS_Overlap>
1833.596

> <ROCS_Rank>
167                 

$$$$
untitled-dbase-414019_1
  -OEChem-02092408543D

 23 24  0     1  0  0  0  0  0999 V2000
    6.5404   11.6042   23.8002 C   0  0  0  0  0  0  0  0  0  0  0  0
    9.2185   10.3873   24.9985 C   0  0  0  0  0  0  0  0  0  0  0  0
    8.0161   12.0468   23.6313 C   0  0  1  0  0  0  0  0  0  0  0  0
    8.2923   11.6059   25.0963 C   0  0  1  0  0  0  0  0  0  0  0  0
    6.7589   11.5542   25.3186 C   0  0  2  0  0  0  0  0  0  0  0  0
    9.0874    9.8926   23.5613 C   0  0  1  0  0  0  0  0  0  0  0  0
    8.8943   11.1711   22.7453 C   0  0  2  0  0  0  0  0  0  0  0  0
    6.3586   10.2467   25.8184 N   0  0  0  0  0  0  0  0  0  0  0  0
   10.2354    9.1801   23.1436 O   0  0  0  0  0  0  0  0  0  0  0  0
   10.1330   11.8401   22.5200 O   0  0  0  0  0  0  0  0  0  0  0  0
    5.7978   12.3411   23.4639 H   0  0  0  0  0  0  0  0  0  0  0  0
    6.2940   10.6425   23.3221 H   0  0  0  0  0  0  0  0  0  0  0  0
   10.2559   10.6660   25.2538 H   0  0  0  0  0  0  0  0  0  0  0  0
    8.9063    9.5867   25.6921 H   0  0  0  0  0  0  0  0  0  0  0  0
    8.1387   13.1312   23.4798 H   0  0  0  0  0  0  0  0  0  0  0  0
    8.7726   12.4002   25.6980 H   0  0  0  0  0  0  0  0  0  0  0  0
    6.3467   12.4093   25.8718 H   0  0  0  0  0  0  0  0  0  0  0  0
    8.2144    9.2072   23.4376 H   0  0  0  0  0  0  0  0  0  0  0  0
    8.4235   10.9672   21.7993 H   0  0  0  0  0  0  0  0  0  0  0  0
    5.8796    9.7640   25.0931 H   0  0  0  0  0  0  0  0  0  0  0  0
    7.1756    9.7475   26.0863 H   0  0  0  0  0  0  0  0  0  0  0  0
   10.3258    8.4240   23.7444 H   0  0  0  0  0  0  0  0  0  0  0  0
    9.9258   12.6824   22.0808 H   0  0  0  0  0  0  0  0  0  0  0  0
  1  3  1  1  0  0  0
  1  5  1  0  0  0  0
  2  4  1  1  0  0  0
  2  6  1  0  0  0  0
  3  4  1  0  0  0  0
  3  7  1  0  0  0  0
  4  5  1  0  0  0  0
  5  8  1  1  0  0  0
  6  7  1  0  0  0  0
  6  9  1  6  0  0  0
  7 10  1  6  0  0  0
  1 11  1  0  0  0  0
  1 12  1  0  0  0  0
  2 13  1  0  0  0  0
  2 14  1  0  0  0  0
  3 15  1  0  0  0  0
  4 16  1  0  0  0  0
  5 17  1  0  0  0  0
  6 18  1  0  0  0  0
  7 19  1  0  0  0  0
  8 20  1  0  0  0  0
  8 21  1  0  0  0  0
  9 22  1  0  0  0  0
 10 23  1  0  0  0  0
M  END
> <id>
EN300-6736852

> <smiles>
N[C@@H]1C[C@H]2[C@@H]1C[C@H](O)[C@@H]2O |&1:1,3,4,6,8,r|

> <IUPAC Name>
rac-(1R,2S,3R,5R,6S)-6-aminobicyclo[3.2.0]heptane-2,3-diol

> <CAS>
2287239-57-8

> <URL>
https://www.enaminestore.com/catalog/EN300-6736852

> <ROCS_ShapeQuery>
x0812_0A_x1140_0A_x1097_0A_x0365_0A_x1097_0A_x0310_0A

> <ROCS_TanimotoCombo>
0.716 

> <ROCS_ShapeTanimoto>
0.199 

> <ROCS_ColorTanimoto>
0.517 

> <ROCS_RefTversky>
0.181 

> <ROCS_RefColorTversky>
0.601 

> <ROCS_RefTverskyCombo>
0.783 

> <ROCS_FitTversky>
1.951 

> <ROCS_FitColorTversky>
0.787 

> <ROCS_FitTverskyCombo>
2.738 

> <ROCS_ColorScore>
-8.982

> <ROCS_Overlap>
1833.596

> <ROCS_Rank>
168                 

$$$$
untitled-dbase-266956_1
  -OEChem-02092408543D

 37 39  0     0  0  0  0  0  0999 V2000
   12.3546   15.2326   22.4425 C   0  0  0  0  0  0  0  0  0  0  0  0
    8.5859   10.3806   25.7393 C   0  0  0  0  0  0  0  0  0  0  0  0
    8.5384    9.4925   23.3948 C   0  0  0  0  0  0  0  0  0  0  0  0
    6.6417   10.8969   24.2422 C   0  0  0  0  0  0  0  0  0  0  0  0
   10.1599   11.3014   24.0175 C   0  0  0  0  0  0  0  0  0  0  0  0
    8.2591   12.7091   24.8669 C   0  0  0  0  0  0  0  0  0  0  0  0
    8.2112   11.8190   22.5172 C   0  0  0  0  0  0  0  0  0  0  0  0
    9.4457   10.0318   24.5131 C   0  0  0  0  0  0  0  0  0  0  0  0
    7.5396   11.4433   25.3647 C   0  0  0  0  0  0  0  0  0  0  0  0
    7.4917   10.5507   23.0085 C   0  0  0  0  0  0  0  0  0  0  0  0
    9.1272   12.3855   23.6279 C   0  0  0  0  0  0  0  0  0  0  0  0
   11.4523   14.5822   21.4196 C   0  0  0  0  0  0  0  0  0  0  0  0
    9.8413   13.6470   23.1356 C   0  0  0  0  0  0  0  0  0  0  0  0
   10.7285   13.3399   21.9314 C   0  0  0  0  0  0  0  0  0  0  0  0
   12.2784   16.4018   22.8038 O   0  0  0  0  0  0  0  0  0  0  0  0
   13.1114   14.5618   22.8847 H   0  0  0  0  0  0  0  0  0  0  0  0
    8.0861    9.4791   26.1147 H   0  0  0  0  0  0  0  0  0  0  0  0
    9.2236   10.7522   26.5508 H   0  0  0  0  0  0  0  0  0  0  0  0
    9.1420    9.2249   22.5188 H   0  0  0  0  0  0  0  0  0  0  0  0
    8.0378    8.5752   23.7286 H   0  0  0  0  0  0  0  0  0  0  0  0
    6.1075   10.0046   24.5912 H   0  0  0  0  0  0  0  0  0  0  0  0
    5.8801   11.6401   23.9760 H   0  0  0  0  0  0  0  0  0  0  0  0
   10.8279   11.6784   24.8028 H   0  0  0  0  0  0  0  0  0  0  0  0
   10.7943   11.0548   23.1564 H   0  0  0  0  0  0  0  0  0  0  0  0
    7.5184   13.4807   24.6203 H   0  0  0  0  0  0  0  0  0  0  0  0
    8.8837   13.1181   25.6716 H   0  0  0  0  0  0  0  0  0  0  0  0
    8.8012   11.5844   21.6217 H   0  0  0  0  0  0  0  0  0  0  0  0
    7.4693   12.5704   22.2174 H   0  0  0  0  0  0  0  0  0  0  0  0
   10.1877    9.2730   24.7855 H   0  0  0  0  0  0  0  0  0  0  0  0
    6.9288   11.6862   26.2414 H   0  0  0  0  0  0  0  0  0  0  0  0
    6.8472   10.1601   22.2131 H   0  0  0  0  0  0  0  0  0  0  0  0
   10.7361   15.3337   21.0713 H   0  0  0  0  0  0  0  0  0  0  0  0
   12.0891   14.3082   20.5711 H   0  0  0  0  0  0  0  0  0  0  0  0
    9.0870   14.3916   22.8689 H   0  0  0  0  0  0  0  0  0  0  0  0
   10.4302   14.0541   23.9604 H   0  0  0  0  0  0  0  0  0  0  0  0
   10.1035   12.9444   21.1211 H   0  0  0  0  0  0  0  0  0  0  0  0
   11.4524   12.5567   22.1871 H   0  0  0  0  0  0  0  0  0  0  0  0
  1 12  1  0  0  0  0
  1 15  2  0  0  0  0
  2  8  1  0  0  0  0
  2  9  1  0  0  0  0
  3  8  1  0  0  0  0
  3 10  1  0  0  0  0
  4  9  1  0  0  0  0
  4 10  1  0  0  0  0
  5  8  1  0  0  0  0
  5 11  1  0  0  0  0
  6  9  1  0  0  0  0
  6 11  1  0  0  0  0
  7 10  1  0  0  0  0
  7 11  1  0  0  0  0
 11 13  1  0  0  0  0
 12 14  1  0  0  0  0
 13 14  1  0  0  0  0
  1 16  1  0  0  0  0
  2 17  1  0  0  0  0
  2 18  1  0  0  0  0
  3 19  1  0  0  0  0
  3 20  1  0  0  0  0
  4 21  1  0  0  0  0
  4 22  1  0  0  0  0
  5 23  1  0  0  0  0
  5 24  1  0  0  0  0
  6 25  1  0  0  0  0
  6 26  1  0  0  0  0
  7 27  1  0  0  0  0
  7 28  1  0  0  0  0
  8 29  1  0  0  0  0
  9 30  1  0  0  0  0
 10 31  1  0  0  0  0
 12 32  1  0  0  0  0
 12 33  1  0  0  0  0
 13 34  1  0  0  0  0
 13 35  1  0  0  0  0
 14 36  1  0  0  0  0
 14 37  1  0  0  0  0
M  END
> <id>
EN300-1797482

> <smiles>
O=CCCCC1(CC2CC3CC(C2)C1)C3

> <IUPAC Name>
4-(adamantan-1-yl)butanal

> <CAS>
2229459-88-3

> <URL>
https://www.enaminestore.com/catalog/EN300-1797482

> <ROCS_ShapeQuery>
x0812_0A_x1140_0A_x1097_0A_x0365_0A_x1097_0A_x0310_0A

> <ROCS_TanimotoCombo>
0.716 

> <ROCS_ShapeTanimoto>
0.230 

> <ROCS_ColorTanimoto>
0.487 

> <ROCS_RefTversky>
0.208 

> <ROCS_RefColorTversky>
0.501 

> <ROCS_RefTverskyCombo>
0.709 

> <ROCS_FitTversky>
1.829 

> <ROCS_FitColorTversky>
0.942 

> <ROCS_FitTverskyCombo>
2.772 

> <ROCS_ColorScore>
-7.398

> <ROCS_Overlap>
2103.090

> <ROCS_Rank>
169                 

$$$$
untitled-dbase-481906_3
  -OEChem-02092408543D

 38 39  0     1  0  0  0  0  0999 V2000
   10.5207   12.2085   21.5230 C   0  0  0  0  0  0  0  0  0  0  0  0
    7.0352   11.9989   24.4434 C   0  0  0  0  0  0  0  0  0  0  0  0
    7.9639   12.3945   23.2860 C   0  0  0  0  0  0  0  0  0  0  0  0
    9.2837   11.5236   25.0718 C   0  0  0  0  0  0  0  0  0  0  0  0
    7.8646   10.9580   25.2110 C   0  0  2  0  0  0  0  0  0  0  0  0
    7.9343    9.6694   24.3647 C   0  0  1  0  0  0  0  0  0  0  0  0
    8.8999   10.0550   23.2213 C   0  0  1  0  0  0  0  0  0  0  0  0
    9.2240   11.5374   23.5402 C   0  0  1  0  0  0  0  0  0  0  0  0
   10.5380   14.7670   20.9756 C   0  0  0  0  0  0  0  0  0  0  0  0
   13.0487   14.6978   20.9508 C   0  0  0  0  0  0  0  0  0  0  0  0
   11.7516   13.7169   19.0368 C   0  0  0  0  0  0  0  0  0  0  0  0
   11.7687   13.9712   20.5433 C   0  0  0  0  0  0  0  0  0  0  0  0
   10.3938   12.0419   22.8956 N   0  0  0  0  0  0  0  0  0  0  0  0
    9.6530   11.9464   20.6966 O   0  0  0  0  0  0  0  0  0  0  0  0
    8.4311    8.6054   25.1616 O   0  0  0  0  0  0  0  0  0  0  0  0
   10.0690    9.2489   23.2548 O   0  0  0  0  0  0  0  0  0  0  0  0
   11.7555   12.7087   21.2191 O   0  0  0  0  0  0  0  0  0  0  0  0
    6.8277   12.8712   25.0737 H   0  0  0  0  0  0  0  0  0  0  0  0
    6.0794   11.6011   24.0881 H   0  0  0  0  0  0  0  0  0  0  0  0
    7.5095   12.1926   22.3104 H   0  0  0  0  0  0  0  0  0  0  0  0
    8.1874   13.4666   23.3433 H   0  0  0  0  0  0  0  0  0  0  0  0
    9.3883   12.5206   25.5143 H   0  0  0  0  0  0  0  0  0  0  0  0
   10.0537   10.8595   25.4786 H   0  0  0  0  0  0  0  0  0  0  0  0
    7.5419   10.7992   26.2424 H   0  0  0  0  0  0  0  0  0  0  0  0
    6.9459    9.3871   23.9865 H   0  0  0  0  0  0  0  0  0  0  0  0
    8.4232    9.9428   22.2414 H   0  0  0  0  0  0  0  0  0  0  0  0
    9.6171   14.2488   20.6849 H   0  0  0  0  0  0  0  0  0  0  0  0
   10.5204   14.9261   22.0587 H   0  0  0  0  0  0  0  0  0  0  0  0
   10.5114   15.7450   20.4816 H   0  0  0  0  0  0  0  0  0  0  0  0
   13.9343   14.1304   20.6426 H   0  0  0  0  0  0  0  0  0  0  0  0
   13.1104   14.7985   22.0404 H   0  0  0  0  0  0  0  0  0  0  0  0
   13.1051   15.6968   20.5065 H   0  0  0  0  0  0  0  0  0  0  0  0
   12.6343   13.1461   18.7265 H   0  0  0  0  0  0  0  0  0  0  0  0
   10.8575   13.1637   18.7313 H   0  0  0  0  0  0  0  0  0  0  0  0
   11.7833   14.6614   18.4817 H   0  0  0  0  0  0  0  0  0  0  0  0
   11.1913   12.2976   23.4840 H   0  0  0  0  0  0  0  0  0  0  0  0
    7.8137    8.4964   25.9037 H   0  0  0  0  0  0  0  0  0  0  0  0
   10.6308    9.5380   22.5174 H   0  0  0  0  0  0  0  0  0  0  0  0
  1 13  1  0  0  0  0
  1 14  2  0  0  0  0
  1 17  1  0  0  0  0
  2  3  1  0  0  0  0
  2  5  1  0  0  0  0
  3  8  1  0  0  0  0
  4  5  1  0  0  0  0
  4  8  1  0  0  0  0
  5  6  1  0  0  0  0
  6  7  1  0  0  0  0
  6 15  1  1  0  0  0
  7  8  1  0  0  0  0
  7 16  1  1  0  0  0
  8 13  1  0  0  0  0
  9 12  1  0  0  0  0
 10 12  1  0  0  0  0
 11 12  1  0  0  0  0
 12 17  1  0  0  0  0
  2 18  1  0  0  0  0
  2 19  1  0  0  0  0
  3 20  1  0  0  0  0
  3 21  1  0  0  0  0
  4 22  1  0  0  0  0
  4 23  1  0  0  0  0
  5 24  1  0  0  0  0
  6 25  1  0  0  0  0
  7 26  1  0  0  0  0
  9 27  1  0  0  0  0
  9 28  1  0  0  0  0
  9 29  1  0  0  0  0
 10 30  1  0  0  0  0
 10 31  1  0  0  0  0
 10 32  1  0  0  0  0
 11 33  1  0  0  0  0
 11 34  1  0  0  0  0
 11 35  1  0  0  0  0
 13 36  1  0  0  0  0
 15 37  1  0  0  0  0
 16 38  1  0  0  0  0
M  END
> <id>
EN300-28228706

> <smiles>
CC(C)(C)OC(=O)NC1(CCC2C1)[C@@H](O)[C@H]2O |&1:13,15,r|

> <IUPAC Name>
rac-tert-butyl N-[(2R,3S)-2,3-dihydroxybicyclo[2.2.1]heptan-1-yl]carbamate

> <CAS>
2731011-45-1

> <URL>
https://www.enaminestore.com/catalog/EN300-28228706

> <ROCS_ShapeQuery>
x0812_0A_x1140_0A_x1097_0A_x0365_0A_x1097_0A_x0310_0A

> <ROCS_TanimotoCombo>
0.716 

> <ROCS_ShapeTanimoto>
0.232 

> <ROCS_ColorTanimoto>
0.484 

> <ROCS_RefTversky>
0.211 

> <ROCS_RefColorTversky>
0.617 

> <ROCS_RefTverskyCombo>
0.828 

> <ROCS_FitTversky>
1.712 

> <ROCS_FitColorTversky>
0.692 

> <ROCS_FitTverskyCombo>
2.404 

> <ROCS_ColorScore>
-9.281

> <ROCS_Overlap>
2138.853

> <ROCS_Rank>
170                 

$$$$
untitled-dbase-300491_4
  -OEChem-02092408543D

 39 40  0     1  0  0  0  0  0999 V2000
   10.3394   11.8992   21.3801 C   0  0  0  0  0  0  0  0  0  0  0  0
    9.5023   12.0770   25.1072 C   0  0  0  0  0  0  0  0  0  0  0  0
    8.1955   11.5780   25.7459 C   0  0  0  0  0  0  0  0  0  0  0  0
    7.8947   11.7867   23.3725 C   0  0  0  0  0  0  0  0  0  0  0  0
    9.4293   10.0445   23.6635 C   0  0  0  0  0  0  0  0  0  0  0  0
    9.3779   11.5759   23.6542 C   0  0  2  0  0  0  0  0  0  0  0  0
    7.4901   10.9119   24.5531 C   0  0  2  0  0  0  0  0  0  0  0  0
   10.1439   12.7674   18.6675 C   0  0  0  0  0  0  0  0  0  0  0  0
   12.5677   13.3893   18.8863 C   0  0  0  0  0  0  0  0  0  0  0  0
   11.8644   10.9912   19.1362 C   0  0  0  0  0  0  0  0  0  0  0  0
    6.0106   10.6773   24.7366 C   0  0  0  0  0  0  0  0  0  0  0  0
   11.4649   12.4480   19.3660 C   0  0  0  0  0  0  0  0  0  0  0  0
    5.7754    9.8212   25.8580 N   0  0  0  0  0  0  0  0  0  0  0  0
   10.2751   12.1943   22.7375 N   0  0  0  0  0  0  0  0  0  0  0  0
    9.6366   11.0748   20.8048 O   0  0  0  0  0  0  0  0  0  0  0  0
    8.1855    9.6659   24.3009 O   0  0  0  0  0  0  0  0  0  0  0  0
   11.2993   12.6589   20.7727 O   0  0  0  0  0  0  0  0  0  0  0  0
    9.5428   13.1718   25.1540 H   0  0  0  0  0  0  0  0  0  0  0  0
   10.3847   11.6776   25.6181 H   0  0  0  0  0  0  0  0  0  0  0  0
    8.4024   10.8672   26.5528 H   0  0  0  0  0  0  0  0  0  0  0  0
    7.6223   12.4205   26.1474 H   0  0  0  0  0  0  0  0  0  0  0  0
    7.5621   12.8263   23.4609 H   0  0  0  0  0  0  0  0  0  0  0  0
    7.5862   11.3712   22.4065 H   0  0  0  0  0  0  0  0  0  0  0  0
    9.4287    9.6146   22.6559 H   0  0  0  0  0  0  0  0  0  0  0  0
   10.2693    9.6352   24.2329 H   0  0  0  0  0  0  0  0  0  0  0  0
    9.3498   12.0938   19.0091 H   0  0  0  0  0  0  0  0  0  0  0  0
    9.8286   13.7992   18.8533 H   0  0  0  0  0  0  0  0  0  0  0  0
   10.2288   12.6210   17.5847 H   0  0  0  0  0  0  0  0  0  0  0  0
   13.5173   13.1638   19.3848 H   0  0  0  0  0  0  0  0  0  0  0  0
   12.3282   14.4296   19.1346 H   0  0  0  0  0  0  0  0  0  0  0  0
   12.7184   13.3169   17.8044 H   0  0  0  0  0  0  0  0  0  0  0  0
   12.8119   10.7618   19.6371 H   0  0  0  0  0  0  0  0  0  0  0  0
   11.1009   10.3001   19.5080 H   0  0  0  0  0  0  0  0  0  0  0  0
   12.0228   10.7941   18.0698 H   0  0  0  0  0  0  0  0  0  0  0  0
    5.5299   11.6462   24.9014 H   0  0  0  0  0  0  0  0  0  0  0  0
    5.6240   10.2109   23.8254 H   0  0  0  0  0  0  0  0  0  0  0  0
    5.2870    8.9976   25.5614 H   0  0  0  0  0  0  0  0  0  0  0  0
    6.6487    9.5536   26.2708 H   0  0  0  0  0  0  0  0  0  0  0  0
   10.9170   12.9053   23.1030 H   0  0  0  0  0  0  0  0  0  0  0  0
  1 14  1  0  0  0  0
  1 15  2  0  0  0  0
  1 17  1  0  0  0  0
  2  3  1  0  0  0  0
  2  6  1  0  0  0  0
  3  7  1  0  0  0  0
  4  6  1  0  0  0  0
  4  7  1  0  0  0  0
  5  6  1  0  0  0  0
  5 16  1  0  0  0  0
  6 14  1  0  0  0  0
  7 11  1  0  0  0  0
  7 16  1  0  0  0  0
  8 12  1  0  0  0  0
  9 12  1  0  0  0  0
 10 12  1  0  0  0  0
 11 13  1  0  0  0  0
 12 17  1  0  0  0  0
  2 18  1  0  0  0  0
  2 19  1  0  0  0  0
  3 20  1  0  0  0  0
  3 21  1  0  0  0  0
  4 22  1  0  0  0  0
  4 23  1  0  0  0  0
  5 24  1  0  0  0  0
  5 25  1  0  0  0  0
  8 26  1  0  0  0  0
  8 27  1  0  0  0  0
  8 28  1  0  0  0  0
  9 29  1  0  0  0  0
  9 30  1  0  0  0  0
  9 31  1  0  0  0  0
 10 32  1  0  0  0  0
 10 33  1  0  0  0  0
 10 34  1  0  0  0  0
 11 35  1  0  0  0  0
 11 36  1  0  0  0  0
 13 37  1  0  0  0  0
 13 38  1  0  0  0  0
 14 39  1  0  0  0  0
M  END
> <id>
EN300-6735272

> <smiles>
CC(C)(C)OC(=O)NC1(CCC2(CN)C1)CO2

> <MDLNUMBER>
MFCD31746372

> <IUPAC Name>
tert-butyl N-[1-(aminomethyl)-2-oxabicyclo[2.2.1]heptan-4-yl]carbamate

> <CAS>
2287261-45-2

> <Purity>
95

> <URL>
https://www.enaminestore.com/catalog/EN300-6735272

> <ROCS_ShapeQuery>
x0812_0A_x1140_0A_x1097_0A_x0365_0A_x1097_0A_x0310_0A

> <ROCS_TanimotoCombo>
0.716 

> <ROCS_ShapeTanimoto>
0.216 

> <ROCS_ColorTanimoto>
0.500 

> <ROCS_RefTversky>
0.200 

> <ROCS_RefColorTversky>
0.611 

> <ROCS_RefTverskyCombo>
0.811 

> <ROCS_FitTversky>
1.616 

> <ROCS_FitColorTversky>
0.732 

> <ROCS_FitTverskyCombo>
2.348 

> <ROCS_ColorScore>
-9.169

> <ROCS_Overlap>
2020.365

> <ROCS_Rank>
171                 

$$$$
untitled-dbase-482567_2
  -OEChem-02092408543D

 39 41  0     0  0  0  0  0  0999 V2000
    9.7431   12.1657   22.3578 C   0  0  0  0  0  0  0  0  0  0  0  0
    8.9766   11.9878   24.9240 C   0  0  0  0  0  0  0  0  0  0  0  0
    7.4417   11.5175   23.5785 C   0  0  0  0  0  0  0  0  0  0  0  0
    9.1654    8.9969   22.5156 C   0  0  0  0  0  0  0  0  0  0  0  0
   10.6794    9.4614   23.8429 C   0  0  0  0  0  0  0  0  0  0  0  0
    9.0141   11.4045   23.4545 C   0  0  0  0  0  0  0  0  0  0  0  0
    9.2200    9.8831   23.7516 C   0  0  0  0  0  0  0  0  0  0  0  0
    7.7938   10.9403   25.0091 C   0  0  0  0  0  0  0  0  0  0  0  0
   10.0443   14.5466   20.8291 C   0  0  0  0  0  0  0  0  0  0  0  0
   11.5092   15.3465   22.7062 C   0  0  0  0  0  0  0  0  0  0  0  0
   12.1662   13.3132   21.3863 C   0  0  0  0  0  0  0  0  0  0  0  0
    6.7897   11.0324   26.1219 C   0  0  0  0  0  0  0  0  0  0  0  0
   10.9985   14.1248   21.9454 C   0  0  0  0  0  0  0  0  0  0  0  0
    5.5855   10.3360   25.7781 N   0  0  0  0  0  0  0  0  0  0  0  0
    9.8211   11.7874   21.1968 O   0  0  0  0  0  0  0  0  0  0  0  0
   10.5899    8.7426   22.5882 O   0  0  0  0  0  0  0  0  0  0  0  0
    8.3376    9.5876   24.8616 O   0  0  0  0  0  0  0  0  0  0  0  0
   10.2793   13.3078   22.8747 O   0  0  0  0  0  0  0  0  0  0  0  0
    9.8451   11.7744   25.5540 H   0  0  0  0  0  0  0  0  0  0  0  0
    8.7104   13.0462   25.0263 H   0  0  0  0  0  0  0  0  0  0  0  0
    7.0172   12.5274   23.5418 H   0  0  0  0  0  0  0  0  0  0  0  0
    6.8545   10.8580   22.9324 H   0  0  0  0  0  0  0  0  0  0  0  0
    8.5928    8.0711   22.6290 H   0  0  0  0  0  0  0  0  0  0  0  0
    8.8897    9.4776   21.5727 H   0  0  0  0  0  0  0  0  0  0  0  0
   11.4286   10.2571   23.7993 H   0  0  0  0  0  0  0  0  0  0  0  0
   10.9203    8.7849   24.6690 H   0  0  0  0  0  0  0  0  0  0  0  0
    9.6755   13.6725   20.2806 H   0  0  0  0  0  0  0  0  0  0  0  0
    9.1843   15.0995   21.2209 H   0  0  0  0  0  0  0  0  0  0  0  0
   10.5566   15.1787   20.0948 H   0  0  0  0  0  0  0  0  0  0  0  0
   12.1942   15.0485   23.5081 H   0  0  0  0  0  0  0  0  0  0  0  0
   10.6820   15.8795   23.1889 H   0  0  0  0  0  0  0  0  0  0  0  0
   12.0324   16.0446   22.0448 H   0  0  0  0  0  0  0  0  0  0  0  0
   12.8508   13.0104   22.1869 H   0  0  0  0  0  0  0  0  0  0  0  0
   11.8202   12.4127   20.8686 H   0  0  0  0  0  0  0  0  0  0  0  0
   12.7570   13.9130   20.6846 H   0  0  0  0  0  0  0  0  0  0  0  0
    7.2268   10.5860   27.0231 H   0  0  0  0  0  0  0  0  0  0  0  0
    6.5632   12.0905   26.2998 H   0  0  0  0  0  0  0  0  0  0  0  0
    4.8121   10.9720   25.7897 H   0  0  0  0  0  0  0  0  0  0  0  0
    5.6740    9.9409   24.8621 H   0  0  0  0  0  0  0  0  0  0  0  0
  1  6  1  0  0  0  0
  1 15  2  0  0  0  0
  1 18  1  0  0  0  0
  2  6  1  0  0  0  0
  2  8  1  0  0  0  0
  3  6  1  0  0  0  0
  3  8  1  0  0  0  0
  4  7  1  0  0  0  0
  4 16  1  0  0  0  0
  5  7  1  0  0  0  0
  5 16  1  0  0  0  0
  6  7  1  0  0  0  0
  7 17  1  0  0  0  0
  8 12  1  0  0  0  0
  8 17  1  0  0  0  0
  9 13  1  0  0  0  0
 10 13  1  0  0  0  0
 11 13  1  0  0  0  0
 12 14  1  0  0  0  0
 13 18  1  0  0  0  0
  2 19  1  0  0  0  0
  2 20  1  0  0  0  0
  3 21  1  0  0  0  0
  3 22  1  0  0  0  0
  4 23  1  0  0  0  0
  4 24  1  0  0  0  0
  5 25  1  0  0  0  0
  5 26  1  0  0  0  0
  9 27  1  0  0  0  0
  9 28  1  0  0  0  0
  9 29  1  0  0  0  0
 10 30  1  0  0  0  0
 10 31  1  0  0  0  0
 10 32  1  0  0  0  0
 11 33  1  0  0  0  0
 11 34  1  0  0  0  0
 11 35  1  0  0  0  0
 12 36  1  0  0  0  0
 12 37  1  0  0  0  0
 14 38  1  0  0  0  0
 14 39  1  0  0  0  0
M  END
> <id>
EN300-27728317

> <smiles>
CC(C)(C)OC(=O)C1(CC2(CN)C1)C3(COC3)O2

> <IUPAC Name>
tert-butyl 4-(aminomethyl)-3-oxaspiro[bicyclo[2.1.1]hexane-2,3'-oxetane]-1-carboxylate

> <CAS>
2639411-52-0

> <URL>
https://www.enaminestore.com/catalog/EN300-27728317

> <ROCS_ShapeQuery>
x0812_0A_x1140_0A_x1097_0A_x0365_0A_x1097_0A_x0310_0A

> <ROCS_TanimotoCombo>
0.716 

> <ROCS_ShapeTanimoto>
0.278 

> <ROCS_ColorTanimoto>
0.437 

> <ROCS_RefTversky>
0.246 

> <ROCS_RefColorTversky>
0.584 

> <ROCS_RefTverskyCombo>
0.830 

> <ROCS_FitTversky>
1.914 

> <ROCS_FitColorTversky>
0.635 

> <ROCS_FitTverskyCombo>
2.549 

> <ROCS_ColorScore>
-8.800

> <ROCS_Overlap>
2487.059

> <ROCS_Rank>
172                 

$$$$
untitled-dbase-303236_0
  -OEChem-02092408543D

 20 21  0     1  0  0  0  0  0999 V2000
    7.8379   11.1690   25.4345 C   0  0  0  0  0  0  0  0  0  0  0  0
    7.6914    9.9218   23.3984 C   0  0  0  0  0  0  0  0  0  0  0  0
    9.6322   12.0157   24.0965 C   0  0  0  0  0  0  0  0  0  0  0  0
    7.3317   11.2953   23.9943 C   0  0  2  0  0  0  0  0  0  0  0  0
    9.2609   10.8138   24.9927 C   0  0  2  0  0  0  0  0  0  0  0  0
    8.9950    9.5637   24.1310 C   0  0  2  0  0  0  0  0  0  0  0  0
    8.2919   12.3553   23.4470 C   0  0  0  0  0  0  0  0  0  0  0  0
   10.0404    9.2886   23.2202 O   0  0  0  0  0  0  0  0  0  0  0  0
    7.8916   13.5906   23.8284 F   0  0  0  0  0  0  0  0  0  0  0  0
    8.3553   12.3454   22.1035 F   0  0  0  0  0  0  0  0  0  0  0  0
    7.7819   12.1056   25.9990 H   0  0  0  0  0  0  0  0  0  0  0  0
    7.3464   10.3688   25.9977 H   0  0  0  0  0  0  0  0  0  0  0  0
    6.9129    9.1929   23.6519 H   0  0  0  0  0  0  0  0  0  0  0  0
    7.7972    9.9455   22.3093 H   0  0  0  0  0  0  0  0  0  0  0  0
    9.9797   12.8517   24.7136 H   0  0  0  0  0  0  0  0  0  0  0  0
   10.4064   11.7755   23.3630 H   0  0  0  0  0  0  0  0  0  0  0  0
    6.2782   11.5630   23.8954 H   0  0  0  0  0  0  0  0  0  0  0  0
    9.9819   10.6423   25.7948 H   0  0  0  0  0  0  0  0  0  0  0  0
    8.8398    8.6789   24.7593 H   0  0  0  0  0  0  0  0  0  0  0  0
    9.7549    8.5362   22.6731 H   0  0  0  0  0  0  0  0  0  0  0  0
  1  4  1  6  0  0  0
  1  5  1  6  0  0  0
  2  4  1  0  0  0  0
  2  6  1  0  0  0  0
  3  5  1  0  0  0  0
  3  7  1  0  0  0  0
  4  7  1  0  0  0  0
  5  6  1  0  0  0  0
  6  8  1  1  0  0  0
  7  9  1  0  0  0  0
  7 10  1  0  0  0  0
  1 11  1  0  0  0  0
  1 12  1  0  0  0  0
  2 13  1  0  0  0  0
  2 14  1  0  0  0  0
  3 15  1  0  0  0  0
  3 16  1  0  0  0  0
  4 17  1  0  0  0  0
  5 18  1  0  0  0  0
  6 19  1  0  0  0  0
  8 20  1  0  0  0  0
M  END
> <id>
EN300-7425777

> <smiles>
O[C@@H]1C[C@H]2C[C@@H]1CC2(F)F |&1:1,3,5,r|

> <IUPAC Name>
rac-(1R,2R,4R)-5,5-difluorobicyclo[2.2.1]heptan-2-ol

> <CAS>
1044942-90-6

> <Purity>
95

> <URL>
https://www.enaminestore.com/catalog/EN300-7425777

> <ROCS_ShapeQuery>
x0812_0A_x1140_0A_x1097_0A_x0365_0A_x1097_0A_x0310_0A

> <ROCS_TanimotoCombo>
0.716 

> <ROCS_ShapeTanimoto>
0.186 

> <ROCS_ColorTanimoto>
0.529 

> <ROCS_RefTversky>
0.172 

> <ROCS_RefColorTversky>
0.549 

> <ROCS_RefTverskyCombo>
0.720 

> <ROCS_FitTversky>
1.809 

> <ROCS_FitColorTversky>
0.938 

> <ROCS_FitTverskyCombo>
2.747 

> <ROCS_ColorScore>
-8.116

> <ROCS_Overlap>
1736.144

> <ROCS_Rank>
173                 

$$$$
untitled-dbase-476519_8
  -OEChem-02092408543D

 31 32  0     0  0  0  0  0  0999 V2000
   10.3501   11.7014   22.4788 C   0  0  0  0  0  0  0  0  0  0  0  0
    7.9188   11.8819   22.9799 C   0  0  0  0  0  0  0  0  0  0  0  0
    9.5997   11.8263   24.8636 C   0  0  0  0  0  0  0  0  0  0  0  0
    6.8249   11.4408   23.9604 C   0  0  0  0  0  0  0  0  0  0  0  0
    8.4891   11.3849   25.8249 C   0  0  0  0  0  0  0  0  0  0  0  0
    8.1972    9.4009   24.3492 C   0  0  0  0  0  0  0  0  0  0  0  0
    9.2712   11.3344   23.4495 C   0  0  0  0  0  0  0  0  0  0  0  0
    7.4487   10.5482   25.0518 C   0  0  0  0  0  0  0  0  0  0  0  0
   12.0584   14.2099   21.6704 C   0  0  0  0  0  0  0  0  0  0  0  0
   12.3942   12.8726   22.2953 C   0  0  0  0  0  0  0  0  0  0  0  0
    6.4175   10.0336   25.9437 N   0  0  0  0  0  0  0  0  0  0  0  0
   10.3563   11.3659   21.3022 O   0  0  0  0  0  0  0  0  0  0  0  0
    9.2113    9.9025   23.4608 O   0  0  0  0  0  0  0  0  0  0  0  0
   11.2970   12.4509   23.1117 O   0  0  0  0  0  0  0  0  0  0  0  0
    7.6777   11.4954   21.9812 H   0  0  0  0  0  0  0  0  0  0  0  0
    7.9393   12.9754   22.8998 H   0  0  0  0  0  0  0  0  0  0  0  0
    9.7118   12.9168   24.8895 H   0  0  0  0  0  0  0  0  0  0  0  0
   10.5534   11.4009   25.2013 H   0  0  0  0  0  0  0  0  0  0  0  0
    6.3448   12.3234   24.4022 H   0  0  0  0  0  0  0  0  0  0  0  0
    6.0415   10.9010   23.4128 H   0  0  0  0  0  0  0  0  0  0  0  0
    8.9279   10.8031   26.6457 H   0  0  0  0  0  0  0  0  0  0  0  0
    8.0220   12.2662   26.2824 H   0  0  0  0  0  0  0  0  0  0  0  0
    8.6913    8.7406   25.0717 H   0  0  0  0  0  0  0  0  0  0  0  0
    7.5155    8.7818   23.7542 H   0  0  0  0  0  0  0  0  0  0  0  0
   11.1657   14.1344   21.0433 H   0  0  0  0  0  0  0  0  0  0  0  0
   11.8841   14.9647   22.4442 H   0  0  0  0  0  0  0  0  0  0  0  0
   12.8915   14.5693   21.0571 H   0  0  0  0  0  0  0  0  0  0  0  0
   13.2879   12.9550   22.9211 H   0  0  0  0  0  0  0  0  0  0  0  0
   12.5672   12.1194   21.5208 H   0  0  0  0  0  0  0  0  0  0  0  0
    6.4337    9.0411   25.9024 H   0  0  0  0  0  0  0  0  0  0  0  0
    6.6155   10.3473   26.8653 H   0  0  0  0  0  0  0  0  0  0  0  0
  1  7  1  0  0  0  0
  1 12  2  0  0  0  0
  1 14  1  0  0  0  0
  2  4  1  0  0  0  0
  2  7  1  0  0  0  0
  3  5  1  0  0  0  0
  3  7  1  0  0  0  0
  4  8  1  0  0  0  0
  5  8  1  0  0  0  0
  6  8  1  0  0  0  0
  6 13  1  0  0  0  0
  7 13  1  0  0  0  0
  8 11  1  0  0  0  0
  9 10  1  0  0  0  0
 10 14  1  0  0  0  0
  2 15  1  0  0  0  0
  2 16  1  0  0  0  0
  3 17  1  0  0  0  0
  3 18  1  0  0  0  0
  4 19  1  0  0  0  0
  4 20  1  0  0  0  0
  5 21  1  0  0  0  0
  5 22  1  0  0  0  0
  6 23  1  0  0  0  0
  6 24  1  0  0  0  0
  9 25  1  0  0  0  0
  9 26  1  0  0  0  0
  9 27  1  0  0  0  0
 10 28  1  0  0  0  0
 10 29  1  0  0  0  0
 11 30  1  0  0  0  0
 11 31  1  0  0  0  0
M  END
> <id>
EN300-27729769

> <smiles>
CCOC(=O)C1(CCC2(N)CC1)OC2

> <MDLNUMBER>
MFCD34185727

> <IUPAC Name>
ethyl 4-amino-2-oxabicyclo[2.2.2]octane-1-carboxylate

> <CAS>
2580234-22-4

> <URL>
https://www.enaminestore.com/catalog/EN300-27729769

> <ROCS_ShapeQuery>
x0812_0A_x1140_0A_x1097_0A_x0365_0A_x1097_0A_x0310_0A

> <ROCS_TanimotoCombo>
0.715 

> <ROCS_ShapeTanimoto>
0.236 

> <ROCS_ColorTanimoto>
0.479 

> <ROCS_RefTversky>
0.212 

> <ROCS_RefColorTversky>
0.548 

> <ROCS_RefTverskyCombo>
0.760 

> <ROCS_FitTversky>
1.917 

> <ROCS_FitColorTversky>
0.792 

> <ROCS_FitTverskyCombo>
2.709 

> <ROCS_ColorScore>
-8.158

> <ROCS_Overlap>
2146.588

> <ROCS_Rank>
174                 

$$$$
untitled-dbase-526562_8
  -OEChem-02092408543D

 31 32  0     0  0  0  0  0  0999 V2000
   10.3501   11.7014   22.4788 C   0  0  0  0  0  0  0  0  0  0  0  0
    7.9188   11.8819   22.9799 C   0  0  0  0  0  0  0  0  0  0  0  0
    9.5997   11.8263   24.8636 C   0  0  0  0  0  0  0  0  0  0  0  0
    6.8249   11.4408   23.9604 C   0  0  0  0  0  0  0  0  0  0  0  0
    8.4891   11.3849   25.8249 C   0  0  0  0  0  0  0  0  0  0  0  0
    8.1972    9.4009   24.3492 C   0  0  0  0  0  0  0  0  0  0  0  0
    9.2712   11.3344   23.4495 C   0  0  0  0  0  0  0  0  0  0  0  0
    7.4487   10.5482   25.0518 C   0  0  0  0  0  0  0  0  0  0  0  0
   12.0584   14.2099   21.6704 C   0  0  0  0  0  0  0  0  0  0  0  0
   12.3942   12.8726   22.2953 C   0  0  0  0  0  0  0  0  0  0  0  0
    6.4175   10.0336   25.9437 N   0  0  0  0  0  0  0  0  0  0  0  0
   10.3563   11.3659   21.3022 O   0  0  0  0  0  0  0  0  0  0  0  0
    9.2113    9.9025   23.4608 O   0  0  0  0  0  0  0  0  0  0  0  0
   11.2970   12.4509   23.1117 O   0  0  0  0  0  0  0  0  0  0  0  0
    7.6777   11.4954   21.9812 H   0  0  0  0  0  0  0  0  0  0  0  0
    7.9393   12.9754   22.8998 H   0  0  0  0  0  0  0  0  0  0  0  0
    9.7118   12.9168   24.8895 H   0  0  0  0  0  0  0  0  0  0  0  0
   10.5534   11.4009   25.2013 H   0  0  0  0  0  0  0  0  0  0  0  0
    6.3448   12.3234   24.4022 H   0  0  0  0  0  0  0  0  0  0  0  0
    6.0415   10.9010   23.4128 H   0  0  0  0  0  0  0  0  0  0  0  0
    8.9279   10.8031   26.6457 H   0  0  0  0  0  0  0  0  0  0  0  0
    8.0220   12.2662   26.2824 H   0  0  0  0  0  0  0  0  0  0  0  0
    8.6913    8.7406   25.0717 H   0  0  0  0  0  0  0  0  0  0  0  0
    7.5155    8.7818   23.7542 H   0  0  0  0  0  0  0  0  0  0  0  0
   11.1657   14.1344   21.0433 H   0  0  0  0  0  0  0  0  0  0  0  0
   11.8841   14.9647   22.4442 H   0  0  0  0  0  0  0  0  0  0  0  0
   12.8915   14.5693   21.0571 H   0  0  0  0  0  0  0  0  0  0  0  0
   13.2879   12.9550   22.9211 H   0  0  0  0  0  0  0  0  0  0  0  0
   12.5672   12.1194   21.5208 H   0  0  0  0  0  0  0  0  0  0  0  0
    6.4337    9.0411   25.9024 H   0  0  0  0  0  0  0  0  0  0  0  0
    6.6155   10.3473   26.8653 H   0  0  0  0  0  0  0  0  0  0  0  0
  1  7  1  0  0  0  0
  1 12  2  0  0  0  0
  1 14  1  0  0  0  0
  2  4  1  0  0  0  0
  2  7  1  0  0  0  0
  3  5  1  0  0  0  0
  3  7  1  0  0  0  0
  4  8  1  0  0  0  0
  5  8  1  0  0  0  0
  6  8  1  0  0  0  0
  6 13  1  0  0  0  0
  7 13  1  0  0  0  0
  8 11  1  0  0  0  0
  9 10  1  0  0  0  0
 10 14  1  0  0  0  0
  2 15  1  0  0  0  0
  2 16  1  0  0  0  0
  3 17  1  0  0  0  0
  3 18  1  0  0  0  0
  4 19  1  0  0  0  0
  4 20  1  0  0  0  0
  5 21  1  0  0  0  0
  5 22  1  0  0  0  0
  6 23  1  0  0  0  0
  6 24  1  0  0  0  0
  9 25  1  0  0  0  0
  9 26  1  0  0  0  0
  9 27  1  0  0  0  0
 10 28  1  0  0  0  0
 10 29  1  0  0  0  0
 11 30  1  0  0  0  0
 11 31  1  0  0  0  0
M  END
> <id>
EN300-28332245

> <smiles>
Cl.CCOC(=O)C1(CCC2(N)CC1)OC2

> <MDLNUMBER>
MFCD34475408

> <IUPAC Name>
ethyl 4-amino-2-oxabicyclo[2.2.2]octane-1-carboxylate hydrochloride

> <CAS>
2694744-46-0

> <Purity>
95

> <URL>
https://www.enaminestore.com/catalog/EN300-28332245

> <ROCS_ShapeQuery>
x0812_0A_x1140_0A_x1097_0A_x0365_0A_x1097_0A_x0310_0A

> <ROCS_TanimotoCombo>
0.715 

> <ROCS_ShapeTanimoto>
0.236 

> <ROCS_ColorTanimoto>
0.479 

> <ROCS_RefTversky>
0.212 

> <ROCS_RefColorTversky>
0.548 

> <ROCS_RefTverskyCombo>
0.760 

> <ROCS_FitTversky>
1.917 

> <ROCS_FitColorTversky>
0.792 

> <ROCS_FitTverskyCombo>
2.709 

> <ROCS_ColorScore>
-8.158

> <ROCS_Overlap>
2146.588

> <ROCS_Rank>
175                 

$$$$
untitled-dbase-481677_1
  -OEChem-02092408543D

 30 32  0     1  0  0  0  0  0999 V2000
    7.2456   10.2710   21.9360 C   0  0  0  0  0  0  0  0  0  0  0  0
    6.0996   10.7041   22.8189 C   0  0  0  0  0  0  0  0  0  0  0  0
    7.8009   12.4068   25.0123 C   0  0  0  0  0  0  0  0  0  0  0  0
    8.2180   12.1428   23.5449 C   0  0  1  0  0  0  0  0  0  0  0  0
    8.1201   10.0613   24.4403 C   0  0  1  0  0  0  0  0  0  0  0  0
    9.6993   11.6782   23.5360 C   0  0  1  0  0  0  0  0  0  0  0  0
    9.6301   10.2391   24.1206 C   0  0  2  0  0  0  0  0  0  0  0  0
    7.8012   10.9901   25.6398 C   0  0  2  0  0  0  0  0  0  0  0  0
    7.5157   10.8386   23.3017 C   0  0  0  0  0  0  0  0  0  0  0  0
    6.3814    8.8959   26.4456 N   0  0  0  0  0  0  0  0  0  0  0  0
    6.2873   11.1011   27.7665 O   0  0  0  0  0  0  0  0  0  0  0  0
    5.1924   10.9685   25.4929 O   0  0  0  0  0  0  0  0  0  0  0  0
   10.1987   11.7026   22.2086 O   0  0  0  0  0  0  0  0  0  0  0  0
   10.0374    9.2493   23.1890 O   0  0  0  0  0  0  0  0  0  0  0  0
    6.2600   10.5959   26.4048 S   0  0  0  0  0  0  0  0  0  0  0  0
    7.3845    9.2077   21.7844 H   0  0  0  0  0  0  0  0  0  0  0  0
    7.4696   10.8834   21.0715 H   0  0  0  0  0  0  0  0  0  0  0  0
    5.5657   11.6048   22.5429 H   0  0  0  0  0  0  0  0  0  0  0  0
    5.4801    9.9228   23.2412 H   0  0  0  0  0  0  0  0  0  0  0  0
    8.5006   13.0773   25.5216 H   0  0  0  0  0  0  0  0  0  0  0  0
    6.8057   12.8648   25.0470 H   0  0  0  0  0  0  0  0  0  0  0  0
    7.9869   12.9518   22.8483 H   0  0  0  0  0  0  0  0  0  0  0  0
    7.7905    9.0237   24.5332 H   0  0  0  0  0  0  0  0  0  0  0  0
   10.3195   12.3386   24.1517 H   0  0  0  0  0  0  0  0  0  0  0  0
   10.2422   10.1349   25.0229 H   0  0  0  0  0  0  0  0  0  0  0  0
    8.5508   10.9025   26.4337 H   0  0  0  0  0  0  0  0  0  0  0  0
    6.5241    8.4483   27.3594 H   0  0  0  0  0  0  0  0  0  0  0  0
    5.7786    8.3580   25.8108 H   0  0  0  0  0  0  0  0  0  0  0  0
   10.1254   12.6196   21.8956 H   0  0  0  0  0  0  0  0  0  0  0  0
    9.8732    8.3863   23.6040 H   0  0  0  0  0  0  0  0  0  0  0  0
  1  2  1  0  0  0  0
  1  9  1  0  0  0  0
  2  9  1  0  0  0  0
  3  4  1  6  0  0  0
  3  8  1  0  0  0  0
  4  6  1  0  0  0  0
  4  9  1  0  0  0  0
  5  7  1  0  0  0  0
  5  8  1  0  0  0  0
  5  9  1  1  0  0  0
  6  7  1  0  0  0  0
  6 13  1  1  0  0  0
  7 14  1  1  0  0  0
  8 15  1  1  0  0  0
 10 15  1  0  0  0  0
 11 15  2  0  0  0  0
 12 15  2  0  0  0  0
  1 16  1  0  0  0  0
  1 17  1  0  0  0  0
  2 18  1  0  0  0  0
  2 19  1  0  0  0  0
  3 20  1  0  0  0  0
  3 21  1  0  0  0  0
  4 22  1  0  0  0  0
  5 23  1  0  0  0  0
  6 24  1  0  0  0  0
  7 25  1  0  0  0  0
  8 26  1  0  0  0  0
 10 27  1  0  0  0  0
 10 28  1  0  0  0  0
 13 29  1  0  0  0  0
 14 30  1  0  0  0  0
M  END
> <id>
EN300-27734386

> <smiles>
NS(=O)(=O)[C@@H]1C[C@H]2[C@H](O)[C@H](O)[C@@H]1C32CC3 |&1:4,6,7,9,11,r|

> <IUPAC Name>
rac-(1R,2S,3R,4S,6S)-2,3-dihydroxyspiro[bicyclo[2.2.1]heptane-7,1'-cyclopropane]-6-sulfonamide

> <CAS>
2580113-88-6

> <URL>
https://www.enaminestore.com/catalog/EN300-27734386

> <ROCS_ShapeQuery>
x0812_0A_x1140_0A_x1097_0A_x0365_0A_x1097_0A_x0310_0A

> <ROCS_TanimotoCombo>
0.715 

> <ROCS_ShapeTanimoto>
0.239 

> <ROCS_ColorTanimoto>
0.476 

> <ROCS_RefTversky>
0.215 

> <ROCS_RefColorTversky>
0.611 

> <ROCS_RefTverskyCombo>
0.826 

> <ROCS_FitTversky>
1.886 

> <ROCS_FitColorTversky>
0.684 

> <ROCS_FitTverskyCombo>
2.570 

> <ROCS_ColorScore>
-9.191

> <ROCS_Overlap>
2172.577

> <ROCS_Rank>
176                 

$$$$
untitled-dbase-97903_1
  -OEChem-02092408543D

 23 24  0     0  0  0  0  0  0999 V2000
    8.3151   11.8511   25.2112 C   0  0  0  0  0  0  0  0  0  0  0  0
    7.7943   11.6369   23.1933 C   0  0  0  0  0  0  0  0  0  0  0  0
    9.5187   10.0806   24.0008 C   0  0  0  0  0  0  0  0  0  0  0  0
    9.1862   11.5870   23.9269 C   0  0  0  0  0  0  0  0  0  0  0  0
    7.4375   10.7719   24.4647 C   0  0  0  0  0  0  0  0  0  0  0  0
   10.3021   12.5101   23.5402 C   0  0  0  0  0  0  0  0  0  0  0  0
    6.0141   10.5182   24.8582 C   0  0  0  0  0  0  0  0  0  0  0  0
    5.9308   10.0846   26.2227 N   0  0  0  0  0  0  0  0  0  0  0  0
    8.2360    9.5589   24.3874 O   0  0  0  0  0  0  0  0  0  0  0  0
   10.6180   12.3265   22.1632 O   0  0  0  0  0  0  0  0  0  0  0  0
    8.7527   11.5379   26.1636 H   0  0  0  0  0  0  0  0  0  0  0  0
    7.8845   12.8525   25.3214 H   0  0  0  0  0  0  0  0  0  0  0  0
    7.3132   12.6175   23.1075 H   0  0  0  0  0  0  0  0  0  0  0  0
    7.7379   11.1201   22.2309 H   0  0  0  0  0  0  0  0  0  0  0  0
    9.8116    9.6641   23.0328 H   0  0  0  0  0  0  0  0  0  0  0  0
   10.2604    9.8482   24.7703 H   0  0  0  0  0  0  0  0  0  0  0  0
   11.2083   12.3087   24.1291 H   0  0  0  0  0  0  0  0  0  0  0  0
   10.0193   13.5620   23.6892 H   0  0  0  0  0  0  0  0  0  0  0  0
    5.4445   11.4484   24.7362 H   0  0  0  0  0  0  0  0  0  0  0  0
    5.6016    9.7403   24.2030 H   0  0  0  0  0  0  0  0  0  0  0  0
    5.5119    9.1764   26.2627 H   0  0  0  0  0  0  0  0  0  0  0  0
    6.8492   10.0431   26.6190 H   0  0  0  0  0  0  0  0  0  0  0  0
   11.3405   12.9411   21.9607 H   0  0  0  0  0  0  0  0  0  0  0  0
  1  4  1  0  0  0  0
  1  5  1  0  0  0  0
  2  4  1  0  0  0  0
  2  5  1  0  0  0  0
  3  4  1  0  0  0  0
  3  9  1  0  0  0  0
  4  6  1  0  0  0  0
  5  7  1  0  0  0  0
  5  9  1  0  0  0  0
  6 10  1  0  0  0  0
  7  8  1  0  0  0  0
  1 11  1  0  0  0  0
  1 12  1  0  0  0  0
  2 13  1  0  0  0  0
  2 14  1  0  0  0  0
  3 15  1  0  0  0  0
  3 16  1  0  0  0  0
  6 17  1  0  0  0  0
  6 18  1  0  0  0  0
  7 19  1  0  0  0  0
  7 20  1  0  0  0  0
  8 21  1  0  0  0  0
  8 22  1  0  0  0  0
 10 23  1  0  0  0  0
M  END
> <id>
EN300-396744

> <smiles>
NCC1(CC2(CO)C1)OC2

> <MDLNUMBER>
MFCD31421478

> <IUPAC Name>
[1-(aminomethyl)-2-oxabicyclo[2.1.1]hexan-4-yl]methanol

> <CAS>
2137574-46-8

> <Purity>
95

> <URL>
https://www.enaminestore.com/catalog/EN300-396744

> <ROCS_ShapeQuery>
x0812_0A_x1140_0A_x1097_0A_x0365_0A_x1097_0A_x0310_0A

> <ROCS_TanimotoCombo>
0.715 

> <ROCS_ShapeTanimoto>
0.201 

> <ROCS_ColorTanimoto>
0.514 

> <ROCS_RefTversky>
0.183 

> <ROCS_RefColorTversky>
0.611 

> <ROCS_RefTverskyCombo>
0.794 

> <ROCS_FitTversky>
1.963 

> <ROCS_FitColorTversky>
0.765 

> <ROCS_FitTverskyCombo>
2.728 

> <ROCS_ColorScore>
-9.139

> <ROCS_Overlap>
1849.304

> <ROCS_Rank>
177                 

$$$$
untitled-dbase-100571_1
  -OEChem-02092408543D

 23 24  0     0  0  0  0  0  0999 V2000
    8.3151   11.8511   25.2112 C   0  0  0  0  0  0  0  0  0  0  0  0
    7.7943   11.6369   23.1933 C   0  0  0  0  0  0  0  0  0  0  0  0
    9.5187   10.0806   24.0008 C   0  0  0  0  0  0  0  0  0  0  0  0
    9.1862   11.5870   23.9269 C   0  0  0  0  0  0  0  0  0  0  0  0
    7.4375   10.7719   24.4647 C   0  0  0  0  0  0  0  0  0  0  0  0
   10.3021   12.5101   23.5402 C   0  0  0  0  0  0  0  0  0  0  0  0
    6.0141   10.5182   24.8582 C   0  0  0  0  0  0  0  0  0  0  0  0
    5.9308   10.0846   26.2227 N   0  0  0  0  0  0  0  0  0  0  0  0
    8.2360    9.5589   24.3874 O   0  0  0  0  0  0  0  0  0  0  0  0
   10.6180   12.3265   22.1632 O   0  0  0  0  0  0  0  0  0  0  0  0
    8.7527   11.5379   26.1636 H   0  0  0  0  0  0  0  0  0  0  0  0
    7.8845   12.8525   25.3214 H   0  0  0  0  0  0  0  0  0  0  0  0
    7.3132   12.6175   23.1075 H   0  0  0  0  0  0  0  0  0  0  0  0
    7.7379   11.1201   22.2309 H   0  0  0  0  0  0  0  0  0  0  0  0
    9.8116    9.6641   23.0328 H   0  0  0  0  0  0  0  0  0  0  0  0
   10.2604    9.8482   24.7703 H   0  0  0  0  0  0  0  0  0  0  0  0
   11.2083   12.3087   24.1291 H   0  0  0  0  0  0  0  0  0  0  0  0
   10.0193   13.5620   23.6892 H   0  0  0  0  0  0  0  0  0  0  0  0
    5.4445   11.4484   24.7362 H   0  0  0  0  0  0  0  0  0  0  0  0
    5.6016    9.7403   24.2030 H   0  0  0  0  0  0  0  0  0  0  0  0
    5.5119    9.1764   26.2627 H   0  0  0  0  0  0  0  0  0  0  0  0
    6.8492   10.0431   26.6190 H   0  0  0  0  0  0  0  0  0  0  0  0
   11.3405   12.9411   21.9607 H   0  0  0  0  0  0  0  0  0  0  0  0
  1  4  1  0  0  0  0
  1  5  1  0  0  0  0
  2  4  1  0  0  0  0
  2  5  1  0  0  0  0
  3  4  1  0  0  0  0
  3  9  1  0  0  0  0
  4  6  1  0  0  0  0
  5  7  1  0  0  0  0
  5  9  1  0  0  0  0
  6 10  1  0  0  0  0
  7  8  1  0  0  0  0
  1 11  1  0  0  0  0
  1 12  1  0  0  0  0
  2 13  1  0  0  0  0
  2 14  1  0  0  0  0
  3 15  1  0  0  0  0
  3 16  1  0  0  0  0
  6 17  1  0  0  0  0
  6 18  1  0  0  0  0
  7 19  1  0  0  0  0
  7 20  1  0  0  0  0
  8 21  1  0  0  0  0
  8 22  1  0  0  0  0
 10 23  1  0  0  0  0
M  END
> <id>
EN300-702542

> <smiles>
Cl.NCC1(CC2(CO)C1)OC2

> <MDLNUMBER>
MFCD31433959

> <IUPAC Name>
[1-(aminomethyl)-2-oxabicyclo[2.1.1]hexan-4-yl]methanol hydrochloride

> <CAS>
2138150-58-8

> <Purity>
95

> <URL>
https://www.enaminestore.com/catalog/EN300-702542

> <Saltdate>
Cl

> <ROCS_ShapeQuery>
x0812_0A_x1140_0A_x1097_0A_x0365_0A_x1097_0A_x0310_0A

> <ROCS_TanimotoCombo>
0.715 

> <ROCS_ShapeTanimoto>
0.201 

> <ROCS_ColorTanimoto>
0.514 

> <ROCS_RefTversky>
0.183 

> <ROCS_RefColorTversky>
0.611 

> <ROCS_RefTverskyCombo>
0.794 

> <ROCS_FitTversky>
1.963 

> <ROCS_FitColorTversky>
0.765 

> <ROCS_FitTverskyCombo>
2.728 

> <ROCS_ColorScore>
-9.139

> <ROCS_Overlap>
1849.304

> <ROCS_Rank>
178                 

$$$$
untitled-dbase-305278_1
  -OEChem-02092408543D

 22 23  0     0  0  0  0  0  0999 V2000
    9.3173   11.6814   25.0061 C   0  0  0  0  0  0  0  0  0  0  0  0
    7.5544   11.9177   23.8991 C   0  0  0  0  0  0  0  0  0  0  0  0
    8.9527   10.0031   23.2458 C   0  0  0  0  0  0  0  0  0  0  0  0
    9.0179   11.5301   23.4681 C   0  0  0  0  0  0  0  0  0  0  0  0
    7.9472   10.8979   25.0383 C   0  0  0  0  0  0  0  0  0  0  0  0
    7.1414   10.7896   26.2969 C   0  0  0  0  0  0  0  0  0  0  0  0
    9.7659   12.3332   22.4471 C   0  0  0  0  0  0  0  0  0  0  0  0
    5.9408   10.0381   26.0719 N   0  0  0  0  0  0  0  0  0  0  0  0
    8.1797    9.6149   24.3941 O   0  0  0  0  0  0  0  0  0  0  0  0
   11.0928   12.0828   22.5055 F   0  0  0  0  0  0  0  0  0  0  0  0
    9.3470   12.0431   21.1953 F   0  0  0  0  0  0  0  0  0  0  0  0
    9.5885   13.6587   22.6436 F   0  0  0  0  0  0  0  0  0  0  0  0
   10.1889   11.1389   25.3835 H   0  0  0  0  0  0  0  0  0  0  0  0
    9.3182   12.6984   25.4138 H   0  0  0  0  0  0  0  0  0  0  0  0
    7.3842   12.9576   24.1991 H   0  0  0  0  0  0  0  0  0  0  0  0
    6.7533   11.5990   23.2259 H   0  0  0  0  0  0  0  0  0  0  0  0
    8.4188    9.7313   22.3307 H   0  0  0  0  0  0  0  0  0  0  0  0
    9.9369    9.5276   23.2836 H   0  0  0  0  0  0  0  0  0  0  0  0
    7.7483   10.2866   27.0606 H   0  0  0  0  0  0  0  0  0  0  0  0
    6.8803   11.8006   26.6352 H   0  0  0  0  0  0  0  0  0  0  0  0
    5.1435   10.6066   26.2797 H   0  0  0  0  0  0  0  0  0  0  0  0
    5.9000    9.7483   25.1146 H   0  0  0  0  0  0  0  0  0  0  0  0
  1  4  1  0  0  0  0
  1  5  1  0  0  0  0
  2  4  1  0  0  0  0
  2  5  1  0  0  0  0
  3  4  1  0  0  0  0
  3  9  1  0  0  0  0
  4  7  1  0  0  0  0
  5  6  1  0  0  0  0
  5  9  1  0  0  0  0
  6  8  1  0  0  0  0
  7 10  1  0  0  0  0
  7 11  1  0  0  0  0
  7 12  1  0  0  0  0
  1 13  1  0  0  0  0
  1 14  1  0  0  0  0
  2 15  1  0  0  0  0
  2 16  1  0  0  0  0
  3 17  1  0  0  0  0
  3 18  1  0  0  0  0
  6 19  1  0  0  0  0
  6 20  1  0  0  0  0
  8 21  1  0  0  0  0
  8 22  1  0  0  0  0
M  END
> <id>
EN300-6740054

> <smiles>
NCC1(CC2(C1)C(F)(F)F)OC2

> <MDLNUMBER>
MFCD32066566

> <IUPAC Name>
[4-(trifluoromethyl)-2-oxabicyclo[2.1.1]hexan-1-yl]methanamine

> <CAS>
2361635-48-3

> <URL>
https://www.enaminestore.com/catalog/EN300-6740054

> <ROCS_ShapeQuery>
x0812_0A_x1140_0A_x1097_0A_x0365_0A_x1097_0A_x0310_0A

> <ROCS_TanimotoCombo>
0.715 

> <ROCS_ShapeTanimoto>
0.223 

> <ROCS_ColorTanimoto>
0.492 

> <ROCS_RefTversky>
0.201 

> <ROCS_RefColorTversky>
0.553 

> <ROCS_RefTverskyCombo>
0.754 

> <ROCS_FitTversky>
1.947 

> <ROCS_FitColorTversky>
0.818 

> <ROCS_FitTverskyCombo>
2.765 

> <ROCS_ColorScore>
-8.218

> <ROCS_Overlap>
2033.686

> <ROCS_Rank>
179                 

$$$$
untitled-dbase-412901_1
  -OEChem-02092408543D

 22 23  0     0  0  0  0  0  0999 V2000
    9.3173   11.6814   25.0061 C   0  0  0  0  0  0  0  0  0  0  0  0
    7.5544   11.9177   23.8991 C   0  0  0  0  0  0  0  0  0  0  0  0
    8.9527   10.0031   23.2458 C   0  0  0  0  0  0  0  0  0  0  0  0
    9.0179   11.5301   23.4681 C   0  0  0  0  0  0  0  0  0  0  0  0
    7.9472   10.8979   25.0383 C   0  0  0  0  0  0  0  0  0  0  0  0
    7.1414   10.7896   26.2969 C   0  0  0  0  0  0  0  0  0  0  0  0
    9.7659   12.3332   22.4471 C   0  0  0  0  0  0  0  0  0  0  0  0
    5.9408   10.0381   26.0719 N   0  0  0  0  0  0  0  0  0  0  0  0
    8.1797    9.6149   24.3941 O   0  0  0  0  0  0  0  0  0  0  0  0
   11.0928   12.0828   22.5055 F   0  0  0  0  0  0  0  0  0  0  0  0
    9.3470   12.0431   21.1953 F   0  0  0  0  0  0  0  0  0  0  0  0
    9.5885   13.6587   22.6436 F   0  0  0  0  0  0  0  0  0  0  0  0
   10.1889   11.1389   25.3835 H   0  0  0  0  0  0  0  0  0  0  0  0
    9.3182   12.6984   25.4138 H   0  0  0  0  0  0  0  0  0  0  0  0
    7.3842   12.9576   24.1991 H   0  0  0  0  0  0  0  0  0  0  0  0
    6.7533   11.5990   23.2259 H   0  0  0  0  0  0  0  0  0  0  0  0
    8.4188    9.7313   22.3307 H   0  0  0  0  0  0  0  0  0  0  0  0
    9.9369    9.5276   23.2836 H   0  0  0  0  0  0  0  0  0  0  0  0
    7.7483   10.2866   27.0606 H   0  0  0  0  0  0  0  0  0  0  0  0
    6.8803   11.8006   26.6352 H   0  0  0  0  0  0  0  0  0  0  0  0
    5.1435   10.6066   26.2797 H   0  0  0  0  0  0  0  0  0  0  0  0
    5.9000    9.7483   25.1146 H   0  0  0  0  0  0  0  0  0  0  0  0
  1  4  1  0  0  0  0
  1  5  1  0  0  0  0
  2  4  1  0  0  0  0
  2  5  1  0  0  0  0
  3  4  1  0  0  0  0
  3  9  1  0  0  0  0
  4  7  1  0  0  0  0
  5  6  1  0  0  0  0
  5  9  1  0  0  0  0
  6  8  1  0  0  0  0
  7 10  1  0  0  0  0
  7 11  1  0  0  0  0
  7 12  1  0  0  0  0
  1 13  1  0  0  0  0
  1 14  1  0  0  0  0
  2 15  1  0  0  0  0
  2 16  1  0  0  0  0
  3 17  1  0  0  0  0
  3 18  1  0  0  0  0
  6 19  1  0  0  0  0
  6 20  1  0  0  0  0
  8 21  1  0  0  0  0
  8 22  1  0  0  0  0
M  END
> <id>
EN300-7432909

> <smiles>
Cl.NCC1(CC2(C1)C(F)(F)F)OC2

> <MDLNUMBER>
MFCD32066641

> <IUPAC Name>
[4-(trifluoromethyl)-2-oxabicyclo[2.1.1]hexan-1-yl]methanamine hydrochloride

> <CAS>
2361643-77-6

> <Purity>
95

> <URL>
https://www.enaminestore.com/catalog/EN300-7432909

> <Saltdate>
Cl

> <ROCS_ShapeQuery>
x0812_0A_x1140_0A_x1097_0A_x0365_0A_x1097_0A_x0310_0A

> <ROCS_TanimotoCombo>
0.715 

> <ROCS_ShapeTanimoto>
0.223 

> <ROCS_ColorTanimoto>
0.492 

> <ROCS_RefTversky>
0.201 

> <ROCS_RefColorTversky>
0.553 

> <ROCS_RefTverskyCombo>
0.754 

> <ROCS_FitTversky>
1.947 

> <ROCS_FitColorTversky>
0.818 

> <ROCS_FitTverskyCombo>
2.765 

> <ROCS_ColorScore>
-8.218

> <ROCS_Overlap>
2033.686

> <ROCS_Rank>
180                 

$$$$
untitled-dbase-475319_0
  -OEChem-02092408543D

 34 35  0     0  0  0  0  0  0999 V2000
    9.8782   11.9800   22.0342 C   0  0  0  0  0  0  0  0  0  0  0  0
    7.9172   12.4230   23.5243 C   0  0  0  0  0  0  0  0  0  0  0  0
   10.0646   11.6055   24.4890 C   0  0  0  0  0  0  0  0  0  0  0  0
    7.1457   11.8787   24.7319 C   0  0  0  0  0  0  0  0  0  0  0  0
    9.3243   11.0497   25.7109 C   0  0  0  0  0  0  0  0  0  0  0  0
    8.6558   10.0854   23.1205 C   0  0  0  0  0  0  0  0  0  0  0  0
    9.1429   11.5342   23.2621 C   0  0  0  0  0  0  0  0  0  0  0  0
    7.8867   10.6619   25.3167 C   0  0  0  0  0  0  0  0  0  0  0  0
   11.4166   15.2440   21.4273 C   0  0  0  0  0  0  0  0  0  0  0  0
    7.1303   10.0768   26.5045 C   0  0  0  0  0  0  0  0  0  0  0  0
   11.0212   13.8215   21.0928 C   0  0  0  0  0  0  0  0  0  0  0  0
    5.8295    9.6640   26.0946 N   0  0  0  0  0  0  0  0  0  0  0  0
   10.0584   11.2758   21.0499 O   0  0  0  0  0  0  0  0  0  0  0  0
    7.9580    9.6472   24.2964 O   0  0  0  0  0  0  0  0  0  0  0  0
   10.2998   13.2664   22.1971 O   0  0  0  0  0  0  0  0  0  0  0  0
    7.2613   12.4523   22.6448 H   0  0  0  0  0  0  0  0  0  0  0  0
    8.2202   13.4613   23.7101 H   0  0  0  0  0  0  0  0  0  0  0  0
   10.3813   12.6390   24.6790 H   0  0  0  0  0  0  0  0  0  0  0  0
   10.9861   11.0338   24.3197 H   0  0  0  0  0  0  0  0  0  0  0  0
    7.0244   12.6660   25.4853 H   0  0  0  0  0  0  0  0  0  0  0  0
    6.1411   11.5854   24.4023 H   0  0  0  0  0  0  0  0  0  0  0  0
    9.8652   10.1679   26.0765 H   0  0  0  0  0  0  0  0  0  0  0  0
    9.3253   11.7905   26.5191 H   0  0  0  0  0  0  0  0  0  0  0  0
    7.9771    9.9739   22.2669 H   0  0  0  0  0  0  0  0  0  0  0  0
    9.4916    9.3961   22.9527 H   0  0  0  0  0  0  0  0  0  0  0  0
   10.5331   15.8613   21.6126 H   0  0  0  0  0  0  0  0  0  0  0  0
   12.0573   15.2681   22.3149 H   0  0  0  0  0  0  0  0  0  0  0  0
   11.9917   15.6875   20.6076 H   0  0  0  0  0  0  0  0  0  0  0  0
    7.7045    9.2255   26.8681 H   0  0  0  0  0  0  0  0  0  0  0  0
    7.0627   10.8561   27.2626 H   0  0  0  0  0  0  0  0  0  0  0  0
   11.9093   13.2096   20.9086 H   0  0  0  0  0  0  0  0  0  0  0  0
   10.3805   13.7994   20.2063 H   0  0  0  0  0  0  0  0  0  0  0  0
    5.1291   10.1420   26.6325 H   0  0  0  0  0  0  0  0  0  0  0  0
    5.6905    9.8745   25.1226 H   0  0  0  0  0  0  0  0  0  0  0  0
  1  7  1  0  0  0  0
  1 13  2  0  0  0  0
  1 15  1  0  0  0  0
  2  4  1  0  0  0  0
  2  7  1  0  0  0  0
  3  5  1  0  0  0  0
  3  7  1  0  0  0  0
  4  8  1  0  0  0  0
  5  8  1  0  0  0  0
  6  7  1  0  0  0  0
  6 14  1  0  0  0  0
  8 10  1  0  0  0  0
  8 14  1  0  0  0  0
  9 11  1  0  0  0  0
 10 12  1  0  0  0  0
 11 15  1  0  0  0  0
  2 16  1  0  0  0  0
  2 17  1  0  0  0  0
  3 18  1  0  0  0  0
  3 19  1  0  0  0  0
  4 20  1  0  0  0  0
  4 21  1  0  0  0  0
  5 22  1  0  0  0  0
  5 23  1  0  0  0  0
  6 24  1  0  0  0  0
  6 25  1  0  0  0  0
  9 26  1  0  0  0  0
  9 27  1  0  0  0  0
  9 28  1  0  0  0  0
 10 29  1  0  0  0  0
 10 30  1  0  0  0  0
 11 31  1  0  0  0  0
 11 32  1  0  0  0  0
 12 33  1  0  0  0  0
 12 34  1  0  0  0  0
M  END
> <id>
EN300-27727438

> <smiles>
CCOC(=O)C1(CCC2(CN)CC1)CO2

> <IUPAC Name>
ethyl 1-(aminomethyl)-2-oxabicyclo[2.2.2]octane-4-carboxylate

> <CAS>
2459740-31-7

> <URL>
https://www.enaminestore.com/catalog/EN300-27727438

> <ROCS_ShapeQuery>
x0812_0A_x1140_0A_x1097_0A_x0365_0A_x1097_0A_x0310_0A

> <ROCS_TanimotoCombo>
0.715 

> <ROCS_ShapeTanimoto>
0.231 

> <ROCS_ColorTanimoto>
0.484 

> <ROCS_RefTversky>
0.209 

> <ROCS_RefColorTversky>
0.552 

> <ROCS_RefTverskyCombo>
0.761 

> <ROCS_FitTversky>
1.830 

> <ROCS_FitColorTversky>
0.797 

> <ROCS_FitTverskyCombo>
2.627 

> <ROCS_ColorScore>
-8.208

> <ROCS_Overlap>
2118.864

> <ROCS_Rank>
181                 

$$$$
untitled-dbase-393161_3
  -OEChem-02092408543D

 39 41  0     0  0  0  0  0  0999 V2000
    9.7975   12.1088   22.3861 C   0  0  0  0  0  0  0  0  0  0  0  0
    8.6615    9.0843   22.3047 C   0  0  0  0  0  0  0  0  0  0  0  0
   10.6206    9.3542   23.8624 C   0  0  0  0  0  0  0  0  0  0  0  0
    9.1147   11.8464   24.9698 C   0  0  0  0  0  0  0  0  0  0  0  0
    7.4972   11.6237   23.6843 C   0  0  0  0  0  0  0  0  0  0  0  0
    8.8877    7.5787   22.4049 C   0  0  0  0  0  0  0  0  0  0  0  0
   10.7269    7.8320   23.8681 C   0  0  0  0  0  0  0  0  0  0  0  0
    9.0411   11.3518   23.4684 C   0  0  0  0  0  0  0  0  0  0  0  0
    9.1896    9.8037   23.5501 C   0  0  0  0  0  0  0  0  0  0  0  0
    7.8662   10.8863   25.0274 C   0  0  0  0  0  0  0  0  0  0  0  0
   11.8844   15.0856   22.8012 C   0  0  0  0  0  0  0  0  0  0  0  0
    6.9329   10.8987   26.1998 C   0  0  0  0  0  0  0  0  0  0  0  0
   11.2158   13.9655   22.0330 C   0  0  0  0  0  0  0  0  0  0  0  0
    5.6659   10.3255   25.8498 N   0  0  0  0  0  0  0  0  0  0  0  0
    9.7958   11.7965   21.2030 O   0  0  0  0  0  0  0  0  0  0  0  0
   10.2644    7.2875   22.6341 O   0  0  0  0  0  0  0  0  0  0  0  0
    8.3277    9.5477   24.6785 O   0  0  0  0  0  0  0  0  0  0  0  0
   10.4581   13.1629   22.9440 O   0  0  0  0  0  0  0  0  0  0  0  0
    9.1874    9.4604   21.4192 H   0  0  0  0  0  0  0  0  0  0  0  0
    7.5916    9.2593   22.1540 H   0  0  0  0  0  0  0  0  0  0  0  0
   10.9620    9.7232   24.8343 H   0  0  0  0  0  0  0  0  0  0  0  0
   11.3000    9.7515   23.0989 H   0  0  0  0  0  0  0  0  0  0  0  0
    9.9802   11.5394   25.5613 H   0  0  0  0  0  0  0  0  0  0  0  0
    8.9339   12.9128   25.1504 H   0  0  0  0  0  0  0  0  0  0  0  0
    7.1841   12.6721   23.7597 H   0  0  0  0  0  0  0  0  0  0  0  0
    6.7960   11.1012   23.0298 H   0  0  0  0  0  0  0  0  0  0  0  0
    8.2811    7.1340   23.2024 H   0  0  0  0  0  0  0  0  0  0  0  0
    8.5977    7.0976   21.4651 H   0  0  0  0  0  0  0  0  0  0  0  0
   11.7731    7.5348   23.9918 H   0  0  0  0  0  0  0  0  0  0  0  0
   10.1604    7.3931   24.6980 H   0  0  0  0  0  0  0  0  0  0  0  0
   11.1410   15.7209   23.2908 H   0  0  0  0  0  0  0  0  0  0  0  0
   12.5606   14.6820   23.5619 H   0  0  0  0  0  0  0  0  0  0  0  0
   12.4914   15.7039   22.1316 H   0  0  0  0  0  0  0  0  0  0  0  0
    7.3838   10.3168   27.0137 H   0  0  0  0  0  0  0  0  0  0  0  0
    6.7866   11.9378   26.5212 H   0  0  0  0  0  0  0  0  0  0  0  0
   11.9647   13.3340   21.5458 H   0  0  0  0  0  0  0  0  0  0  0  0
   10.5399   14.3705   21.2739 H   0  0  0  0  0  0  0  0  0  0  0  0
    4.9409   11.0026   25.9845 H   0  0  0  0  0  0  0  0  0  0  0  0
    5.6788   10.0415   24.8899 H   0  0  0  0  0  0  0  0  0  0  0  0
  1  8  1  0  0  0  0
  1 15  2  0  0  0  0
  1 18  1  0  0  0  0
  2  6  1  0  0  0  0
  2  9  1  0  0  0  0
  3  7  1  0  0  0  0
  3  9  1  0  0  0  0
  4  8  1  0  0  0  0
  4 10  1  0  0  0  0
  5  8  1  0  0  0  0
  5 10  1  0  0  0  0
  6 16  1  0  0  0  0
  7 16  1  0  0  0  0
  8  9  1  0  0  0  0
  9 17  1  0  0  0  0
 10 12  1  0  0  0  0
 10 17  1  0  0  0  0
 11 13  1  0  0  0  0
 12 14  1  0  0  0  0
 13 18  1  0  0  0  0
  2 19  1  0  0  0  0
  2 20  1  0  0  0  0
  3 21  1  0  0  0  0
  3 22  1  0  0  0  0
  4 23  1  0  0  0  0
  4 24  1  0  0  0  0
  5 25  1  0  0  0  0
  5 26  1  0  0  0  0
  6 27  1  0  0  0  0
  6 28  1  0  0  0  0
  7 29  1  0  0  0  0
  7 30  1  0  0  0  0
 11 31  1  0  0  0  0
 11 32  1  0  0  0  0
 11 33  1  0  0  0  0
 12 34  1  0  0  0  0
 12 35  1  0  0  0  0
 13 36  1  0  0  0  0
 13 37  1  0  0  0  0
 14 38  1  0  0  0  0
 14 39  1  0  0  0  0
M  END
> <id>
EN300-1720693

> <smiles>
Cl.CCOC(=O)C1(CC2(CN)C1)C3(CCOCC3)O2

> <MDLNUMBER>
MFCD31666013

> <IUPAC Name>
ethyl 4-(aminomethyl)-3-oxaspiro[bicyclo[2.1.1]hexane-2,4'-oxane]-1-carboxylate hydrochloride

> <CAS>
2225146-83-6

> <Purity>
95

> <URL>
https://www.enaminestore.com/catalog/EN300-1720693

> <Saltdate>
Cl

> <ROCS_ShapeQuery>
x0812_0A_x1140_0A_x1097_0A_x0365_0A_x1097_0A_x0310_0A

> <ROCS_TanimotoCombo>
0.715 

> <ROCS_ShapeTanimoto>
0.264 

> <ROCS_ColorTanimoto>
0.451 

> <ROCS_RefTversky>
0.235 

> <ROCS_RefColorTversky>
0.577 

> <ROCS_RefTverskyCombo>
0.813 

> <ROCS_FitTversky>
1.843 

> <ROCS_FitColorTversky>
0.674 

> <ROCS_FitTverskyCombo>
2.516 

> <ROCS_ColorScore>
-8.672

> <ROCS_Overlap>
2382.015

> <ROCS_Rank>
182                 

$$$$
untitled-dbase-166299_3
  -OEChem-02092408543D

 39 41  0     0  0  0  0  0  0999 V2000
    9.7975   12.1088   22.3861 C   0  0  0  0  0  0  0  0  0  0  0  0
    8.6615    9.0843   22.3047 C   0  0  0  0  0  0  0  0  0  0  0  0
   10.6206    9.3542   23.8624 C   0  0  0  0  0  0  0  0  0  0  0  0
    9.1147   11.8464   24.9698 C   0  0  0  0  0  0  0  0  0  0  0  0
    7.4972   11.6237   23.6843 C   0  0  0  0  0  0  0  0  0  0  0  0
    8.8877    7.5787   22.4049 C   0  0  0  0  0  0  0  0  0  0  0  0
   10.7269    7.8320   23.8681 C   0  0  0  0  0  0  0  0  0  0  0  0
    9.0411   11.3518   23.4684 C   0  0  0  0  0  0  0  0  0  0  0  0
    9.1896    9.8037   23.5501 C   0  0  0  0  0  0  0  0  0  0  0  0
    7.8662   10.8863   25.0274 C   0  0  0  0  0  0  0  0  0  0  0  0
   11.8844   15.0856   22.8012 C   0  0  0  0  0  0  0  0  0  0  0  0
    6.9329   10.8987   26.1998 C   0  0  0  0  0  0  0  0  0  0  0  0
   11.2158   13.9655   22.0330 C   0  0  0  0  0  0  0  0  0  0  0  0
    5.6659   10.3255   25.8498 N   0  0  0  0  0  0  0  0  0  0  0  0
    9.7958   11.7965   21.2030 O   0  0  0  0  0  0  0  0  0  0  0  0
   10.2644    7.2875   22.6341 O   0  0  0  0  0  0  0  0  0  0  0  0
    8.3277    9.5477   24.6785 O   0  0  0  0  0  0  0  0  0  0  0  0
   10.4581   13.1629   22.9440 O   0  0  0  0  0  0  0  0  0  0  0  0
    9.1874    9.4604   21.4192 H   0  0  0  0  0  0  0  0  0  0  0  0
    7.5916    9.2593   22.1540 H   0  0  0  0  0  0  0  0  0  0  0  0
   10.9620    9.7232   24.8343 H   0  0  0  0  0  0  0  0  0  0  0  0
   11.3000    9.7515   23.0989 H   0  0  0  0  0  0  0  0  0  0  0  0
    9.9802   11.5394   25.5613 H   0  0  0  0  0  0  0  0  0  0  0  0
    8.9339   12.9128   25.1504 H   0  0  0  0  0  0  0  0  0  0  0  0
    7.1841   12.6721   23.7597 H   0  0  0  0  0  0  0  0  0  0  0  0
    6.7960   11.1012   23.0298 H   0  0  0  0  0  0  0  0  0  0  0  0
    8.2811    7.1340   23.2024 H   0  0  0  0  0  0  0  0  0  0  0  0
    8.5977    7.0976   21.4651 H   0  0  0  0  0  0  0  0  0  0  0  0
   11.7731    7.5348   23.9918 H   0  0  0  0  0  0  0  0  0  0  0  0
   10.1604    7.3931   24.6980 H   0  0  0  0  0  0  0  0  0  0  0  0
   11.1410   15.7209   23.2908 H   0  0  0  0  0  0  0  0  0  0  0  0
   12.5606   14.6820   23.5619 H   0  0  0  0  0  0  0  0  0  0  0  0
   12.4914   15.7039   22.1316 H   0  0  0  0  0  0  0  0  0  0  0  0
    7.3838   10.3168   27.0137 H   0  0  0  0  0  0  0  0  0  0  0  0
    6.7866   11.9378   26.5212 H   0  0  0  0  0  0  0  0  0  0  0  0
   11.9647   13.3340   21.5458 H   0  0  0  0  0  0  0  0  0  0  0  0
   10.5399   14.3705   21.2739 H   0  0  0  0  0  0  0  0  0  0  0  0
    4.9409   11.0026   25.9845 H   0  0  0  0  0  0  0  0  0  0  0  0
    5.6788   10.0415   24.8899 H   0  0  0  0  0  0  0  0  0  0  0  0
  1  8  1  0  0  0  0
  1 15  2  0  0  0  0
  1 18  1  0  0  0  0
  2  6  1  0  0  0  0
  2  9  1  0  0  0  0
  3  7  1  0  0  0  0
  3  9  1  0  0  0  0
  4  8  1  0  0  0  0
  4 10  1  0  0  0  0
  5  8  1  0  0  0  0
  5 10  1  0  0  0  0
  6 16  1  0  0  0  0
  7 16  1  0  0  0  0
  8  9  1  0  0  0  0
  9 17  1  0  0  0  0
 10 12  1  0  0  0  0
 10 17  1  0  0  0  0
 11 13  1  0  0  0  0
 12 14  1  0  0  0  0
 13 18  1  0  0  0  0
  2 19  1  0  0  0  0
  2 20  1  0  0  0  0
  3 21  1  0  0  0  0
  3 22  1  0  0  0  0
  4 23  1  0  0  0  0
  4 24  1  0  0  0  0
  5 25  1  0  0  0  0
  5 26  1  0  0  0  0
  6 27  1  0  0  0  0
  6 28  1  0  0  0  0
  7 29  1  0  0  0  0
  7 30  1  0  0  0  0
 11 31  1  0  0  0  0
 11 32  1  0  0  0  0
 11 33  1  0  0  0  0
 12 34  1  0  0  0  0
 12 35  1  0  0  0  0
 13 36  1  0  0  0  0
 13 37  1  0  0  0  0
 14 38  1  0  0  0  0
 14 39  1  0  0  0  0
M  END
> <id>
EN300-1720694

> <smiles>
CCOC(=O)C1(CC2(CN)C1)C3(CCOCC3)O2

> <MDLNUMBER>
MFCD31690369

> <IUPAC Name>
ethyl 4-(aminomethyl)-3-oxaspiro[bicyclo[2.1.1]hexane-2,4'-oxane]-1-carboxylate

> <CAS>
2225141-67-1

> <URL>
https://www.enaminestore.com/catalog/EN300-1720694

> <ROCS_ShapeQuery>
x0812_0A_x1140_0A_x1097_0A_x0365_0A_x1097_0A_x0310_0A

> <ROCS_TanimotoCombo>
0.715 

> <ROCS_ShapeTanimoto>
0.264 

> <ROCS_ColorTanimoto>
0.451 

> <ROCS_RefTversky>
0.235 

> <ROCS_RefColorTversky>
0.577 

> <ROCS_RefTverskyCombo>
0.813 

> <ROCS_FitTversky>
1.843 

> <ROCS_FitColorTversky>
0.674 

> <ROCS_FitTverskyCombo>
2.516 

> <ROCS_ColorScore>
-8.672

> <ROCS_Overlap>
2382.015

> <ROCS_Rank>
183                 

$$$$
untitled-dbase-559527_3
  -OEChem-02092408543D

 39 41  0     0  0  0  0  0  0999 V2000
    9.7961   12.1107   22.3860 C   0  0  0  0  0  0  0  0  0  0  0  0
    8.6662    9.0837   22.3067 C   0  0  0  0  0  0  0  0  0  0  0  0
   10.6240    9.3589   23.8652 C   0  0  0  0  0  0  0  0  0  0  0  0
    9.1125   11.8492   24.9698 C   0  0  0  0  0  0  0  0  0  0  0  0
    7.4963   11.6222   23.6835 C   0  0  0  0  0  0  0  0  0  0  0  0
    8.8946    7.5785   22.4096 C   0  0  0  0  0  0  0  0  0  0  0  0
   10.7334    7.8369   23.8724 C   0  0  0  0  0  0  0  0  0  0  0  0
    9.0409   11.3532   23.4687 C   0  0  0  0  0  0  0  0  0  0  0  0
    9.1922    9.8054   23.5518 C   0  0  0  0  0  0  0  0  0  0  0  0
    7.8659   10.8867   25.0273 C   0  0  0  0  0  0  0  0  0  0  0  0
   11.8765   15.0923   22.7989 C   0  0  0  0  0  0  0  0  0  0  0  0
    6.9318   10.8981   26.1991 C   0  0  0  0  0  0  0  0  0  0  0  0
   11.2107   13.9700   22.0316 C   0  0  0  0  0  0  0  0  0  0  0  0
    5.6660   10.3221   25.8489 N   0  0  0  0  0  0  0  0  0  0  0  0
    9.7956   11.7972   21.2032 O   0  0  0  0  0  0  0  0  0  0  0  0
   10.2719    7.2900   22.6391 O   0  0  0  0  0  0  0  0  0  0  0  0
    8.3302    9.5488   24.6798 O   0  0  0  0  0  0  0  0  0  0  0  0
   10.4543   13.1668   22.9431 O   0  0  0  0  0  0  0  0  0  0  0  0
    9.1922    9.4596   21.4210 H   0  0  0  0  0  0  0  0  0  0  0  0
    7.5965    9.2567   22.1550 H   0  0  0  0  0  0  0  0  0  0  0  0
   10.9651    9.7301   24.8366 H   0  0  0  0  0  0  0  0  0  0  0  0
   11.3028    9.7565   23.1012 H   0  0  0  0  0  0  0  0  0  0  0  0
    9.9783   11.5442   25.5618 H   0  0  0  0  0  0  0  0  0  0  0  0
    8.9293   12.9153   25.1496 H   0  0  0  0  0  0  0  0  0  0  0  0
    7.1811   12.6701   23.7577 H   0  0  0  0  0  0  0  0  0  0  0  0
    6.7963   11.0978   23.0292 H   0  0  0  0  0  0  0  0  0  0  0  0
    8.2885    7.1339   23.2077 H   0  0  0  0  0  0  0  0  0  0  0  0
    8.6053    7.0955   21.4708 H   0  0  0  0  0  0  0  0  0  0  0  0
   11.7803    7.5417   23.9962 H   0  0  0  0  0  0  0  0  0  0  0  0
   10.1677    7.3979   24.7025 H   0  0  0  0  0  0  0  0  0  0  0  0
   11.1317   15.7265   23.2875 H   0  0  0  0  0  0  0  0  0  0  0  0
   12.5533   14.6908   23.5603 H   0  0  0  0  0  0  0  0  0  0  0  0
   12.4826   15.7112   22.1289 H   0  0  0  0  0  0  0  0  0  0  0  0
    7.3832   10.3178   27.0140 H   0  0  0  0  0  0  0  0  0  0  0  0
    6.7831   11.9372   26.5198 H   0  0  0  0  0  0  0  0  0  0  0  0
   11.9611   13.3396   21.5453 H   0  0  0  0  0  0  0  0  0  0  0  0
   10.5343   14.3729   21.2718 H   0  0  0  0  0  0  0  0  0  0  0  0
    4.9398   10.9980   25.9825 H   0  0  0  0  0  0  0  0  0  0  0  0
    5.6801   10.0371   24.8894 H   0  0  0  0  0  0  0  0  0  0  0  0
  1  8  1  1  0  0  0
  1 15  2  0  0  0  0
  1 18  1  0  0  0  0
  2  6  1  0  0  0  0
  2  9  1  0  0  0  0
  3  7  1  0  0  0  0
  3  9  1  0  0  0  0
  4  8  1  0  0  0  0
  4 10  1  0  0  0  0
  5  8  1  0  0  0  0
  5 10  1  0  0  0  0
  6 16  1  0  0  0  0
  7 16  1  0  0  0  0
  8  9  1  0  0  0  0
  9 17  1  0  0  0  0
 10 12  1  1  0  0  0
 10 17  1  0  0  0  0
 11 13  1  0  0  0  0
 12 14  1  0  0  0  0
 13 18  1  0  0  0  0
  2 19  1  0  0  0  0
  2 20  1  0  0  0  0
  3 21  1  0  0  0  0
  3 22  1  0  0  0  0
  4 23  1  0  0  0  0
  4 24  1  0  0  0  0
  5 25  1  0  0  0  0
  5 26  1  0  0  0  0
  6 27  1  0  0  0  0
  6 28  1  0  0  0  0
  7 29  1  0  0  0  0
  7 30  1  0  0  0  0
 11 31  1  0  0  0  0
 11 32  1  0  0  0  0
 11 33  1  0  0  0  0
 12 34  1  0  0  0  0
 12 35  1  0  0  0  0
 13 36  1  0  0  0  0
 13 37  1  0  0  0  0
 14 38  1  0  0  0  0
 14 39  1  0  0  0  0
M  END
> <id>
EN300-37375218

> <smiles>
Cl.CCOC(=O)[C@]1(C[C@@]2(CN)C1)C3(CCOCC3)O2

> <IUPAC Name>
ethyl 4-(aminomethyl)-3-oxaspiro[bicyclo[2.1.1]hexane-2,4'-oxane]-1-carboxylate hydrochloride

> <CAS>
2225146-83-6

> <URL>
https://www.enaminestore.com/catalog/EN300-37375218

> <ROCS_ShapeQuery>
x0812_0A_x1140_0A_x1097_0A_x0365_0A_x1097_0A_x0310_0A

> <ROCS_TanimotoCombo>
0.715 

> <ROCS_ShapeTanimoto>
0.264 

> <ROCS_ColorTanimoto>
0.451 

> <ROCS_RefTversky>
0.235 

> <ROCS_RefColorTversky>
0.577 

> <ROCS_RefTverskyCombo>
0.813 

> <ROCS_FitTversky>
1.843 

> <ROCS_FitColorTversky>
0.674 

> <ROCS_FitTverskyCombo>
2.516 

> <ROCS_ColorScore>
-8.672

> <ROCS_Overlap>
2381.898

> <ROCS_Rank>
184                 

$$$$
untitled-dbase-469604_3
  -OEChem-02092408543D

 39 41  0     0  0  0  0  0  0999 V2000
    9.7961   12.1107   22.3860 C   0  0  0  0  0  0  0  0  0  0  0  0
    8.6662    9.0837   22.3067 C   0  0  0  0  0  0  0  0  0  0  0  0
   10.6240    9.3589   23.8652 C   0  0  0  0  0  0  0  0  0  0  0  0
    9.1125   11.8492   24.9698 C   0  0  0  0  0  0  0  0  0  0  0  0
    7.4963   11.6222   23.6835 C   0  0  0  0  0  0  0  0  0  0  0  0
    8.8946    7.5785   22.4096 C   0  0  0  0  0  0  0  0  0  0  0  0
   10.7334    7.8369   23.8724 C   0  0  0  0  0  0  0  0  0  0  0  0
    9.0409   11.3532   23.4687 C   0  0  0  0  0  0  0  0  0  0  0  0
    9.1922    9.8054   23.5518 C   0  0  0  0  0  0  0  0  0  0  0  0
    7.8659   10.8867   25.0273 C   0  0  0  0  0  0  0  0  0  0  0  0
   11.8765   15.0923   22.7989 C   0  0  0  0  0  0  0  0  0  0  0  0
    6.9318   10.8981   26.1991 C   0  0  0  0  0  0  0  0  0  0  0  0
   11.2107   13.9700   22.0316 C   0  0  0  0  0  0  0  0  0  0  0  0
    5.6660   10.3221   25.8489 N   0  0  0  0  0  0  0  0  0  0  0  0
    9.7956   11.7972   21.2032 O   0  0  0  0  0  0  0  0  0  0  0  0
   10.2719    7.2900   22.6391 O   0  0  0  0  0  0  0  0  0  0  0  0
    8.3302    9.5488   24.6798 O   0  0  0  0  0  0  0  0  0  0  0  0
   10.4543   13.1668   22.9431 O   0  0  0  0  0  0  0  0  0  0  0  0
    9.1922    9.4596   21.4210 H   0  0  0  0  0  0  0  0  0  0  0  0
    7.5965    9.2567   22.1550 H   0  0  0  0  0  0  0  0  0  0  0  0
   10.9651    9.7301   24.8366 H   0  0  0  0  0  0  0  0  0  0  0  0
   11.3028    9.7565   23.1012 H   0  0  0  0  0  0  0  0  0  0  0  0
    9.9783   11.5442   25.5618 H   0  0  0  0  0  0  0  0  0  0  0  0
    8.9293   12.9153   25.1496 H   0  0  0  0  0  0  0  0  0  0  0  0
    7.1811   12.6701   23.7577 H   0  0  0  0  0  0  0  0  0  0  0  0
    6.7963   11.0978   23.0292 H   0  0  0  0  0  0  0  0  0  0  0  0
    8.2885    7.1339   23.2077 H   0  0  0  0  0  0  0  0  0  0  0  0
    8.6053    7.0955   21.4708 H   0  0  0  0  0  0  0  0  0  0  0  0
   11.7803    7.5417   23.9962 H   0  0  0  0  0  0  0  0  0  0  0  0
   10.1677    7.3979   24.7025 H   0  0  0  0  0  0  0  0  0  0  0  0
   11.1317   15.7265   23.2875 H   0  0  0  0  0  0  0  0  0  0  0  0
   12.5533   14.6908   23.5603 H   0  0  0  0  0  0  0  0  0  0  0  0
   12.4826   15.7112   22.1289 H   0  0  0  0  0  0  0  0  0  0  0  0
    7.3832   10.3178   27.0140 H   0  0  0  0  0  0  0  0  0  0  0  0
    6.7831   11.9372   26.5198 H   0  0  0  0  0  0  0  0  0  0  0  0
   11.9611   13.3396   21.5453 H   0  0  0  0  0  0  0  0  0  0  0  0
   10.5343   14.3729   21.2718 H   0  0  0  0  0  0  0  0  0  0  0  0
    4.9398   10.9980   25.9825 H   0  0  0  0  0  0  0  0  0  0  0  0
    5.6801   10.0371   24.8894 H   0  0  0  0  0  0  0  0  0  0  0  0
  1  8  1  1  0  0  0
  1 15  2  0  0  0  0
  1 18  1  0  0  0  0
  2  6  1  0  0  0  0
  2  9  1  0  0  0  0
  3  7  1  0  0  0  0
  3  9  1  0  0  0  0
  4  8  1  0  0  0  0
  4 10  1  0  0  0  0
  5  8  1  0  0  0  0
  5 10  1  0  0  0  0
  6 16  1  0  0  0  0
  7 16  1  0  0  0  0
  8  9  1  0  0  0  0
  9 17  1  0  0  0  0
 10 12  1  1  0  0  0
 10 17  1  0  0  0  0
 11 13  1  0  0  0  0
 12 14  1  0  0  0  0
 13 18  1  0  0  0  0
  2 19  1  0  0  0  0
  2 20  1  0  0  0  0
  3 21  1  0  0  0  0
  3 22  1  0  0  0  0
  4 23  1  0  0  0  0
  4 24  1  0  0  0  0
  5 25  1  0  0  0  0
  5 26  1  0  0  0  0
  6 27  1  0  0  0  0
  6 28  1  0  0  0  0
  7 29  1  0  0  0  0
  7 30  1  0  0  0  0
 11 31  1  0  0  0  0
 11 32  1  0  0  0  0
 11 33  1  0  0  0  0
 12 34  1  0  0  0  0
 12 35  1  0  0  0  0
 13 36  1  0  0  0  0
 13 37  1  0  0  0  0
 14 38  1  0  0  0  0
 14 39  1  0  0  0  0
M  END
> <id>
EN300-39870123

> <smiles>
CCOC(=O)[C@]1(C[C@@]2(CN)C1)C3(CCOCC3)O2

> <IUPAC Name>
ethyl 4-(aminomethyl)-3-oxaspiro[bicyclo[2.1.1]hexane-2,4'-oxane]-1-carboxylate

> <URL>
https://www.enaminestore.com/catalog/EN300-39870123

> <ROCS_ShapeQuery>
x0812_0A_x1140_0A_x1097_0A_x0365_0A_x1097_0A_x0310_0A

> <ROCS_TanimotoCombo>
0.715 

> <ROCS_ShapeTanimoto>
0.264 

> <ROCS_ColorTanimoto>
0.451 

> <ROCS_RefTversky>
0.235 

> <ROCS_RefColorTversky>
0.577 

> <ROCS_RefTverskyCombo>
0.813 

> <ROCS_FitTversky>
1.843 

> <ROCS_FitColorTversky>
0.674 

> <ROCS_FitTverskyCombo>
2.516 

> <ROCS_ColorScore>
-8.672

> <ROCS_Overlap>
2381.898

> <ROCS_Rank>
185                 

$$$$
untitled-dbase-87484_7
  -OEChem-02092408543D

 25 26  0     0  0  0  0  0  0999 V2000
    9.3038   11.6973   25.0050 C   0  0  0  0  0  0  0  0  0  0  0  0
    7.5403   11.9109   23.8945 C   0  0  0  0  0  0  0  0  0  0  0  0
    8.9606   10.0099   23.2491 C   0  0  0  0  0  0  0  0  0  0  0  0
    9.0087   11.5381   23.4669 C   0  0  0  0  0  0  0  0  0  0  0  0
    7.9424   10.8988   25.0373 C   0  0  0  0  0  0  0  0  0  0  0  0
    9.7494   12.3464   22.4448 C   0  0  0  0  0  0  0  0  0  0  0  0
    7.1359   10.7854   26.2950 C   0  0  0  0  0  0  0  0  0  0  0  0
    5.9440   10.0200   26.0703 N   0  0  0  0  0  0  0  0  0  0  0  0
   12.1682   13.1770   21.8775 O   0  0  0  0  0  0  0  0  0  0  0  0
   11.7581   10.6920   22.1445 O   0  0  0  0  0  0  0  0  0  0  0  0
    8.1901    9.6165   24.3973 O   0  0  0  0  0  0  0  0  0  0  0  0
   11.8808   12.1677   24.0557 F   0  0  0  0  0  0  0  0  0  0  0  0
   11.4938   12.0666   22.5196 S   0  0  0  0  0  0  0  0  0  0  0  0
   10.1808   11.1655   25.3854 H   0  0  0  0  0  0  0  0  0  0  0  0
    9.2929   12.7154   25.4096 H   0  0  0  0  0  0  0  0  0  0  0  0
    7.3581   12.9497   24.1911 H   0  0  0  0  0  0  0  0  0  0  0  0
    6.7438   11.5813   23.2210 H   0  0  0  0  0  0  0  0  0  0  0  0
    8.4312    9.7295   22.3340 H   0  0  0  0  0  0  0  0  0  0  0  0
    9.9500    9.5453   23.2899 H   0  0  0  0  0  0  0  0  0  0  0  0
    9.5981   13.4241   22.5938 H   0  0  0  0  0  0  0  0  0  0  0  0
    9.4348   12.0938   21.4233 H   0  0  0  0  0  0  0  0  0  0  0  0
    7.7471   10.2913   27.0611 H   0  0  0  0  0  0  0  0  0  0  0  0
    6.8631   11.7944   26.6298 H   0  0  0  0  0  0  0  0  0  0  0  0
    5.1402   10.5803   26.2752 H   0  0  0  0  0  0  0  0  0  0  0  0
    5.9079    9.7269   25.1138 H   0  0  0  0  0  0  0  0  0  0  0  0
  1  4  1  0  0  0  0
  1  5  1  0  0  0  0
  2  4  1  0  0  0  0
  2  5  1  0  0  0  0
  3  4  1  0  0  0  0
  3 11  1  0  0  0  0
  4  6  1  0  0  0  0
  5  7  1  0  0  0  0
  5 11  1  0  0  0  0
  6 13  1  0  0  0  0
  7  8  1  0  0  0  0
  9 13  2  0  0  0  0
 10 13  2  0  0  0  0
 12 13  1  0  0  0  0
  1 14  1  0  0  0  0
  1 15  1  0  0  0  0
  2 16  1  0  0  0  0
  2 17  1  0  0  0  0
  3 18  1  0  0  0  0
  3 19  1  0  0  0  0
  6 20  1  0  0  0  0
  6 21  1  0  0  0  0
  7 22  1  0  0  0  0
  7 23  1  0  0  0  0
  8 24  1  0  0  0  0
  8 25  1  0  0  0  0
M  END
> <id>
EN300-1577260

> <smiles>
NCC1(CC2(CS(=O)(=O)F)C1)OC2

> <IUPAC Name>
[1-(aminomethyl)-2-oxabicyclo[2.1.1]hexan-4-yl]methanesulfonyl fluoride

> <CAS>
2166660-79-1

> <URL>
https://www.enaminestore.com/catalog/EN300-1577260

> <ROCS_ShapeQuery>
x0812_0A_x1140_0A_x1097_0A_x0365_0A_x1097_0A_x0310_0A

> <ROCS_TanimotoCombo>
0.715 

> <ROCS_ShapeTanimoto>
0.223 

> <ROCS_ColorTanimoto>
0.492 

> <ROCS_RefTversky>
0.201 

> <ROCS_RefColorTversky>
0.553 

> <ROCS_RefTverskyCombo>
0.754 

> <ROCS_FitTversky>
1.929 

> <ROCS_FitColorTversky>
0.818 

> <ROCS_FitTverskyCombo>
2.747 

> <ROCS_ColorScore>
-8.218

> <ROCS_Overlap>
2033.165

> <ROCS_Rank>
186                 

$$$$
untitled-dbase-292595_0
  -OEChem-02092408543D

 40 41  0     0  0  0  0  0  0999 V2000
    9.8959   11.9864   22.0344 C   0  0  0  0  0  0  0  0  0  0  0  0
    7.9252   12.4018   23.4823 C   0  0  0  0  0  0  0  0  0  0  0  0
   10.0475   11.6448   24.4862 C   0  0  0  0  0  0  0  0  0  0  0  0
    7.1321   11.8724   24.6815 C   0  0  0  0  0  0  0  0  0  0  0  0
    9.3086   11.0972   25.7116 C   0  0  0  0  0  0  0  0  0  0  0  0
    9.1477   11.4896   23.2408 C   0  0  0  0  0  0  0  0  0  0  0  0
    7.8792   10.6846   25.3151 C   0  0  0  0  0  0  0  0  0  0  0  0
    8.6704   10.0043   23.1302 C   0  0  0  0  0  0  0  0  0  0  0  0
    9.8273    8.9995   22.9853 C   0  0  0  0  0  0  0  0  0  0  0  0
    7.6850    9.7629   21.9729 C   0  0  0  0  0  0  0  0  0  0  0  0
   11.4326   15.2746   21.5709 C   0  0  0  0  0  0  0  0  0  0  0  0
    7.1155   10.1365   26.5164 C   0  0  0  0  0  0  0  0  0  0  0  0
   11.0435   13.8657   21.1770 C   0  0  0  0  0  0  0  0  0  0  0  0
    5.8226    9.6980   26.1087 N   0  0  0  0  0  0  0  0  0  0  0  0
   10.0868   11.3218   21.0249 O   0  0  0  0  0  0  0  0  0  0  0  0
    7.9655    9.6290   24.3382 O   0  0  0  0  0  0  0  0  0  0  0  0
   10.3131   13.2661   22.2518 O   0  0  0  0  0  0  0  0  0  0  0  0
    7.2833   12.4664   22.5958 H   0  0  0  0  0  0  0  0  0  0  0  0
    8.2455   13.4338   23.6792 H   0  0  0  0  0  0  0  0  0  0  0  0
   10.3011   12.7009   24.6509 H   0  0  0  0  0  0  0  0  0  0  0  0
   11.0113   11.1374   24.3597 H   0  0  0  0  0  0  0  0  0  0  0  0
    6.9754   12.6760   25.4106 H   0  0  0  0  0  0  0  0  0  0  0  0
    6.1426   11.5505   24.3336 H   0  0  0  0  0  0  0  0  0  0  0  0
    9.8579   10.2277   26.0935 H   0  0  0  0  0  0  0  0  0  0  0  0
    9.2967   11.8498   26.5088 H   0  0  0  0  0  0  0  0  0  0  0  0
    9.4219    7.9958   22.9145 H   0  0  0  0  0  0  0  0  0  0  0  0
   10.4745    9.0723   23.8528 H   0  0  0  0  0  0  0  0  0  0  0  0
   10.3909    9.2307   22.0876 H   0  0  0  0  0  0  0  0  0  0  0  0
    7.3997    8.7163   21.9590 H   0  0  0  0  0  0  0  0  0  0  0  0
    8.1642   10.0238   21.0353 H   0  0  0  0  0  0  0  0  0  0  0  0
    6.8049   10.3802   22.1184 H   0  0  0  0  0  0  0  0  0  0  0  0
   10.5461   15.8824   21.7721 H   0  0  0  0  0  0  0  0  0  0  0  0
   12.0649   15.2649   22.4647 H   0  0  0  0  0  0  0  0  0  0  0  0
   12.0143   15.7511   20.7747 H   0  0  0  0  0  0  0  0  0  0  0  0
    7.6932    9.3041   26.9160 H   0  0  0  0  0  0  0  0  0  0  0  0
    7.0341   10.9425   27.2445 H   0  0  0  0  0  0  0  0  0  0  0  0
   11.9346   13.2631   20.9772 H   0  0  0  0  0  0  0  0  0  0  0  0
   10.4111   13.8773   20.2843 H   0  0  0  0  0  0  0  0  0  0  0  0
    5.1127   10.1889   26.6221 H   0  0  0  0  0  0  0  0  0  0  0  0
    5.6916    9.8723   25.1284 H   0  0  0  0  0  0  0  0  0  0  0  0
  1  6  1  0  0  0  0
  1 15  2  0  0  0  0
  1 17  1  0  0  0  0
  2  4  1  0  0  0  0
  2  6  1  0  0  0  0
  3  5  1  0  0  0  0
  3  6  1  0  0  0  0
  4  7  1  0  0  0  0
  5  7  1  0  0  0  0
  6  8  1  0  0  0  0
  7 12  1  0  0  0  0
  7 16  1  0  0  0  0
  8  9  1  0  0  0  0
  8 10  1  0  0  0  0
  8 16  1  0  0  0  0
 11 13  1  0  0  0  0
 12 14  1  0  0  0  0
 13 17  1  0  0  0  0
  2 18  1  0  0  0  0
  2 19  1  0  0  0  0
  3 20  1  0  0  0  0
  3 21  1  0  0  0  0
  4 22  1  0  0  0  0
  4 23  1  0  0  0  0
  5 24  1  0  0  0  0
  5 25  1  0  0  0  0
  9 26  1  0  0  0  0
  9 27  1  0  0  0  0
  9 28  1  0  0  0  0
 10 29  1  0  0  0  0
 10 30  1  0  0  0  0
 10 31  1  0  0  0  0
 11 32  1  0  0  0  0
 11 33  1  0  0  0  0
 11 34  1  0  0  0  0
 12 35  1  0  0  0  0
 12 36  1  0  0  0  0
 13 37  1  0  0  0  0
 13 38  1  0  0  0  0
 14 39  1  0  0  0  0
 14 40  1  0  0  0  0
M  END
> <id>
EN300-6495965

> <smiles>
Cl.CCOC(=O)C1(CCC2(CN)CC1)C(C)(C)O2

> <MDLNUMBER>
MFCD31719172

> <IUPAC Name>
ethyl 1-(aminomethyl)-3,3-dimethyl-2-oxabicyclo[2.2.2]octane-4-carboxylate hydrochloride

> <CAS>
2248289-41-8

> <Purity>
95

> <URL>
https://www.enaminestore.com/catalog/EN300-6495965

> <Saltdate>
Cl

> <ROCS_ShapeQuery>
x0812_0A_x1140_0A_x1097_0A_x0365_0A_x1097_0A_x0310_0A

> <ROCS_TanimotoCombo>
0.715 

> <ROCS_ShapeTanimoto>
0.257 

> <ROCS_ColorTanimoto>
0.458 

> <ROCS_RefTversky>
0.229 

> <ROCS_RefColorTversky>
0.550 

> <ROCS_RefTverskyCombo>
0.780 

> <ROCS_FitTversky>
1.867 

> <ROCS_FitColorTversky>
0.732 

> <ROCS_FitTverskyCombo>
2.599 

> <ROCS_ColorScore>
-8.219

> <ROCS_Overlap>
2320.484

> <ROCS_Rank>
187                 

$$$$
untitled-dbase-281397_0
  -OEChem-02092408543D

 40 41  0     0  0  0  0  0  0999 V2000
    9.8959   11.9864   22.0344 C   0  0  0  0  0  0  0  0  0  0  0  0
    7.9252   12.4018   23.4823 C   0  0  0  0  0  0  0  0  0  0  0  0
   10.0475   11.6448   24.4862 C   0  0  0  0  0  0  0  0  0  0  0  0
    7.1321   11.8724   24.6815 C   0  0  0  0  0  0  0  0  0  0  0  0
    9.3086   11.0972   25.7116 C   0  0  0  0  0  0  0  0  0  0  0  0
    9.1477   11.4896   23.2408 C   0  0  0  0  0  0  0  0  0  0  0  0
    7.8792   10.6846   25.3151 C   0  0  0  0  0  0  0  0  0  0  0  0
    8.6704   10.0043   23.1302 C   0  0  0  0  0  0  0  0  0  0  0  0
    9.8273    8.9995   22.9853 C   0  0  0  0  0  0  0  0  0  0  0  0
    7.6850    9.7629   21.9729 C   0  0  0  0  0  0  0  0  0  0  0  0
   11.4326   15.2746   21.5709 C   0  0  0  0  0  0  0  0  0  0  0  0
    7.1155   10.1365   26.5164 C   0  0  0  0  0  0  0  0  0  0  0  0
   11.0435   13.8657   21.1770 C   0  0  0  0  0  0  0  0  0  0  0  0
    5.8226    9.6980   26.1087 N   0  0  0  0  0  0  0  0  0  0  0  0
   10.0868   11.3218   21.0249 O   0  0  0  0  0  0  0  0  0  0  0  0
    7.9655    9.6290   24.3382 O   0  0  0  0  0  0  0  0  0  0  0  0
   10.3131   13.2661   22.2518 O   0  0  0  0  0  0  0  0  0  0  0  0
    7.2833   12.4664   22.5958 H   0  0  0  0  0  0  0  0  0  0  0  0
    8.2455   13.4338   23.6792 H   0  0  0  0  0  0  0  0  0  0  0  0
   10.3011   12.7009   24.6509 H   0  0  0  0  0  0  0  0  0  0  0  0
   11.0113   11.1374   24.3597 H   0  0  0  0  0  0  0  0  0  0  0  0
    6.9754   12.6760   25.4106 H   0  0  0  0  0  0  0  0  0  0  0  0
    6.1426   11.5505   24.3336 H   0  0  0  0  0  0  0  0  0  0  0  0
    9.8579   10.2277   26.0935 H   0  0  0  0  0  0  0  0  0  0  0  0
    9.2967   11.8498   26.5088 H   0  0  0  0  0  0  0  0  0  0  0  0
    9.4219    7.9958   22.9145 H   0  0  0  0  0  0  0  0  0  0  0  0
   10.4745    9.0723   23.8528 H   0  0  0  0  0  0  0  0  0  0  0  0
   10.3909    9.2307   22.0876 H   0  0  0  0  0  0  0  0  0  0  0  0
    7.3997    8.7163   21.9590 H   0  0  0  0  0  0  0  0  0  0  0  0
    8.1642   10.0238   21.0353 H   0  0  0  0  0  0  0  0  0  0  0  0
    6.8049   10.3802   22.1184 H   0  0  0  0  0  0  0  0  0  0  0  0
   10.5461   15.8824   21.7721 H   0  0  0  0  0  0  0  0  0  0  0  0
   12.0649   15.2649   22.4647 H   0  0  0  0  0  0  0  0  0  0  0  0
   12.0143   15.7511   20.7747 H   0  0  0  0  0  0  0  0  0  0  0  0
    7.6932    9.3041   26.9160 H   0  0  0  0  0  0  0  0  0  0  0  0
    7.0341   10.9425   27.2445 H   0  0  0  0  0  0  0  0  0  0  0  0
   11.9346   13.2631   20.9772 H   0  0  0  0  0  0  0  0  0  0  0  0
   10.4111   13.8773   20.2843 H   0  0  0  0  0  0  0  0  0  0  0  0
    5.1127   10.1889   26.6221 H   0  0  0  0  0  0  0  0  0  0  0  0
    5.6916    9.8723   25.1284 H   0  0  0  0  0  0  0  0  0  0  0  0
  1  6  1  0  0  0  0
  1 15  2  0  0  0  0
  1 17  1  0  0  0  0
  2  4  1  0  0  0  0
  2  6  1  0  0  0  0
  3  5  1  0  0  0  0
  3  6  1  0  0  0  0
  4  7  1  0  0  0  0
  5  7  1  0  0  0  0
  6  8  1  0  0  0  0
  7 12  1  0  0  0  0
  7 16  1  0  0  0  0
  8  9  1  0  0  0  0
  8 10  1  0  0  0  0
  8 16  1  0  0  0  0
 11 13  1  0  0  0  0
 12 14  1  0  0  0  0
 13 17  1  0  0  0  0
  2 18  1  0  0  0  0
  2 19  1  0  0  0  0
  3 20  1  0  0  0  0
  3 21  1  0  0  0  0
  4 22  1  0  0  0  0
  4 23  1  0  0  0  0
  5 24  1  0  0  0  0
  5 25  1  0  0  0  0
  9 26  1  0  0  0  0
  9 27  1  0  0  0  0
  9 28  1  0  0  0  0
 10 29  1  0  0  0  0
 10 30  1  0  0  0  0
 10 31  1  0  0  0  0
 11 32  1  0  0  0  0
 11 33  1  0  0  0  0
 11 34  1  0  0  0  0
 12 35  1  0  0  0  0
 12 36  1  0  0  0  0
 13 37  1  0  0  0  0
 13 38  1  0  0  0  0
 14 39  1  0  0  0  0
 14 40  1  0  0  0  0
M  END
> <id>
EN300-1704151

> <smiles>
CCOC(=O)C1(CCC2(CN)CC1)C(C)(C)O2

> <MDLNUMBER>
MFCD31718564

> <IUPAC Name>
ethyl 1-(aminomethyl)-3,3-dimethyl-2-oxabicyclo[2.2.2]octane-4-carboxylate

> <CAS>
2248284-25-3

> <URL>
https://www.enaminestore.com/catalog/EN300-1704151

> <ROCS_ShapeQuery>
x0812_0A_x1140_0A_x1097_0A_x0365_0A_x1097_0A_x0310_0A

> <ROCS_TanimotoCombo>
0.715 

> <ROCS_ShapeTanimoto>
0.257 

> <ROCS_ColorTanimoto>
0.458 

> <ROCS_RefTversky>
0.229 

> <ROCS_RefColorTversky>
0.550 

> <ROCS_RefTverskyCombo>
0.780 

> <ROCS_FitTversky>
1.867 

> <ROCS_FitColorTversky>
0.732 

> <ROCS_FitTverskyCombo>
2.599 

> <ROCS_ColorScore>
-8.219

> <ROCS_Overlap>
2320.484

> <ROCS_Rank>
188                 

$$$$
untitled-dbase-490769_4
  -OEChem-02092408543D

 37 38  0     1  0  0  0  0  0999 V2000
    9.9841   12.2612   22.1804 C   0  0  0  0  0  0  0  0  0  0  0  0
    8.2602   11.7516   25.2935 C   0  0  0  0  0  0  0  0  0  0  0  0
    7.8199    9.5872   24.3829 C   0  0  0  0  0  0  0  0  0  0  0  0
    7.6529   11.6843   23.0030 C   0  0  0  0  0  0  0  0  0  0  0  0
    7.2817   11.0395   24.3492 C   0  0  2  0  0  0  0  0  0  0  0  0
    9.4841   11.3312   24.4764 C   0  0  1  0  0  0  0  0  0  0  0  0
    9.3558    9.7861   24.4759 C   0  0  1  0  0  0  0  0  0  0  0  0
    9.9519    9.1340   25.7218 C   0  0  0  0  0  0  0  0  0  0  0  0
   10.8970   14.6156   22.8752 C   0  0  0  0  0  0  0  0  0  0  0  0
   12.9489   13.4981   23.7972 C   0  0  0  0  0  0  0  0  0  0  0  0
   12.6527   13.7152   21.3126 C   0  0  0  0  0  0  0  0  0  0  0  0
   11.9405   13.5221   22.6507 C   0  0  0  0  0  0  0  0  0  0  0  0
    9.1022   11.8094   23.1398 N   0  0  0  0  0  0  0  0  0  0  0  0
    9.6546   12.6272   21.0549 O   0  0  0  0  0  0  0  0  0  0  0  0
    9.9973    9.2157   23.3405 O   0  0  0  0  0  0  0  0  0  0  0  0
   11.2755   12.2541   22.6344 O   0  0  0  0  0  0  0  0  0  0  0  0
    8.1165   12.8375   25.3216 H   0  0  0  0  0  0  0  0  0  0  0  0
    8.2413   11.3588   26.3139 H   0  0  0  0  0  0  0  0  0  0  0  0
    7.4304    9.0775   25.2718 H   0  0  0  0  0  0  0  0  0  0  0  0
    7.5162    9.0204   23.4966 H   0  0  0  0  0  0  0  0  0  0  0  0
    7.4014   11.0730   22.1315 H   0  0  0  0  0  0  0  0  0  0  0  0
    7.2282   12.6869   22.8885 H   0  0  0  0  0  0  0  0  0  0  0  0
    6.2253   11.1290   24.6080 H   0  0  0  0  0  0  0  0  0  0  0  0
   10.4545   11.7174   24.7954 H   0  0  0  0  0  0  0  0  0  0  0  0
   11.0279    9.2983   25.7455 H   0  0  0  0  0  0  0  0  0  0  0  0
    9.7548    8.0633   25.7081 H   0  0  0  0  0  0  0  0  0  0  0  0
    9.5050    9.5677   26.6150 H   0  0  0  0  0  0  0  0  0  0  0  0
   10.1713   14.6361   22.0543 H   0  0  0  0  0  0  0  0  0  0  0  0
   10.3549   14.4689   23.8151 H   0  0  0  0  0  0  0  0  0  0  0  0
   11.3666   15.6056   22.8974 H   0  0  0  0  0  0  0  0  0  0  0  0
   13.6995   12.7150   23.6403 H   0  0  0  0  0  0  0  0  0  0  0  0
   12.4543   13.2656   24.7473 H   0  0  0  0  0  0  0  0  0  0  0  0
   13.4656   14.4577   23.9011 H   0  0  0  0  0  0  0  0  0  0  0  0
   13.4012   12.9310   21.1513 H   0  0  0  0  0  0  0  0  0  0  0  0
   11.9483   13.6981   20.4747 H   0  0  0  0  0  0  0  0  0  0  0  0
   13.1940   14.6680   21.2932 H   0  0  0  0  0  0  0  0  0  0  0  0
    9.7766    8.2709   23.3419 H   0  0  0  0  0  0  0  0  0  0  0  0
  1 13  1  0  0  0  0
  1 14  2  0  0  0  0
  1 16  1  0  0  0  0
  2  5  1  1  0  0  0
  2  6  1  1  0  0  0
  3  5  1  0  0  0  0
  3  7  1  0  0  0  0
  4  5  1  0  0  0  0
  4 13  1  0  0  0  0
  6  7  1  0  0  0  0
  6 13  1  0  0  0  0
  7  8  1  1  0  0  0
  7 15  1  6  0  0  0
  9 12  1  0  0  0  0
 10 12  1  0  0  0  0
 11 12  1  0  0  0  0
 12 16  1  0  0  0  0
  2 17  1  0  0  0  0
  2 18  1  0  0  0  0
  3 19  1  0  0  0  0
  3 20  1  0  0  0  0
  4 21  1  0  0  0  0
  4 22  1  0  0  0  0
  5 23  1  0  0  0  0
  6 24  1  0  0  0  0
  8 25  1  0  0  0  0
  8 26  1  0  0  0  0
  8 27  1  0  0  0  0
  9 28  1  0  0  0  0
  9 29  1  0  0  0  0
  9 30  1  0  0  0  0
 10 31  1  0  0  0  0
 10 32  1  0  0  0  0
 10 33  1  0  0  0  0
 11 34  1  0  0  0  0
 11 35  1  0  0  0  0
 11 36  1  0  0  0  0
 15 37  1  0  0  0  0
M  END
> <id>
EN300-27784014

> <smiles>
CC(C)(C)OC(=O)N1C[C@@H]2C[C@H]1[C@](C)(O)C2 |&1:9,11,12,r|

> <IUPAC Name>
rac-tert-butyl (1R,4S,6S)-6-hydroxy-6-methyl-2-azabicyclo[2.2.1]heptane-2-carboxylate

> <CAS>
2639378-74-6

> <URL>
https://www.enaminestore.com/catalog/EN300-27784014

> <ROCS_ShapeQuery>
x0812_0A_x1140_0A_x1097_0A_x0365_0A_x1097_0A_x0310_0A

> <ROCS_TanimotoCombo>
0.715 

> <ROCS_ShapeTanimoto>
0.234 

> <ROCS_ColorTanimoto>
0.480 

> <ROCS_RefTversky>
0.213 

> <ROCS_RefColorTversky>
0.555 

> <ROCS_RefTverskyCombo>
0.768 

> <ROCS_FitTversky>
1.777 

> <ROCS_FitColorTversky>
0.781 

> <ROCS_FitTverskyCombo>
2.558 

> <ROCS_ColorScore>
-8.271

> <ROCS_Overlap>
2150.631

> <ROCS_Rank>
189                 

$$$$
untitled-dbase-302723_0
  -OEChem-02092408543D

 21 22  0     0  0  0  0  0  0999 V2000
    8.3631   11.8530   25.2250 C   0  0  0  0  0  0  0  0  0  0  0  0
    7.9014   11.7195   23.1859 C   0  0  0  0  0  0  0  0  0  0  0  0
    9.5736   10.1051   23.9890 C   0  0  0  0  0  0  0  0  0  0  0  0
    9.2689   11.6188   23.9590 C   0  0  0  0  0  0  0  0  0  0  0  0
    7.4909   10.8167   24.4141 C   0  0  0  0  0  0  0  0  0  0  0  0
    6.0520   10.5747   24.7550 C   0  0  0  0  0  0  0  0  0  0  0  0
   10.4115   12.5350   23.6396 C   0  0  0  0  0  0  0  0  0  0  0  0
    8.2710    9.5931   24.3176 O   0  0  0  0  0  0  0  0  0  0  0  0
    5.9521   10.0948   26.0928 O   0  0  0  0  0  0  0  0  0  0  0  0
   11.3192   12.5506   24.6409 F   0  0  0  0  0  0  0  0  0  0  0  0
   11.0485   12.1463   22.5127 F   0  0  0  0  0  0  0  0  0  0  0  0
    9.9827   13.8032   23.4533 F   0  0  0  0  0  0  0  0  0  0  0  0
    8.7657   11.4987   26.1784 H   0  0  0  0  0  0  0  0  0  0  0  0
    7.9461   12.8574   25.3579 H   0  0  0  0  0  0  0  0  0  0  0  0
    7.4397   12.7109   23.1207 H   0  0  0  0  0  0  0  0  0  0  0  0
    7.8661   11.2381   22.2043 H   0  0  0  0  0  0  0  0  0  0  0  0
    9.8892    9.7178   23.0160 H   0  0  0  0  0  0  0  0  0  0  0  0
   10.2872    9.8325   24.7718 H   0  0  0  0  0  0  0  0  0  0  0  0
    5.6046    9.8237   24.0880 H   0  0  0  0  0  0  0  0  0  0  0  0
    5.4624   11.4997   24.6787 H   0  0  0  0  0  0  0  0  0  0  0  0
    5.0083    9.9537   26.2663 H   0  0  0  0  0  0  0  0  0  0  0  0
  1  4  1  0  0  0  0
  1  5  1  0  0  0  0
  2  4  1  0  0  0  0
  2  5  1  0  0  0  0
  3  4  1  0  0  0  0
  3  8  1  0  0  0  0
  4  7  1  0  0  0  0
  5  6  1  0  0  0  0
  5  8  1  0  0  0  0
  6  9  1  0  0  0  0
  7 10  1  0  0  0  0
  7 11  1  0  0  0  0
  7 12  1  0  0  0  0
  1 13  1  0  0  0  0
  1 14  1  0  0  0  0
  2 15  1  0  0  0  0
  2 16  1  0  0  0  0
  3 17  1  0  0  0  0
  3 18  1  0  0  0  0
  6 19  1  0  0  0  0
  6 20  1  0  0  0  0
  9 21  1  0  0  0  0
M  END
> <id>
EN300-6498402

> <smiles>
OCC1(CC2(C1)C(F)(F)F)OC2

> <MDLNUMBER>
MFCD31810624

> <IUPAC Name>
[4-(trifluoromethyl)-2-oxabicyclo[2.1.1]hexan-1-yl]methanol

> <CAS>
2305254-89-9

> <Purity>
95

> <URL>
https://www.enaminestore.com/catalog/EN300-6498402

> <ROCS_ShapeQuery>
x0812_0A_x1140_0A_x1097_0A_x0365_0A_x1097_0A_x0310_0A

> <ROCS_TanimotoCombo>
0.714 

> <ROCS_ShapeTanimoto>
0.222 

> <ROCS_ColorTanimoto>
0.492 

> <ROCS_RefTversky>
0.201 

> <ROCS_RefColorTversky>
0.553 

> <ROCS_RefTverskyCombo>
0.753 

> <ROCS_FitTversky>
1.942 

> <ROCS_FitColorTversky>
0.818 

> <ROCS_FitTverskyCombo>
2.760 

> <ROCS_ColorScore>
-8.216

> <ROCS_Overlap>
2029.574

> <ROCS_Rank>
190                 

$$$$
untitled-dbase-188905_6
  -OEChem-02092408543D

 40 42  0     0  0  0  0  0  0999 V2000
   12.3563   15.1639   22.3851 C   0  0  0  0  0  0  0  0  0  0  0  0
    8.5321    9.5105   23.3980 C   0  0  0  0  0  0  0  0  0  0  0  0
    6.6584   10.9362   24.2607 C   0  0  0  0  0  0  0  0  0  0  0  0
    8.6209   10.4192   25.7333 C   0  0  0  0  0  0  0  0  0  0  0  0
    8.2086   11.8314   22.5042 C   0  0  0  0  0  0  0  0  0  0  0  0
   10.1756   11.3132   23.9801 C   0  0  0  0  0  0  0  0  0  0  0  0
    8.2978   12.7421   24.8450 C   0  0  0  0  0  0  0  0  0  0  0  0
    7.4874   10.5728   23.0176 C   0  0  0  0  0  0  0  0  0  0  0  0
    9.4598   10.0533   24.4976 C   0  0  0  0  0  0  0  0  0  0  0  0
    7.5767   11.4861   25.3647 C   0  0  0  0  0  0  0  0  0  0  0  0
    9.1449   12.4012   23.5960 C   0  0  0  0  0  0  0  0  0  0  0  0
   13.5007   14.2444   22.8523 C   0  0  0  0  0  0  0  0  0  0  0  0
   11.4123   14.5887   21.3389 C   0  0  0  0  0  0  0  0  0  0  0  0
    9.8607   13.6530   23.0817 C   0  0  0  0  0  0  0  0  0  0  0  0
   10.6713   13.3463   21.8279 C   0  0  0  0  0  0  0  0  0  0  0  0
   12.2049   16.3083   22.8278 O   0  0  0  0  0  0  0  0  0  0  0  0
    8.0300    8.6000   23.7475 H   0  0  0  0  0  0  0  0  0  0  0  0
    9.1206    9.2306   22.5156 H   0  0  0  0  0  0  0  0  0  0  0  0
    5.8982   11.6826   23.9991 H   0  0  0  0  0  0  0  0  0  0  0  0
    6.1230   10.0510   24.6254 H   0  0  0  0  0  0  0  0  0  0  0  0
    8.1204    9.5247   26.1242 H   0  0  0  0  0  0  0  0  0  0  0  0
    9.2732   10.7935   26.5319 H   0  0  0  0  0  0  0  0  0  0  0  0
    8.7835   11.5843   21.6024 H   0  0  0  0  0  0  0  0  0  0  0  0
    7.4678   12.5854   22.2083 H   0  0  0  0  0  0  0  0  0  0  0  0
   10.8578   11.6924   24.7519 H   0  0  0  0  0  0  0  0  0  0  0  0
   10.7954   11.0543   23.1119 H   0  0  0  0  0  0  0  0  0  0  0  0
    7.5592   13.5171   24.6025 H   0  0  0  0  0  0  0  0  0  0  0  0
    8.9374   13.1534   25.6364 H   0  0  0  0  0  0  0  0  0  0  0  0
    6.8283   10.1798   22.2354 H   0  0  0  0  0  0  0  0  0  0  0  0
   10.2005    9.2917   24.7659 H   0  0  0  0  0  0  0  0  0  0  0  0
    6.9809   11.7412   26.2482 H   0  0  0  0  0  0  0  0  0  0  0  0
   14.3985   14.3704   22.2339 H   0  0  0  0  0  0  0  0  0  0  0  0
   13.8052   14.4305   23.8898 H   0  0  0  0  0  0  0  0  0  0  0  0
   13.2189   13.1856   22.7928 H   0  0  0  0  0  0  0  0  0  0  0  0
   12.0074   14.3430   20.4524 H   0  0  0  0  0  0  0  0  0  0  0  0
   10.6931   15.3712   21.0725 H   0  0  0  0  0  0  0  0  0  0  0  0
   10.5130   14.0317   23.8725 H   0  0  0  0  0  0  0  0  0  0  0  0
    9.1124   14.4211   22.8715 H   0  0  0  0  0  0  0  0  0  0  0  0
   10.0080   12.9762   21.0362 H   0  0  0  0  0  0  0  0  0  0  0  0
   11.3914   12.5451   22.0362 H   0  0  0  0  0  0  0  0  0  0  0  0
  1 12  1  0  0  0  0
  1 13  1  0  0  0  0
  1 16  2  0  0  0  0
  2  8  1  0  0  0  0
  2  9  1  0  0  0  0
  3  8  1  0  0  0  0
  3 10  1  0  0  0  0
  4  9  1  0  0  0  0
  4 10  1  0  0  0  0
  5  8  1  0  0  0  0
  5 11  1  0  0  0  0
  6  9  1  0  0  0  0
  6 11  1  0  0  0  0
  7 10  1  0  0  0  0
  7 11  1  0  0  0  0
 11 14  1  0  0  0  0
 13 15  1  0  0  0  0
 14 15  1  0  0  0  0
  2 17  1  0  0  0  0
  2 18  1  0  0  0  0
  3 19  1  0  0  0  0
  3 20  1  0  0  0  0
  4 21  1  0  0  0  0
  4 22  1  0  0  0  0
  5 23  1  0  0  0  0
  5 24  1  0  0  0  0
  6 25  1  0  0  0  0
  6 26  1  0  0  0  0
  7 27  1  0  0  0  0
  7 28  1  0  0  0  0
  8 29  1  0  0  0  0
  9 30  1  0  0  0  0
 10 31  1  0  0  0  0
 12 32  1  0  0  0  0
 12 33  1  0  0  0  0
 12 34  1  0  0  0  0
 13 35  1  0  0  0  0
 13 36  1  0  0  0  0
 14 37  1  0  0  0  0
 14 38  1  0  0  0  0
 15 39  1  0  0  0  0
 15 40  1  0  0  0  0
M  END
> <id>
EN300-1797480

> <smiles>
CC(=O)CCCC1(CC2CC3CC(C2)C1)C3

> <IUPAC Name>
5-(adamantan-1-yl)pentan-2-one

> <CAS>
1626393-87-0

> <URL>
https://www.enaminestore.com/catalog/EN300-1797480

> <ROCS_ShapeQuery>
x0812_0A_x1140_0A_x1097_0A_x0365_0A_x1097_0A_x0310_0A

> <ROCS_TanimotoCombo>
0.714 

> <ROCS_ShapeTanimoto>
0.232 

> <ROCS_ColorTanimoto>
0.482 

> <ROCS_RefTversky>
0.211 

> <ROCS_RefColorTversky>
0.498 

> <ROCS_RefTverskyCombo>
0.709 

> <ROCS_FitTversky>
1.792 

> <ROCS_FitColorTversky>
0.937 

> <ROCS_FitTverskyCombo>
2.729 

> <ROCS_ColorScore>
-7.354

> <ROCS_Overlap>
2130.072

> <ROCS_Rank>
191                 

$$$$
untitled-dbase-115956_2
  -OEChem-02092408543D

 32 33  0     0  0  0  0  0  0999 V2000
   10.0277   11.9257   22.4799 C   0  0  0  0  0  0  0  0  0  0  0  0
    9.1650   11.7600   25.0157 C   0  0  0  0  0  0  0  0  0  0  0  0
    7.6097   11.8322   23.6405 C   0  0  0  0  0  0  0  0  0  0  0  0
    9.0927   11.2942   23.5042 C   0  0  0  0  0  0  0  0  0  0  0  0
    7.7677   11.0305   24.9887 C   0  0  0  0  0  0  0  0  0  0  0  0
    8.9635    9.7444   23.5691 C   0  0  0  0  0  0  0  0  0  0  0  0
    8.3885    9.1372   22.2932 C   0  0  0  0  0  0  0  0  0  0  0  0
   10.2663    9.0504   23.9539 C   0  0  0  0  0  0  0  0  0  0  0  0
   12.5521   14.5080   23.0698 C   0  0  0  0  0  0  0  0  0  0  0  0
    6.7855   11.1966   26.1086 C   0  0  0  0  0  0  0  0  0  0  0  0
   11.7530   13.5229   22.2435 C   0  0  0  0  0  0  0  0  0  0  0  0
   10.0436   11.6298   21.2927 O   0  0  0  0  0  0  0  0  0  0  0  0
    8.0093    9.6337   24.6422 O   0  0  0  0  0  0  0  0  0  0  0  0
   10.8204   12.8491   23.0945 O   0  0  0  0  0  0  0  0  0  0  0  0
    4.8111   10.6401   25.5032 I   0  0  0  0  0  0  0  0  0  0  0  0
    9.9281   11.3050   25.6510 H   0  0  0  0  0  0  0  0  0  0  0  0
    9.1611   12.8409   25.2024 H   0  0  0  0  0  0  0  0  0  0  0  0
    7.4813   12.9187   23.7168 H   0  0  0  0  0  0  0  0  0  0  0  0
    6.8637   11.4471   22.9417 H   0  0  0  0  0  0  0  0  0  0  0  0
    8.3211    8.0548   22.3953 H   0  0  0  0  0  0  0  0  0  0  0  0
    9.0319    9.3748   21.4469 H   0  0  0  0  0  0  0  0  0  0  0  0
    7.3933    9.5393   22.1070 H   0  0  0  0  0  0  0  0  0  0  0  0
   10.1172    7.9717   23.9837 H   0  0  0  0  0  0  0  0  0  0  0  0
   10.5919    9.3911   24.9361 H   0  0  0  0  0  0  0  0  0  0  0  0
   11.0400    9.2821   23.2228 H   0  0  0  0  0  0  0  0  0  0  0  0
   11.8972   15.2536   23.5292 H   0  0  0  0  0  0  0  0  0  0  0  0
   13.1060   13.9896   23.8593 H   0  0  0  0  0  0  0  0  0  0  0  0
   13.2917   15.0229   22.4476 H   0  0  0  0  0  0  0  0  0  0  0  0
    6.7718   12.2417   26.4583 H   0  0  0  0  0  0  0  0  0  0  0  0
    7.0809   10.5838   26.9757 H   0  0  0  0  0  0  0  0  0  0  0  0
   12.4139   12.7801   21.7869 H   0  0  0  0  0  0  0  0  0  0  0  0
   11.1996   14.0426   21.4557 H   0  0  0  0  0  0  0  0  0  0  0  0
  1  4  1  1  0  0  0
  1 12  2  0  0  0  0
  1 14  1  0  0  0  0
  2  4  1  0  0  0  0
  2  5  1  0  0  0  0
  3  4  1  0  0  0  0
  3  5  1  0  0  0  0
  4  6  1  0  0  0  0
  5 10  1  1  0  0  0
  5 13  1  0  0  0  0
  6  7  1  0  0  0  0
  6  8  1  0  0  0  0
  6 13  1  0  0  0  0
  9 11  1  0  0  0  0
 10 15  1  0  0  0  0
 11 14  1  0  0  0  0
  2 16  1  0  0  0  0
  2 17  1  0  0  0  0
  3 18  1  0  0  0  0
  3 19  1  0  0  0  0
  7 20  1  0  0  0  0
  7 21  1  0  0  0  0
  7 22  1  0  0  0  0
  8 23  1  0  0  0  0
  8 24  1  0  0  0  0
  8 25  1  0  0  0  0
  9 26  1  0  0  0  0
  9 27  1  0  0  0  0
  9 28  1  0  0  0  0
 10 29  1  0  0  0  0
 10 30  1  0  0  0  0
 11 31  1  0  0  0  0
 11 32  1  0  0  0  0
M  END
> <id>
EN300-37408162

> <smiles>
CCOC(=O)[C@]1(C[C@@]2(CI)C1)C(C)(C)O2

> <IUPAC Name>
ethyl 1-(iodomethyl)-3,3-dimethyl-2-oxabicyclo[2.1.1]hexane-4-carboxylate

> <CAS>
2219374-96-4

> <URL>
https://www.enaminestore.com/catalog/EN300-37408162

> <ROCS_ShapeQuery>
x0812_0A_x1140_0A_x1097_0A_x0365_0A_x1097_0A_x0310_0A

> <ROCS_TanimotoCombo>
0.714 

> <ROCS_ShapeTanimoto>
0.254 

> <ROCS_ColorTanimoto>
0.460 

> <ROCS_RefTversky>
0.226 

> <ROCS_RefColorTversky>
0.547 

> <ROCS_RefTverskyCombo>
0.772 

> <ROCS_FitTversky>
2.004 

> <ROCS_FitColorTversky>
0.743 

> <ROCS_FitTverskyCombo>
2.747 

> <ROCS_ColorScore>
-8.157

> <ROCS_Overlap>
2281.643

> <ROCS_Rank>
192                 

$$$$
untitled-dbase-164534_2
  -OEChem-02092408543D

 32 33  0     0  0  0  0  0  0999 V2000
   10.0264   11.9269   22.4787 C   0  0  0  0  0  0  0  0  0  0  0  0
    9.1640   11.7616   25.0145 C   0  0  0  0  0  0  0  0  0  0  0  0
    7.6087   11.8308   23.6395 C   0  0  0  0  0  0  0  0  0  0  0  0
    9.0921   11.2947   23.5033 C   0  0  0  0  0  0  0  0  0  0  0  0
    7.7678   11.0303   24.9882 C   0  0  0  0  0  0  0  0  0  0  0  0
    8.9647    9.7449   23.5692 C   0  0  0  0  0  0  0  0  0  0  0  0
    8.3896    9.1367   22.2938 C   0  0  0  0  0  0  0  0  0  0  0  0
   10.2683    9.0522   23.9535 C   0  0  0  0  0  0  0  0  0  0  0  0
   12.5475   14.5127   23.0676 C   0  0  0  0  0  0  0  0  0  0  0  0
    6.7858   11.1960   26.1080 C   0  0  0  0  0  0  0  0  0  0  0  0
   11.7497   13.5263   22.2416 C   0  0  0  0  0  0  0  0  0  0  0  0
   10.0428   11.6306   21.2916 O   0  0  0  0  0  0  0  0  0  0  0  0
    8.0112    9.6336   24.6428 O   0  0  0  0  0  0  0  0  0  0  0  0
   10.8179   12.8517   23.0930 O   0  0  0  0  0  0  0  0  0  0  0  0
    4.8117   10.6366   25.5036 I   0  0  0  0  0  0  0  0  0  0  0  0
    9.9279   11.3078   25.6497 H   0  0  0  0  0  0  0  0  0  0  0  0
    9.1589   12.8424   25.2005 H   0  0  0  0  0  0  0  0  0  0  0  0
    7.4791   12.9173   23.7149 H   0  0  0  0  0  0  0  0  0  0  0  0
    6.8631   11.4442   22.9413 H   0  0  0  0  0  0  0  0  0  0  0  0
    8.3234    8.0542   22.3963 H   0  0  0  0  0  0  0  0  0  0  0  0
    9.0323    9.3747   21.4470 H   0  0  0  0  0  0  0  0  0  0  0  0
    7.3939    9.5376   22.1080 H   0  0  0  0  0  0  0  0  0  0  0  0
   10.1202    7.9734   23.9839 H   0  0  0  0  0  0  0  0  0  0  0  0
   10.5944    9.3937   24.9352 H   0  0  0  0  0  0  0  0  0  0  0  0
   11.0413    9.2843   23.2217 H   0  0  0  0  0  0  0  0  0  0  0  0
   11.8916   15.2577   23.5265 H   0  0  0  0  0  0  0  0  0  0  0  0
   13.1020   13.9954   23.8574 H   0  0  0  0  0  0  0  0  0  0  0  0
   13.2865   15.0283   22.4452 H   0  0  0  0  0  0  0  0  0  0  0  0
    6.7707   12.2414   26.4571 H   0  0  0  0  0  0  0  0  0  0  0  0
    7.0819   10.5842   26.9757 H   0  0  0  0  0  0  0  0  0  0  0  0
   12.4116   12.7841   21.7855 H   0  0  0  0  0  0  0  0  0  0  0  0
   11.1957   14.0449   21.4536 H   0  0  0  0  0  0  0  0  0  0  0  0
  1  4  1  0  0  0  0
  1 12  2  0  0  0  0
  1 14  1  0  0  0  0
  2  4  1  0  0  0  0
  2  5  1  0  0  0  0
  3  4  1  0  0  0  0
  3  5  1  0  0  0  0
  4  6  1  0  0  0  0
  5 10  1  0  0  0  0
  5 13  1  0  0  0  0
  6  7  1  0  0  0  0
  6  8  1  0  0  0  0
  6 13  1  0  0  0  0
  9 11  1  0  0  0  0
 10 15  1  0  0  0  0
 11 14  1  0  0  0  0
  2 16  1  0  0  0  0
  2 17  1  0  0  0  0
  3 18  1  0  0  0  0
  3 19  1  0  0  0  0
  7 20  1  0  0  0  0
  7 21  1  0  0  0  0
  7 22  1  0  0  0  0
  8 23  1  0  0  0  0
  8 24  1  0  0  0  0
  8 25  1  0  0  0  0
  9 26  1  0  0  0  0
  9 27  1  0  0  0  0
  9 28  1  0  0  0  0
 10 29  1  0  0  0  0
 10 30  1  0  0  0  0
 11 31  1  0  0  0  0
 11 32  1  0  0  0  0
M  END
> <id>
EN300-1703281

> <smiles>
CCOC(=O)C1(CC2(CI)C1)C(C)(C)O2

> <MDLNUMBER>
MFCD31665523

> <IUPAC Name>
ethyl 1-(iodomethyl)-3,3-dimethyl-2-oxabicyclo[2.1.1]hexane-4-carboxylate

> <CAS>
2219374-96-4

> <Purity>
95

> <URL>
https://www.enaminestore.com/catalog/EN300-1703281

> <ROCS_ShapeQuery>
x0812_0A_x1140_0A_x1097_0A_x0365_0A_x1097_0A_x0310_0A

> <ROCS_TanimotoCombo>
0.714 

> <ROCS_ShapeTanimoto>
0.254 

> <ROCS_ColorTanimoto>
0.460 

> <ROCS_RefTversky>
0.226 

> <ROCS_RefColorTversky>
0.547 

> <ROCS_RefTverskyCombo>
0.772 

> <ROCS_FitTversky>
2.004 

> <ROCS_FitColorTversky>
0.743 

> <ROCS_FitTverskyCombo>
2.747 

> <ROCS_ColorScore>
-8.156

> <ROCS_Overlap>
2281.791

> <ROCS_Rank>
193                 

$$$$
untitled-dbase-227155_1
  -OEChem-02092408543D

 31 33  0     1  0  0  0  0  0999 V2000
    8.1525   12.8380   22.9051 C   0  0  0  0  0  0  0  0  0  0  0  0
    8.3543   12.3732   25.3620 C   0  0  0  0  0  0  0  0  0  0  0  0
    6.5326   11.2796   24.0184 C   0  0  0  0  0  0  0  0  0  0  0  0
   10.0678   11.4720   23.7695 C   0  0  0  0  0  0  0  0  0  0  0  0
    8.2502   10.3791   22.4304 C   0  0  0  0  0  0  0  0  0  0  0  0
    8.4499    9.9083   24.8863 C   0  0  0  0  0  0  0  0  0  0  0  0
    9.1407   12.6597   24.0702 C   0  0  1  0  0  0  0  0  0  0  0  0
    7.3139   11.5616   22.7228 C   0  0  2  0  0  0  0  0  0  0  0  0
    7.5050   11.0887   25.2070 C   0  0  0  0  0  0  0  0  0  0  0  0
    9.2372   10.1892   23.5939 C   0  0  0  0  0  0  0  0  0  0  0  0
    6.7235   10.8097   26.4934 C   0  0  0  0  0  0  0  0  0  0  0  0
   10.1132    9.1064   23.3148 O   0  0  0  0  0  0  0  0  0  0  0  0
    5.9560    9.6372   26.3028 O   0  0  0  0  0  0  0  0  0  0  0  0
    7.4944   13.6937   23.0998 H   0  0  0  0  0  0  0  0  0  0  0  0
    8.7001   13.0609   21.9810 H   0  0  0  0  0  0  0  0  0  0  0  0
    9.0529   12.2666   26.2020 H   0  0  0  0  0  0  0  0  0  0  0  0
    7.7079   13.2288   25.5964 H   0  0  0  0  0  0  0  0  0  0  0  0
    5.8443   12.1103   24.2213 H   0  0  0  0  0  0  0  0  0  0  0  0
    5.9138   10.3826   23.8871 H   0  0  0  0  0  0  0  0  0  0  0  0
   10.6589   11.6660   22.8651 H   0  0  0  0  0  0  0  0  0  0  0  0
   10.7983   11.3412   24.5784 H   0  0  0  0  0  0  0  0  0  0  0  0
    7.6690    9.4613   22.2725 H   0  0  0  0  0  0  0  0  0  0  0  0
    8.7984   10.5464   21.4942 H   0  0  0  0  0  0  0  0  0  0  0  0
    9.1484    9.7331   25.7156 H   0  0  0  0  0  0  0  0  0  0  0  0
    7.8809    8.9745   24.7813 H   0  0  0  0  0  0  0  0  0  0  0  0
    9.7352   13.5716   24.1937 H   0  0  0  0  0  0  0  0  0  0  0  0
    6.6140   11.6945   21.8905 H   0  0  0  0  0  0  0  0  0  0  0  0
    6.0620   11.6463   26.7095 H   0  0  0  0  0  0  0  0  0  0  0  0
    7.4167   10.6606   27.3190 H   0  0  0  0  0  0  0  0  0  0  0  0
    9.5586    8.3161   23.2102 H   0  0  0  0  0  0  0  0  0  0  0  0
    5.4675    9.4763   27.1288 H   0  0  0  0  0  0  0  0  0  0  0  0
  1  7  1  0  0  0  0
  1  8  1  0  0  0  0
  2  7  1  0  0  0  0
  2  9  1  0  0  0  0
  3  8  1  0  0  0  0
  3  9  1  0  0  0  0
  4  7  1  0  0  0  0
  4 10  1  0  0  0  0
  5  8  1  0  0  0  0
  5 10  1  0  0  0  0
  6  9  1  0  0  0  0
  6 10  1  0  0  0  0
  9 11  1  0  0  0  0
 10 12  1  0  0  0  0
 11 13  1  0  0  0  0
  1 14  1  0  0  0  0
  1 15  1  0  0  0  0
  2 16  1  0  0  0  0
  2 17  1  0  0  0  0
  3 18  1  0  0  0  0
  3 19  1  0  0  0  0
  4 20  1  0  0  0  0
  4 21  1  0  0  0  0
  5 22  1  0  0  0  0
  5 23  1  0  0  0  0
  6 24  1  0  0  0  0
  6 25  1  0  0  0  0
  7 26  1  0  0  0  0
  8 27  1  0  0  0  0
 11 28  1  0  0  0  0
 11 29  1  0  0  0  0
 12 30  1  0  0  0  0
 13 31  1  0  0  0  0
M  END
> <id>
EN300-25990891

> <smiles>
OCC1(CC2CC3CC(O)(C2)C1)C3

> <MDLNUMBER>
MFCD03105096

> <IUPAC Name>
3-(hydroxymethyl)adamantan-1-ol

> <CAS>
38584-37-1

> <Purity>
95

> <URL>
https://www.enaminestore.com/catalog/EN300-25990891

> <ROCS_ShapeQuery>
x0812_0A_x1140_0A_x1097_0A_x0365_0A_x1097_0A_x0310_0A

> <ROCS_TanimotoCombo>
0.714 

> <ROCS_ShapeTanimoto>
0.234 

> <ROCS_ColorTanimoto>
0.480 

> <ROCS_RefTversky>
0.210 

> <ROCS_RefColorTversky>
0.557 

> <ROCS_RefTverskyCombo>
0.767 

> <ROCS_FitTversky>
1.959 

> <ROCS_FitColorTversky>
0.776 

> <ROCS_FitTverskyCombo>
2.736 

> <ROCS_ColorScore>
-8.308

> <ROCS_Overlap>
2122.472

> <ROCS_Rank>
194                 

$$$$
untitled-dbase-561613_1
  -OEChem-02092408543D

 23 24  0     0  0  0  0  0  0999 V2000
    7.7792   11.6328   23.1932 C   0  0  0  0  0  0  0  0  0  0  0  0
    8.2984   11.8486   25.2112 C   0  0  0  0  0  0  0  0  0  0  0  0
    9.5253   10.0982   23.9952 C   0  0  0  0  0  0  0  0  0  0  0  0
    9.1722   11.6000   23.9256 C   0  0  0  0  0  0  0  0  0  0  0  0
    7.4352   10.7596   24.4624 C   0  0  0  0  0  0  0  0  0  0  0  0
   10.2751   12.5395   23.5413 C   0  0  0  0  0  0  0  0  0  0  0  0
    6.0158   10.4854   24.8567 C   0  0  0  0  0  0  0  0  0  0  0  0
    5.9353   10.0888   26.2325 N   0  0  0  0  0  0  0  0  0  0  0  0
    8.2502    9.5579   24.3812 O   0  0  0  0  0  0  0  0  0  0  0  0
   10.6279   12.3288   22.1772 O   0  0  0  0  0  0  0  0  0  0  0  0
    7.2843   12.6069   23.1112 H   0  0  0  0  0  0  0  0  0  0  0  0
    7.7286   11.1184   22.2291 H   0  0  0  0  0  0  0  0  0  0  0  0
    8.7413   11.5383   26.1621 H   0  0  0  0  0  0  0  0  0  0  0  0
    7.8542   12.8436   25.3253 H   0  0  0  0  0  0  0  0  0  0  0  0
    9.8236    9.6881   23.0261 H   0  0  0  0  0  0  0  0  0  0  0  0
   10.2705    9.8742   24.7640 H   0  0  0  0  0  0  0  0  0  0  0  0
   11.1715   12.3747   24.1560 H   0  0  0  0  0  0  0  0  0  0  0  0
    9.9644   13.5878   23.6564 H   0  0  0  0  0  0  0  0  0  0  0  0
    5.4263   11.3988   24.7057 H   0  0  0  0  0  0  0  0  0  0  0  0
    5.6241    9.6802   24.2220 H   0  0  0  0  0  0  0  0  0  0  0  0
    5.5364    9.1729   26.2964 H   0  0  0  0  0  0  0  0  0  0  0  0
    6.8523   10.0790   26.6339 H   0  0  0  0  0  0  0  0  0  0  0  0
   11.3406   12.9551   21.9758 H   0  0  0  0  0  0  0  0  0  0  0  0
  1  4  1  0  0  0  0
  1  5  1  0  0  0  0
  2  4  1  0  0  0  0
  2  5  1  0  0  0  0
  3  4  1  0  0  0  0
  3  9  1  0  0  0  0
  4  6  1  1  0  0  0
  5  7  1  1  0  0  0
  5  9  1  0  0  0  0
  6 10  1  0  0  0  0
  7  8  1  0  0  0  0
  1 11  1  0  0  0  0
  1 12  1  0  0  0  0
  2 13  1  0  0  0  0
  2 14  1  0  0  0  0
  3 15  1  0  0  0  0
  3 16  1  0  0  0  0
  6 17  1  0  0  0  0
  6 18  1  0  0  0  0
  7 19  1  0  0  0  0
  7 20  1  0  0  0  0
  8 21  1  0  0  0  0
  8 22  1  0  0  0  0
 10 23  1  0  0  0  0
M  END
> <id>
EN300-37375169

> <smiles>
Cl.NC[C@]1(C[C@@]2(CO)C1)OC2

> <IUPAC Name>
[1-(aminomethyl)-2-oxabicyclo[2.1.1]hexan-4-yl]methanol hydrochloride

> <CAS>
2138150-58-8

> <URL>
https://www.enaminestore.com/catalog/EN300-37375169

> <ROCS_ShapeQuery>
x0812_0A_x1140_0A_x1097_0A_x0365_0A_x1097_0A_x0310_0A

> <ROCS_TanimotoCombo>
0.714 

> <ROCS_ShapeTanimoto>
0.201 

> <ROCS_ColorTanimoto>
0.513 

> <ROCS_RefTversky>
0.183 

> <ROCS_RefColorTversky>
0.610 

> <ROCS_RefTverskyCombo>
0.793 

> <ROCS_FitTversky>
1.962 

> <ROCS_FitColorTversky>
0.764 

> <ROCS_FitTverskyCombo>
2.726 

> <ROCS_ColorScore>
-9.127

> <ROCS_Overlap>
1848.469

> <ROCS_Rank>
195                 

$$$$
untitled-dbase-570950_1
  -OEChem-02092408543D

 23 24  0     0  0  0  0  0  0999 V2000
    7.7792   11.6328   23.1932 C   0  0  0  0  0  0  0  0  0  0  0  0
    8.2984   11.8486   25.2112 C   0  0  0  0  0  0  0  0  0  0  0  0
    9.5253   10.0982   23.9952 C   0  0  0  0  0  0  0  0  0  0  0  0
    9.1722   11.6000   23.9256 C   0  0  0  0  0  0  0  0  0  0  0  0
    7.4352   10.7596   24.4624 C   0  0  0  0  0  0  0  0  0  0  0  0
   10.2751   12.5395   23.5413 C   0  0  0  0  0  0  0  0  0  0  0  0
    6.0158   10.4854   24.8567 C   0  0  0  0  0  0  0  0  0  0  0  0
    5.9353   10.0888   26.2325 N   0  0  0  0  0  0  0  0  0  0  0  0
    8.2502    9.5579   24.3812 O   0  0  0  0  0  0  0  0  0  0  0  0
   10.6279   12.3288   22.1772 O   0  0  0  0  0  0  0  0  0  0  0  0
    7.2843   12.6069   23.1112 H   0  0  0  0  0  0  0  0  0  0  0  0
    7.7286   11.1184   22.2291 H   0  0  0  0  0  0  0  0  0  0  0  0
    8.7413   11.5383   26.1621 H   0  0  0  0  0  0  0  0  0  0  0  0
    7.8542   12.8436   25.3253 H   0  0  0  0  0  0  0  0  0  0  0  0
    9.8236    9.6881   23.0261 H   0  0  0  0  0  0  0  0  0  0  0  0
   10.2705    9.8742   24.7640 H   0  0  0  0  0  0  0  0  0  0  0  0
   11.1715   12.3747   24.1560 H   0  0  0  0  0  0  0  0  0  0  0  0
    9.9644   13.5878   23.6564 H   0  0  0  0  0  0  0  0  0  0  0  0
    5.4263   11.3988   24.7057 H   0  0  0  0  0  0  0  0  0  0  0  0
    5.6241    9.6802   24.2220 H   0  0  0  0  0  0  0  0  0  0  0  0
    5.5364    9.1729   26.2964 H   0  0  0  0  0  0  0  0  0  0  0  0
    6.8523   10.0790   26.6339 H   0  0  0  0  0  0  0  0  0  0  0  0
   11.3406   12.9551   21.9758 H   0  0  0  0  0  0  0  0  0  0  0  0
  1  4  1  0  0  0  0
  1  5  1  0  0  0  0
  2  4  1  0  0  0  0
  2  5  1  0  0  0  0
  3  4  1  0  0  0  0
  3  9  1  0  0  0  0
  4  6  1  1  0  0  0
  5  7  1  1  0  0  0
  5  9  1  0  0  0  0
  6 10  1  0  0  0  0
  7  8  1  0  0  0  0
  1 11  1  0  0  0  0
  1 12  1  0  0  0  0
  2 13  1  0  0  0  0
  2 14  1  0  0  0  0
  3 15  1  0  0  0  0
  3 16  1  0  0  0  0
  6 17  1  0  0  0  0
  6 18  1  0  0  0  0
  7 19  1  0  0  0  0
  7 20  1  0  0  0  0
  8 21  1  0  0  0  0
  8 22  1  0  0  0  0
 10 23  1  0  0  0  0
M  END
> <id>
EN300-37375165

> <smiles>
NC[C@]1(C[C@@]2(CO)C1)OC2

> <IUPAC Name>
[(1r,4s)-1-(aminomethyl)-2-oxabicyclo[2.1.1]hexan-4-yl]methanol

> <CAS>
2137574-46-8

> <URL>
https://www.enaminestore.com/catalog/EN300-37375165

> <ROCS_ShapeQuery>
x0812_0A_x1140_0A_x1097_0A_x0365_0A_x1097_0A_x0310_0A

> <ROCS_TanimotoCombo>
0.714 

> <ROCS_ShapeTanimoto>
0.201 

> <ROCS_ColorTanimoto>
0.513 

> <ROCS_RefTversky>
0.183 

> <ROCS_RefColorTversky>
0.610 

> <ROCS_RefTverskyCombo>
0.793 

> <ROCS_FitTversky>
1.962 

> <ROCS_FitColorTversky>
0.764 

> <ROCS_FitTverskyCombo>
2.726 

> <ROCS_ColorScore>
-9.127

> <ROCS_Overlap>
1848.469

> <ROCS_Rank>
196                 

$$$$
untitled-dbase-560979_1
  -OEChem-02092408543D

 21 22  0     0  0  0  0  0  0999 V2000
    7.8974   11.7203   23.1899 C   0  0  0  0  0  0  0  0  0  0  0  0
    8.3509   11.8444   25.2313 C   0  0  0  0  0  0  0  0  0  0  0  0
    9.5811   10.1155   23.9881 C   0  0  0  0  0  0  0  0  0  0  0  0
    9.2631   11.6266   23.9670 C   0  0  0  0  0  0  0  0  0  0  0  0
    7.4908   10.8059   24.4107 C   0  0  0  0  0  0  0  0  0  0  0  0
    6.0530   10.5491   24.7454 C   0  0  0  0  0  0  0  0  0  0  0  0
   10.3987   12.5549   23.6582 C   0  0  0  0  0  0  0  0  0  0  0  0
    8.2819    9.5899   24.3088 O   0  0  0  0  0  0  0  0  0  0  0  0
    5.9490   10.1008   26.0939 O   0  0  0  0  0  0  0  0  0  0  0  0
   10.0440   13.8437   23.8585 F   0  0  0  0  0  0  0  0  0  0  0  0
   11.4683   12.2957   24.4428 F   0  0  0  0  0  0  0  0  0  0  0  0
   10.7931   12.4321   22.3712 F   0  0  0  0  0  0  0  0  0  0  0  0
    7.4269   12.7080   23.1304 H   0  0  0  0  0  0  0  0  0  0  0  0
    7.8692   11.2456   22.2048 H   0  0  0  0  0  0  0  0  0  0  0  0
    8.7537   11.4868   26.1833 H   0  0  0  0  0  0  0  0  0  0  0  0
    7.9247   12.8441   25.3702 H   0  0  0  0  0  0  0  0  0  0  0  0
    9.9038    9.7371   23.0140 H   0  0  0  0  0  0  0  0  0  0  0  0
   10.2941    9.8444   24.7720 H   0  0  0  0  0  0  0  0  0  0  0  0
    5.6236    9.7745   24.0937 H   0  0  0  0  0  0  0  0  0  0  0  0
    5.4493   11.4622   24.6411 H   0  0  0  0  0  0  0  0  0  0  0  0
    5.0062    9.9488   26.2629 H   0  0  0  0  0  0  0  0  0  0  0  0
  1  4  1  0  0  0  0
  1  5  1  0  0  0  0
  2  4  1  0  0  0  0
  2  5  1  0  0  0  0
  3  4  1  0  0  0  0
  3  8  1  0  0  0  0
  4  7  1  1  0  0  0
  5  6  1  1  0  0  0
  5  8  1  0  0  0  0
  6  9  1  0  0  0  0
  7 10  1  0  0  0  0
  7 11  1  0  0  0  0
  7 12  1  0  0  0  0
  1 13  1  0  0  0  0
  1 14  1  0  0  0  0
  2 15  1  0  0  0  0
  2 16  1  0  0  0  0
  3 17  1  0  0  0  0
  3 18  1  0  0  0  0
  6 19  1  0  0  0  0
  6 20  1  0  0  0  0
  9 21  1  0  0  0  0
M  END
> <id>
EN300-37375283

> <smiles>
OC[C@]1(C[C@]2(C1)C(F)(F)F)OC2

> <IUPAC Name>
[(1r,4r)-4-(trifluoromethyl)-2-oxabicyclo[2.1.1]hexan-1-yl]methanol

> <CAS>
2305254-89-9

> <URL>
https://www.enaminestore.com/catalog/EN300-37375283

> <ROCS_ShapeQuery>
x0812_0A_x1140_0A_x1097_0A_x0365_0A_x1097_0A_x0310_0A

> <ROCS_TanimotoCombo>
0.714 

> <ROCS_ShapeTanimoto>
0.222 

> <ROCS_ColorTanimoto>
0.491 

> <ROCS_RefTversky>
0.201 

> <ROCS_RefColorTversky>
0.552 

> <ROCS_RefTverskyCombo>
0.753 

> <ROCS_FitTversky>
1.942 

> <ROCS_FitColorTversky>
0.817 

> <ROCS_FitTverskyCombo>
2.759 

> <ROCS_ColorScore>
-8.210

> <ROCS_Overlap>
2029.456

> <ROCS_Rank>
197                 

$$$$
untitled-dbase-569990_5
  -OEChem-02092408543D

 40 41  0     1  0  0  0  0  0999 V2000
   11.9803   12.3959   22.5164 C   0  0  0  0  0  0  0  0  0  0  0  0
    7.6825   12.0647   25.2841 C   0  0  0  0  0  0  0  0  0  0  0  0
    8.7823   12.5673   24.3374 C   0  0  0  0  0  0  0  0  0  0  0  0
    8.5380    9.7248   25.0555 C   0  0  0  0  0  0  0  0  0  0  0  0
    7.5241   10.8736   23.2270 C   0  0  0  0  0  0  0  0  0  0  0  0
    7.3634   10.6656   24.7327 C   0  0  2  0  0  0  0  0  0  0  0  0
    9.6506   10.2254   24.1170 C   0  0  2  0  0  0  0  0  0  0  0  0
    8.9644   11.3880   23.3548 C   0  0  2  0  0  0  0  0  0  0  0  0
   14.7294   12.5685   21.7665 C   0  0  0  0  0  0  0  0  0  0  0  0
   14.7752   14.6813   23.1242 C   0  0  0  0  0  0  0  0  0  0  0  0
   14.2629   12.4895   24.2385 C   0  0  0  0  0  0  0  0  0  0  0  0
    9.6121   11.7878   22.0444 C   0  0  0  0  0  0  0  0  0  0  0  0
   14.1237   13.3102   22.9572 C   0  0  0  0  0  0  0  0  0  0  0  0
   10.6553   12.7348   22.2778 N   0  0  0  0  0  0  0  0  0  0  0  0
   12.4205   11.2517   22.5570 O   0  0  0  0  0  0  0  0  0  0  0  0
   10.0332    9.1664   23.2506 O   0  0  0  0  0  0  0  0  0  0  0  0
   12.7309   13.5228   22.7011 O   0  0  0  0  0  0  0  0  0  0  0  0
    8.0151   12.0426   26.3266 H   0  0  0  0  0  0  0  0  0  0  0  0
    6.8046   12.7176   25.2196 H   0  0  0  0  0  0  0  0  0  0  0  0
    8.4450   13.4745   23.8223 H   0  0  0  0  0  0  0  0  0  0  0  0
    9.7046   12.8093   24.8762 H   0  0  0  0  0  0  0  0  0  0  0  0
    8.8331    9.7978   26.1075 H   0  0  0  0  0  0  0  0  0  0  0  0
    8.2709    8.6830   24.8448 H   0  0  0  0  0  0  0  0  0  0  0  0
    7.4394    9.9450   22.6523 H   0  0  0  0  0  0  0  0  0  0  0  0
    6.8320   11.6187   22.8192 H   0  0  0  0  0  0  0  0  0  0  0  0
    6.3943   10.2799   25.0550 H   0  0  0  0  0  0  0  0  0  0  0  0
   10.5342   10.5490   24.6777 H   0  0  0  0  0  0  0  0  0  0  0  0
   14.2643   11.5838   21.6433 H   0  0  0  0  0  0  0  0  0  0  0  0
   14.6050   13.1308   20.8353 H   0  0  0  0  0  0  0  0  0  0  0  0
   15.7992   12.3878   21.9215 H   0  0  0  0  0  0  0  0  0  0  0  0
   14.3437   15.2170   23.9774 H   0  0  0  0  0  0  0  0  0  0  0  0
   14.5961   15.3084   22.2434 H   0  0  0  0  0  0  0  0  0  0  0  0
   15.8561   14.5990   23.2773 H   0  0  0  0  0  0  0  0  0  0  0  0
   13.8286   13.0213   25.0928 H   0  0  0  0  0  0  0  0  0  0  0  0
   13.7691   11.5164   24.1499 H   0  0  0  0  0  0  0  0  0  0  0  0
   15.3186   12.3233   24.4821 H   0  0  0  0  0  0  0  0  0  0  0  0
   10.0198   10.8853   21.5837 H   0  0  0  0  0  0  0  0  0  0  0  0
    8.8396   12.2283   21.4102 H   0  0  0  0  0  0  0  0  0  0  0  0
   10.4102   13.7282   22.2685 H   0  0  0  0  0  0  0  0  0  0  0  0
   10.3520    8.4434   23.8150 H   0  0  0  0  0  0  0  0  0  0  0  0
  1 14  1  0  0  0  0
  1 15  2  0  0  0  0
  1 17  1  0  0  0  0
  2  3  1  0  0  0  0
  2  6  1  0  0  0  0
  3  8  1  0  0  0  0
  4  6  1  0  0  0  0
  4  7  1  0  0  0  0
  5  6  1  6  0  0  0
  5  8  1  0  0  0  0
  7  8  1  0  0  0  0
  7 16  1  6  0  0  0
  8 12  1  6  0  0  0
  9 13  1  0  0  0  0
 10 13  1  0  0  0  0
 11 13  1  0  0  0  0
 12 14  1  0  0  0  0
 13 17  1  0  0  0  0
  2 18  1  0  0  0  0
  2 19  1  0  0  0  0
  3 20  1  0  0  0  0
  3 21  1  0  0  0  0
  4 22  1  0  0  0  0
  4 23  1  0  0  0  0
  5 24  1  0  0  0  0
  5 25  1  0  0  0  0
  6 26  1  0  0  0  0
  7 27  1  0  0  0  0
  9 28  1  0  0  0  0
  9 29  1  0  0  0  0
  9 30  1  0  0  0  0
 10 31  1  0  0  0  0
 10 32  1  0  0  0  0
 10 33  1  0  0  0  0
 11 34  1  0  0  0  0
 11 35  1  0  0  0  0
 11 36  1  0  0  0  0
 12 37  1  0  0  0  0
 12 38  1  0  0  0  0
 14 39  1  0  0  0  0
 16 40  1  0  0  0  0
M  END
> <id>
EN300-37371553

> <smiles>
CC(C)(C)OC(=O)NC[C@@]1(CC[C@@H]2C[C@H]1O)C2 |&1:9,12,14,r|

> <IUPAC Name>
rac-tert-butyl N-{[(1R,2R,4S)-2-hydroxybicyclo[2.2.1]heptan-1-yl]methyl}carbamate

> <URL>
https://www.enaminestore.com/catalog/EN300-37371553

> <ROCS_ShapeQuery>
x0812_0A_x1140_0A_x1097_0A_x0365_0A_x1097_0A_x0310_0A

> <ROCS_TanimotoCombo>
0.714 

> <ROCS_ShapeTanimoto>
0.226 

> <ROCS_ColorTanimoto>
0.487 

> <ROCS_RefTversky>
0.207 

> <ROCS_RefColorTversky>
0.580 

> <ROCS_RefTverskyCombo>
0.787 

> <ROCS_FitTversky>
1.690 

> <ROCS_FitColorTversky>
0.753 

> <ROCS_FitTverskyCombo>
2.443 

> <ROCS_ColorScore>
-8.669

> <ROCS_Overlap>
2095.256

> <ROCS_Rank>
198                 

$$$$
untitled-dbase-466593_2
  -OEChem-02092408543D

 29 30  0     0  0  0  0  0  0999 V2000
    8.2999   11.8647   25.2045 C   0  0  0  0  0  0  0  0  0  0  0  0
    7.7828   11.6499   23.1986 C   0  0  0  0  0  0  0  0  0  0  0  0
    9.1911   11.5799   23.9242 C   0  0  0  0  0  0  0  0  0  0  0  0
    7.4340   10.7733   24.4634 C   0  0  0  0  0  0  0  0  0  0  0  0
    9.5280   10.0605   23.9998 C   0  0  0  0  0  0  0  0  0  0  0  0
   10.5592    9.7211   25.0717 C   0  0  0  0  0  0  0  0  0  0  0  0
    9.9368    9.4629   22.6571 C   0  0  0  0  0  0  0  0  0  0  0  0
   10.2787   12.5431   23.5411 C   0  0  0  0  0  0  0  0  0  0  0  0
    6.0113   10.5163   24.8586 C   0  0  0  0  0  0  0  0  0  0  0  0
    5.9297   10.0950   26.2269 N   0  0  0  0  0  0  0  0  0  0  0  0
    8.2345    9.5560   24.3873 O   0  0  0  0  0  0  0  0  0  0  0  0
   10.6246   12.3480   22.1742 O   0  0  0  0  0  0  0  0  0  0  0  0
    8.7054   11.5785   26.1772 H   0  0  0  0  0  0  0  0  0  0  0  0
    7.8656   12.8678   25.2930 H   0  0  0  0  0  0  0  0  0  0  0  0
    7.3099   12.6370   23.1307 H   0  0  0  0  0  0  0  0  0  0  0  0
    7.6872   11.1555   22.2296 H   0  0  0  0  0  0  0  0  0  0  0  0
   10.7515    8.6488   25.0750 H   0  0  0  0  0  0  0  0  0  0  0  0
   10.1871   10.0182   26.0514 H   0  0  0  0  0  0  0  0  0  0  0  0
   11.4908   10.2486   24.8702 H   0  0  0  0  0  0  0  0  0  0  0  0
   10.1587    8.4029   22.7750 H   0  0  0  0  0  0  0  0  0  0  0  0
   10.8230    9.9715   22.2793 H   0  0  0  0  0  0  0  0  0  0  0  0
    9.1269    9.5785   21.9377 H   0  0  0  0  0  0  0  0  0  0  0  0
   11.1787   12.3855   24.1503 H   0  0  0  0  0  0  0  0  0  0  0  0
    9.9489   13.5828   23.6682 H   0  0  0  0  0  0  0  0  0  0  0  0
    5.4377   11.4427   24.7276 H   0  0  0  0  0  0  0  0  0  0  0  0
    5.6033    9.7305   24.2103 H   0  0  0  0  0  0  0  0  0  0  0  0
    5.5149    9.1852   26.2753 H   0  0  0  0  0  0  0  0  0  0  0  0
    6.8481   10.0613   26.6239 H   0  0  0  0  0  0  0  0  0  0  0  0
   11.3261   12.9869   21.9711 H   0  0  0  0  0  0  0  0  0  0  0  0
  1  3  1  0  0  0  0
  1  4  1  0  0  0  0
  2  3  1  0  0  0  0
  2  4  1  0  0  0  0
  3  5  1  0  0  0  0
  3  8  1  0  0  0  0
  4  9  1  0  0  0  0
  4 11  1  0  0  0  0
  5  6  1  0  0  0  0
  5  7  1  0  0  0  0
  5 11  1  0  0  0  0
  8 12  1  0  0  0  0
  9 10  1  0  0  0  0
  1 13  1  0  0  0  0
  1 14  1  0  0  0  0
  2 15  1  0  0  0  0
  2 16  1  0  0  0  0
  6 17  1  0  0  0  0
  6 18  1  0  0  0  0
  6 19  1  0  0  0  0
  7 20  1  0  0  0  0
  7 21  1  0  0  0  0
  7 22  1  0  0  0  0
  8 23  1  0  0  0  0
  8 24  1  0  0  0  0
  9 25  1  0  0  0  0
  9 26  1  0  0  0  0
 10 27  1  0  0  0  0
 10 28  1  0  0  0  0
 12 29  1  0  0  0  0
M  END
> <id>
EN300-37476811

> <smiles>
CC1(C)OC2(CN)CC1(CO)C2

> <IUPAC Name>
[1-(aminomethyl)-3,3-dimethyl-2-oxabicyclo[2.1.1]hexan-4-yl]methanol

> <Purity>
95

> <URL>
https://www.enaminestore.com/catalog/EN300-37476811

> <ROCS_ShapeQuery>
x0812_0A_x1140_0A_x1097_0A_x0365_0A_x1097_0A_x0310_0A

> <ROCS_TanimotoCombo>
0.713 

> <ROCS_ShapeTanimoto>
0.228 

> <ROCS_ColorTanimoto>
0.486 

> <ROCS_RefTversky>
0.204 

> <ROCS_RefColorTversky>
0.607 

> <ROCS_RefTverskyCombo>
0.811 

> <ROCS_FitTversky>
2.014 

> <ROCS_FitColorTversky>
0.708 

> <ROCS_FitTverskyCombo>
2.723 

> <ROCS_ColorScore>
-9.115

> <ROCS_Overlap>
2065.815

> <ROCS_Rank>
199                 

$$$$
untitled-dbase-572534_1
  -OEChem-02092408543D

 30 31  0     0  0  0  0  0  0999 V2000
    9.8733   11.9799   22.0316 C   0  0  0  0  0  0  0  0  0  0  0  0
    7.9138   12.4218   23.5241 C   0  0  0  0  0  0  0  0  0  0  0  0
   10.0640   11.6091   24.4866 C   0  0  0  0  0  0  0  0  0  0  0  0
    7.1450   11.8780   24.7336 C   0  0  0  0  0  0  0  0  0  0  0  0
    9.3264   11.0538   25.7105 C   0  0  0  0  0  0  0  0  0  0  0  0
    8.6556   10.0848   23.1224 C   0  0  0  0  0  0  0  0  0  0  0  0
    9.1405   11.5346   23.2613 C   0  0  0  0  0  0  0  0  0  0  0  0
    7.8888   10.6631   25.3190 C   0  0  0  0  0  0  0  0  0  0  0  0
   11.0119   13.8219   21.0860 C   0  0  0  0  0  0  0  0  0  0  0  0
    7.1351   10.0784   26.5086 C   0  0  0  0  0  0  0  0  0  0  0  0
   10.0532   11.2746   21.0481 O   0  0  0  0  0  0  0  0  0  0  0  0
    7.9602    9.6472   24.2999 O   0  0  0  0  0  0  0  0  0  0  0  0
    5.8472    9.6799   26.0754 O   0  0  0  0  0  0  0  0  0  0  0  0
   10.2931   13.2671   22.1921 O   0  0  0  0  0  0  0  0  0  0  0  0
    7.2566   12.4488   22.6455 H   0  0  0  0  0  0  0  0  0  0  0  0
    8.2154   13.4609   23.7080 H   0  0  0  0  0  0  0  0  0  0  0  0
   10.3793   12.6434   24.6748 H   0  0  0  0  0  0  0  0  0  0  0  0
   10.9862   11.0386   24.3168 H   0  0  0  0  0  0  0  0  0  0  0  0
    7.0236   12.6660   25.4861 H   0  0  0  0  0  0  0  0  0  0  0  0
    6.1404   11.5826   24.4059 H   0  0  0  0  0  0  0  0  0  0  0  0
    9.8693   10.1733   26.0765 H   0  0  0  0  0  0  0  0  0  0  0  0
    9.3274   11.7957   26.5176 H   0  0  0  0  0  0  0  0  0  0  0  0
    7.9758    9.9711   22.2699 H   0  0  0  0  0  0  0  0  0  0  0  0
    9.4923    9.3966   22.9543 H   0  0  0  0  0  0  0  0  0  0  0  0
   11.3003   14.8504   21.3169 H   0  0  0  0  0  0  0  0  0  0  0  0
   10.3819   13.8006   20.1932 H   0  0  0  0  0  0  0  0  0  0  0  0
   11.9099   13.2249   20.9102 H   0  0  0  0  0  0  0  0  0  0  0  0
    7.0347   10.8300   27.2921 H   0  0  0  0  0  0  0  0  0  0  0  0
    7.6683    9.2109   26.8981 H   0  0  0  0  0  0  0  0  0  0  0  0
    5.3873    9.3115   26.8489 H   0  0  0  0  0  0  0  0  0  0  0  0
  1  7  1  0  0  0  0
  1 11  2  0  0  0  0
  1 14  1  0  0  0  0
  2  4  1  0  0  0  0
  2  7  1  0  0  0  0
  3  5  1  0  0  0  0
  3  7  1  0  0  0  0
  4  8  1  0  0  0  0
  5  8  1  0  0  0  0
  6  7  1  0  0  0  0
  6 12  1  0  0  0  0
  8 10  1  0  0  0  0
  8 12  1  0  0  0  0
  9 14  1  0  0  0  0
 10 13  1  0  0  0  0
  2 15  1  0  0  0  0
  2 16  1  0  0  0  0
  3 17  1  0  0  0  0
  3 18  1  0  0  0  0
  4 19  1  0  0  0  0
  4 20  1  0  0  0  0
  5 21  1  0  0  0  0
  5 22  1  0  0  0  0
  6 23  1  0  0  0  0
  6 24  1  0  0  0  0
  9 25  1  0  0  0  0
  9 26  1  0  0  0  0
  9 27  1  0  0  0  0
 10 28  1  0  0  0  0
 10 29  1  0  0  0  0
 13 30  1  0  0  0  0
M  END
> <id>
EN300-22849528

> <smiles>
COC(=O)C1(CCC2(CO)CC1)CO2

> <IUPAC Name>
methyl 1-(hydroxymethyl)-2-oxabicyclo[2.2.2]octane-4-carboxylate

> <CAS>
2383677-53-8

> <Purity>
85

> <URL>
https://www.enaminestore.com/catalog/EN300-22849528

> <ROCS_ShapeQuery>
x0812_0A_x1140_0A_x1097_0A_x0365_0A_x1097_0A_x0310_0A

> <ROCS_TanimotoCombo>
0.713 

> <ROCS_ShapeTanimoto>
0.227 

> <ROCS_ColorTanimoto>
0.486 

> <ROCS_RefTversky>
0.206 

> <ROCS_RefColorTversky>
0.553 

> <ROCS_RefTverskyCombo>
0.759 

> <ROCS_FitTversky>
1.857 

> <ROCS_FitColorTversky>
0.799 

> <ROCS_FitTverskyCombo>
2.656 

> <ROCS_ColorScore>
-8.233

> <ROCS_Overlap>
2081.929

> <ROCS_Rank>
200                 

$$$$
untitled-dbase-29726_4
  -OEChem-02092408543D

 27 28  0     1  0  0  0  0  0999 V2000
    9.1114    9.9401   23.9298 C   0  0  0  0  0  0  0  0  0  0  0  0
    9.9910   12.4235   22.2347 C   0  0  0  0  0  0  0  0  0  0  0  0
    8.0605   10.5081   25.8914 C   0  0  0  0  0  0  0  0  0  0  0  0
    6.9894   10.2320   24.8285 C   0  0  0  0  0  0  0  0  0  0  0  0
    9.4192   12.2650   24.6609 C   0  0  0  0  0  0  0  0  0  0  0  0
    7.7064   11.5896   22.8034 C   0  0  0  0  0  0  0  0  0  0  0  0
    9.3588   10.8017   25.1322 C   0  0  2  0  0  0  0  0  0  0  0  0
    7.7078   10.2048   23.4700 C   0  0  1  0  0  0  0  0  0  0  0  0
    8.8680   12.5153   23.2377 C   0  0  0  0  0  0  0  0  0  0  0  0
   12.1104   13.3206   21.6991 C   0  0  0  0  0  0  0  0  0  0  0  0
    9.9299    9.2282   23.3727 O   0  0  0  0  0  0  0  0  0  0  0  0
    9.9916   11.6654   21.2742 O   0  0  0  0  0  0  0  0  0  0  0  0
   10.9764   13.3035   22.5718 O   0  0  0  0  0  0  0  0  0  0  0  0
    7.7752   11.3263   26.5602 H   0  0  0  0  0  0  0  0  0  0  0  0
    8.1881    9.6145   26.5143 H   0  0  0  0  0  0  0  0  0  0  0  0
    6.5308    9.2538   25.0238 H   0  0  0  0  0  0  0  0  0  0  0  0
    6.1818   10.9724   24.8548 H   0  0  0  0  0  0  0  0  0  0  0  0
    8.8694   12.9044   25.3764 H   0  0  0  0  0  0  0  0  0  0  0  0
   10.4698   12.6109   24.7137 H   0  0  0  0  0  0  0  0  0  0  0  0
    7.7341   11.4540   21.7064 H   0  0  0  0  0  0  0  0  0  0  0  0
    6.7478   12.0976   23.0095 H   0  0  0  0  0  0  0  0  0  0  0  0
   10.2441   10.4973   25.6964 H   0  0  0  0  0  0  0  0  0  0  0  0
    7.3219    9.4188   22.8136 H   0  0  0  0  0  0  0  0  0  0  0  0
    8.5113   13.5692   23.1816 H   0  0  0  0  0  0  0  0  0  0  0  0
   12.8357   14.0553   22.0573 H   0  0  0  0  0  0  0  0  0  0  0  0
   11.7880   13.5750   20.6862 H   0  0  0  0  0  0  0  0  0  0  0  0
   12.5707   12.3298   21.6947 H   0  0  0  0  0  0  0  0  0  0  0  0
  1  7  1  0  0  0  0
  1  8  1  0  0  0  0
  1 11  2  0  0  0  0
  2  9  1  0  0  0  0
  2 12  2  0  0  0  0
  2 13  1  0  0  0  0
  3  4  1  0  0  0  0
  3  7  1  0  0  0  0
  4  8  1  0  0  0  0
  5  7  1  0  0  0  0
  5  9  1  0  0  0  0
  6  8  1  0  0  0  0
  6  9  1  0  0  0  0
 10 13  1  0  0  0  0
  3 14  1  0  0  0  0
  3 15  1  0  0  0  0
  4 16  1  0  0  0  0
  4 17  1  0  0  0  0
  5 18  1  0  0  0  0
  5 19  1  0  0  0  0
  6 20  1  0  0  0  0
  6 21  1  0  0  0  0
  7 22  1  0  0  0  0
  8 23  1  0  0  0  0
  9 24  1  0  0  0  0
 10 25  1  0  0  0  0
 10 26  1  0  0  0  0
 10 27  1  0  0  0  0
M  END
> <id>
EN300-111178

> <smiles>
COC(=O)C1CC2CCC(C1)C2=O

> <MDLNUMBER>
MFCD09837132

> <IUPAC Name>
methyl 8-oxobicyclo[3.2.1]octane-3-carboxylate

> <CAS>
95685-34-0

> <URL>
https://www.enaminestore.com/catalog/EN300-111178

> <MP>
50-55

> <ROCS_ShapeQuery>
x0812_0A_x1140_0A_x1097_0A_x0365_0A_x1097_0A_x0310_0A

> <ROCS_TanimotoCombo>
0.713 

> <ROCS_ShapeTanimoto>
0.216 

> <ROCS_ColorTanimoto>
0.497 

> <ROCS_RefTversky>
0.196 

> <ROCS_RefColorTversky>
0.517 

> <ROCS_RefTverskyCombo>
0.713 

> <ROCS_FitTversky>
1.848 

> <ROCS_FitColorTversky>
0.930 

> <ROCS_FitTverskyCombo>
2.777 

> <ROCS_ColorScore>
-7.632

> <ROCS_Overlap>
1984.824

> <ROCS_Rank>
201                 

$$$$
untitled-dbase-558605_2
  -OEChem-02092408543D

 24 26  0     1  0  0  0  0  0999 V2000
    6.8399   11.5297   24.6057 C   0  0  0  0  0  0  0  0  0  0  0  0
    7.1098   11.2103   23.1188 C   0  0  0  0  0  0  0  0  0  0  0  0
    9.0996   12.5830   24.8213 C   0  0  0  0  0  0  0  0  0  0  0  0
    8.1602   11.5015   25.4091 C   0  0  2  0  0  0  0  0  0  0  0  0
    8.6248   10.9985   22.8909 C   0  0  2  0  0  0  0  0  0  0  0  0
    8.8634   10.1704   25.2344 C   0  0  2  0  0  0  0  0  0  0  0  0
    9.1315    9.8803   23.7861 C   0  0  1  0  0  0  0  0  0  0  0  0
    9.3265   12.3157   23.3130 C   0  0  2  0  0  0  0  0  0  0  0  0
   11.6098   13.6016   23.2403 O   0  0  0  0  0  0  0  0  0  0  0  0
   11.2111   11.7212   21.5903 O   0  0  0  0  0  0  0  0  0  0  0  0
    8.1724    9.1293   24.5386 O   0  0  0  0  0  0  0  0  0  0  0  0
   11.0499   12.3086   22.9045 S   0  0  0  0  0  0  0  0  0  0  0  0
   11.9442   10.9908   24.1903 Cl  0  0  0  0  0  0  0  0  0  0  0  0
    6.3649   12.5141   24.6928 H   0  0  0  0  0  0  0  0  0  0  0  0
    6.1300   10.8003   25.0142 H   0  0  0  0  0  0  0  0  0  0  0  0
    6.5514   10.3124   22.8272 H   0  0  0  0  0  0  0  0  0  0  0  0
    6.7383   12.0280   22.4898 H   0  0  0  0  0  0  0  0  0  0  0  0
    8.6516   13.5755   24.9523 H   0  0  0  0  0  0  0  0  0  0  0  0
   10.0472   12.5889   25.3736 H   0  0  0  0  0  0  0  0  0  0  0  0
    7.9659   11.6930   26.4692 H   0  0  0  0  0  0  0  0  0  0  0  0
    8.8221   10.7583   21.8408 H   0  0  0  0  0  0  0  0  0  0  0  0
    9.6132    9.9286   25.9714 H   0  0  0  0  0  0  0  0  0  0  0  0
   10.0621    9.4194   23.4945 H   0  0  0  0  0  0  0  0  0  0  0  0
    8.9141   13.1513   22.7331 H   0  0  0  0  0  0  0  0  0  0  0  0
  1  2  1  0  0  0  0
  1  4  1  0  0  0  0
  2  5  1  1  0  0  0
  3  4  1  6  0  0  0
  3  8  1  0  0  0  0
  4  6  1  0  0  0  0
  5  7  1  0  0  0  0
  5  8  1  0  0  0  0
  6  7  1  0  0  0  0
  6 11  1  1  0  0  0
  7 11  1  1  0  0  0
  8 12  1  6  0  0  0
  9 12  2  0  0  0  0
 10 12  2  0  0  0  0
 12 13  1  0  0  0  0
  1 14  1  0  0  0  0
  1 15  1  0  0  0  0
  2 16  1  0  0  0  0
  2 17  1  0  0  0  0
  3 18  1  0  0  0  0
  3 19  1  0  0  0  0
  4 20  1  0  0  0  0
  5 21  1  0  0  0  0
  6 22  1  0  0  0  0
  7 23  1  0  0  0  0
  8 24  1  0  0  0  0
M  END
> <id>
EN300-7354344

> <smiles>
ClS(=O)(=O)[C@@H]1C[C@H]2CC[C@@H]1[C@@H]3O[C@@H]32 |&1:4,6,9,10,12,r|

> <IUPAC Name>
rac-(1R,2R,4S,5R,6R)-3-oxatricyclo[3.2.2.0,2,4]nonane-6-sulfonyl chloride

> <CAS>
2764004-34-2

> <URL>
https://www.enaminestore.com/catalog/EN300-7354344

> <ROCS_ShapeQuery>
x0812_0A_x1140_0A_x1097_0A_x0365_0A_x1097_0A_x0310_0A

> <ROCS_TanimotoCombo>
0.713 

> <ROCS_ShapeTanimoto>
0.221 

> <ROCS_ColorTanimoto>
0.492 

> <ROCS_RefTversky>
0.200 

> <ROCS_RefColorTversky>
0.703 

> <ROCS_RefTverskyCombo>
0.903 

> <ROCS_FitTversky>
1.911 

> <ROCS_FitColorTversky>
0.621 

> <ROCS_FitTverskyCombo>
2.532 

> <ROCS_ColorScore>
-10.721

> <ROCS_Overlap>
2020.652

> <ROCS_Rank>
202                 

$$$$
untitled-dbase-561720_3
  -OEChem-02092408543D

 26 27  0     0  0  0  0  0  0999 V2000
    9.1390   11.8273   25.0472 C   0  0  0  0  0  0  0  0  0  0  0  0
    7.6605   11.6927   23.5693 C   0  0  0  0  0  0  0  0  0  0  0  0
    9.2210    9.7946   23.6654 C   0  0  0  0  0  0  0  0  0  0  0  0
    9.1932   11.3346   23.5531 C   0  0  0  0  0  0  0  0  0  0  0  0
    7.8182   10.9671   24.9622 C   0  0  0  0  0  0  0  0  0  0  0  0
   10.5402   12.2494   20.2662 C   0  0  0  0  0  0  0  0  0  0  0  0
   10.1274   11.9597   22.5615 C   0  0  0  0  0  0  0  0  0  0  0  0
    6.7564   11.0650   26.0151 C   0  0  0  0  0  0  0  0  0  0  0  0
    5.6569   10.1949   25.7142 N   0  0  0  0  0  0  0  0  0  0  0  0
    8.2231    9.5988   24.6817 O   0  0  0  0  0  0  0  0  0  0  0  0
    9.6809   11.6739   21.2392 O   0  0  0  0  0  0  0  0  0  0  0  0
    9.9196   11.4433   25.7104 H   0  0  0  0  0  0  0  0  0  0  0  0
    9.0213   12.9043   25.2106 H   0  0  0  0  0  0  0  0  0  0  0  0
    7.3991   12.7565   23.5890 H   0  0  0  0  0  0  0  0  0  0  0  0
    7.0381   11.1804   22.8299 H   0  0  0  0  0  0  0  0  0  0  0  0
    8.9114    9.2974   22.7416 H   0  0  0  0  0  0  0  0  0  0  0  0
   10.1848    9.4130   24.0142 H   0  0  0  0  0  0  0  0  0  0  0  0
   10.1700   12.0118   19.2659 H   0  0  0  0  0  0  0  0  0  0  0  0
   11.5521   11.8569   20.3946 H   0  0  0  0  0  0  0  0  0  0  0  0
   10.5525   13.3338   20.3996 H   0  0  0  0  0  0  0  0  0  0  0  0
   11.1476   11.5649   22.6711 H   0  0  0  0  0  0  0  0  0  0  0  0
   10.1642   13.0519   22.6818 H   0  0  0  0  0  0  0  0  0  0  0  0
    7.1924   10.7804   26.9813 H   0  0  0  0  0  0  0  0  0  0  0  0
    6.3992   12.1019   26.0586 H   0  0  0  0  0  0  0  0  0  0  0  0
    4.8180   10.7328   25.6185 H   0  0  0  0  0  0  0  0  0  0  0  0
    5.8374    9.7085   24.8581 H   0  0  0  0  0  0  0  0  0  0  0  0
  1  4  1  0  0  0  0
  1  5  1  0  0  0  0
  2  4  1  0  0  0  0
  2  5  1  0  0  0  0
  3  4  1  0  0  0  0
  3 10  1  0  0  0  0
  4  7  1  1  0  0  0
  5  8  1  1  0  0  0
  5 10  1  0  0  0  0
  6 11  1  0  0  0  0
  7 11  1  0  0  0  0
  8  9  1  0  0  0  0
  1 12  1  0  0  0  0
  1 13  1  0  0  0  0
  2 14  1  0  0  0  0
  2 15  1  0  0  0  0
  3 16  1  0  0  0  0
  3 17  1  0  0  0  0
  6 18  1  0  0  0  0
  6 19  1  0  0  0  0
  6 20  1  0  0  0  0
  7 21  1  0  0  0  0
  7 22  1  0  0  0  0
  8 23  1  0  0  0  0
  8 24  1  0  0  0  0
  9 25  1  0  0  0  0
  9 26  1  0  0  0  0
M  END
> <id>
EN300-37375257

> <smiles>
COC[C@]1(C[C@@]2(CN)C1)CO2

> <IUPAC Name>
1-[4-(methoxymethyl)-2-oxabicyclo[2.1.1]hexan-1-yl]methanamine

> <CAS>
2243507-14-2

> <URL>
https://www.enaminestore.com/catalog/EN300-37375257

> <ROCS_ShapeQuery>
x0812_0A_x1140_0A_x1097_0A_x0365_0A_x1097_0A_x0310_0A

> <ROCS_TanimotoCombo>
0.713 

> <ROCS_ShapeTanimoto>
0.203 

> <ROCS_ColorTanimoto>
0.510 

> <ROCS_RefTversky>
0.185 

> <ROCS_RefColorTversky>
0.587 

> <ROCS_RefTverskyCombo>
0.771 

> <ROCS_FitTversky>
1.905 

> <ROCS_FitColorTversky>
0.796 

> <ROCS_FitTverskyCombo>
2.700 

> <ROCS_ColorScore>
-8.750

> <ROCS_Overlap>
1868.922

> <ROCS_Rank>
203                 

$$$$
untitled-dbase-567460_3
  -OEChem-02092408543D

 26 27  0     0  0  0  0  0  0999 V2000
    9.1390   11.8273   25.0472 C   0  0  0  0  0  0  0  0  0  0  0  0
    7.6605   11.6927   23.5693 C   0  0  0  0  0  0  0  0  0  0  0  0
    9.2210    9.7946   23.6654 C   0  0  0  0  0  0  0  0  0  0  0  0
    9.1932   11.3346   23.5531 C   0  0  0  0  0  0  0  0  0  0  0  0
    7.8182   10.9671   24.9622 C   0  0  0  0  0  0  0  0  0  0  0  0
   10.5402   12.2494   20.2662 C   0  0  0  0  0  0  0  0  0  0  0  0
   10.1274   11.9597   22.5615 C   0  0  0  0  0  0  0  0  0  0  0  0
    6.7564   11.0650   26.0151 C   0  0  0  0  0  0  0  0  0  0  0  0
    5.6569   10.1949   25.7142 N   0  0  0  0  0  0  0  0  0  0  0  0
    8.2231    9.5988   24.6817 O   0  0  0  0  0  0  0  0  0  0  0  0
    9.6809   11.6739   21.2392 O   0  0  0  0  0  0  0  0  0  0  0  0
    9.9196   11.4433   25.7104 H   0  0  0  0  0  0  0  0  0  0  0  0
    9.0213   12.9043   25.2106 H   0  0  0  0  0  0  0  0  0  0  0  0
    7.3991   12.7565   23.5890 H   0  0  0  0  0  0  0  0  0  0  0  0
    7.0381   11.1804   22.8299 H   0  0  0  0  0  0  0  0  0  0  0  0
    8.9114    9.2974   22.7416 H   0  0  0  0  0  0  0  0  0  0  0  0
   10.1848    9.4130   24.0142 H   0  0  0  0  0  0  0  0  0  0  0  0
   10.1700   12.0118   19.2659 H   0  0  0  0  0  0  0  0  0  0  0  0
   11.5521   11.8569   20.3946 H   0  0  0  0  0  0  0  0  0  0  0  0
   10.5525   13.3338   20.3996 H   0  0  0  0  0  0  0  0  0  0  0  0
   11.1476   11.5649   22.6711 H   0  0  0  0  0  0  0  0  0  0  0  0
   10.1642   13.0519   22.6818 H   0  0  0  0  0  0  0  0  0  0  0  0
    7.1924   10.7804   26.9813 H   0  0  0  0  0  0  0  0  0  0  0  0
    6.3992   12.1019   26.0586 H   0  0  0  0  0  0  0  0  0  0  0  0
    4.8180   10.7328   25.6185 H   0  0  0  0  0  0  0  0  0  0  0  0
    5.8374    9.7085   24.8581 H   0  0  0  0  0  0  0  0  0  0  0  0
  1  4  1  0  0  0  0
  1  5  1  0  0  0  0
  2  4  1  0  0  0  0
  2  5  1  0  0  0  0
  3  4  1  0  0  0  0
  3 10  1  0  0  0  0
  4  7  1  1  0  0  0
  5  8  1  1  0  0  0
  5 10  1  0  0  0  0
  6 11  1  0  0  0  0
  7 11  1  0  0  0  0
  8  9  1  0  0  0  0
  1 12  1  0  0  0  0
  1 13  1  0  0  0  0
  2 14  1  0  0  0  0
  2 15  1  0  0  0  0
  3 16  1  0  0  0  0
  3 17  1  0  0  0  0
  6 18  1  0  0  0  0
  6 19  1  0  0  0  0
  6 20  1  0  0  0  0
  7 21  1  0  0  0  0
  7 22  1  0  0  0  0
  8 23  1  0  0  0  0
  8 24  1  0  0  0  0
  9 25  1  0  0  0  0
  9 26  1  0  0  0  0
M  END
> <id>
EN300-37375256

> <smiles>
Cl.COC[C@]1(C[C@@]2(CN)C1)CO2

> <IUPAC Name>
1-[4-(methoxymethyl)-2-oxabicyclo[2.1.1]hexan-1-yl]methanamine hydrochloride

> <CAS>
2243520-91-2

> <URL>
https://www.enaminestore.com/catalog/EN300-37375256

> <ROCS_ShapeQuery>
x0812_0A_x1140_0A_x1097_0A_x0365_0A_x1097_0A_x0310_0A

> <ROCS_TanimotoCombo>
0.713 

> <ROCS_ShapeTanimoto>
0.203 

> <ROCS_ColorTanimoto>
0.510 

> <ROCS_RefTversky>
0.185 

> <ROCS_RefColorTversky>
0.587 

> <ROCS_RefTverskyCombo>
0.771 

> <ROCS_FitTversky>
1.905 

> <ROCS_FitColorTversky>
0.796 

> <ROCS_FitTverskyCombo>
2.700 

> <ROCS_ColorScore>
-8.750

> <ROCS_Overlap>
1868.922

> <ROCS_Rank>
204                 

$$$$
untitled-dbase-281069_3
  -OEChem-02092408543D

 26 27  0     0  0  0  0  0  0999 V2000
    9.1392   11.8273   25.0474 C   0  0  0  0  0  0  0  0  0  0  0  0
    7.6607   11.6930   23.5693 C   0  0  0  0  0  0  0  0  0  0  0  0
    9.2209    9.7946   23.6654 C   0  0  0  0  0  0  0  0  0  0  0  0
    9.1934   11.3347   23.5533 C   0  0  0  0  0  0  0  0  0  0  0  0
    7.8182   10.9672   24.9623 C   0  0  0  0  0  0  0  0  0  0  0  0
   10.5395   12.2492   20.2659 C   0  0  0  0  0  0  0  0  0  0  0  0
   10.1273   11.9598   22.5613 C   0  0  0  0  0  0  0  0  0  0  0  0
    6.7561   11.0650   26.0148 C   0  0  0  0  0  0  0  0  0  0  0  0
    5.6566   10.1950   25.7135 N   0  0  0  0  0  0  0  0  0  0  0  0
    8.2230    9.5988   24.6817 O   0  0  0  0  0  0  0  0  0  0  0  0
    9.6805   11.6738   21.2392 O   0  0  0  0  0  0  0  0  0  0  0  0
    9.9197   11.4430   25.7106 H   0  0  0  0  0  0  0  0  0  0  0  0
    9.0217   12.9042   25.2109 H   0  0  0  0  0  0  0  0  0  0  0  0
    7.3996   12.7568   23.5892 H   0  0  0  0  0  0  0  0  0  0  0  0
    7.0382   11.1809   22.8299 H   0  0  0  0  0  0  0  0  0  0  0  0
    8.9114    9.2976   22.7416 H   0  0  0  0  0  0  0  0  0  0  0  0
   10.1848    9.4129   24.0142 H   0  0  0  0  0  0  0  0  0  0  0  0
   10.1690   12.0114   19.2657 H   0  0  0  0  0  0  0  0  0  0  0  0
   11.5514   11.8568   20.3941 H   0  0  0  0  0  0  0  0  0  0  0  0
   10.5517   13.3336   20.3991 H   0  0  0  0  0  0  0  0  0  0  0  0
   11.1475   11.5650   22.6707 H   0  0  0  0  0  0  0  0  0  0  0  0
   10.1640   13.0520   22.6815 H   0  0  0  0  0  0  0  0  0  0  0  0
    7.1917   10.7804   26.9812 H   0  0  0  0  0  0  0  0  0  0  0  0
    6.3989   12.1019   26.0583 H   0  0  0  0  0  0  0  0  0  0  0  0
    4.8178   10.7328   25.6175 H   0  0  0  0  0  0  0  0  0  0  0  0
    5.8374    9.7086   24.8574 H   0  0  0  0  0  0  0  0  0  0  0  0
  1  4  1  0  0  0  0
  1  5  1  0  0  0  0
  2  4  1  0  0  0  0
  2  5  1  0  0  0  0
  3  4  1  0  0  0  0
  3 10  1  0  0  0  0
  4  7  1  0  0  0  0
  5  8  1  0  0  0  0
  5 10  1  0  0  0  0
  6 11  1  0  0  0  0
  7 11  1  0  0  0  0
  8  9  1  0  0  0  0
  1 12  1  0  0  0  0
  1 13  1  0  0  0  0
  2 14  1  0  0  0  0
  2 15  1  0  0  0  0
  3 16  1  0  0  0  0
  3 17  1  0  0  0  0
  6 18  1  0  0  0  0
  6 19  1  0  0  0  0
  6 20  1  0  0  0  0
  7 21  1  0  0  0  0
  7 22  1  0  0  0  0
  8 23  1  0  0  0  0
  8 24  1  0  0  0  0
  9 25  1  0  0  0  0
  9 26  1  0  0  0  0
M  END
> <id>
EN300-6481913

> <smiles>
COCC1(CC2(CN)C1)CO2

> <MDLNUMBER>
MFCD31668261

> <IUPAC Name>
[4-(methoxymethyl)-2-oxabicyclo[2.1.1]hexan-1-yl]methanamine

> <CAS>
2243507-14-2

> <Purity>
95

> <URL>
https://www.enaminestore.com/catalog/EN300-6481913

> <ROCS_ShapeQuery>
x0812_0A_x1140_0A_x1097_0A_x0365_0A_x1097_0A_x0310_0A

> <ROCS_TanimotoCombo>
0.712 

> <ROCS_ShapeTanimoto>
0.203 

> <ROCS_ColorTanimoto>
0.510 

> <ROCS_RefTversky>
0.185 

> <ROCS_RefColorTversky>
0.586 

> <ROCS_RefTverskyCombo>
0.771 

> <ROCS_FitTversky>
1.905 

> <ROCS_FitColorTversky>
0.796 

> <ROCS_FitTverskyCombo>
2.700 

> <ROCS_ColorScore>
-8.750

> <ROCS_Overlap>
1868.865

> <ROCS_Rank>
205                 

$$$$
untitled-dbase-281068_3
  -OEChem-02092408543D

 26 27  0     0  0  0  0  0  0999 V2000
    9.1392   11.8273   25.0474 C   0  0  0  0  0  0  0  0  0  0  0  0
    7.6607   11.6930   23.5693 C   0  0  0  0  0  0  0  0  0  0  0  0
    9.2209    9.7946   23.6654 C   0  0  0  0  0  0  0  0  0  0  0  0
    9.1934   11.3347   23.5533 C   0  0  0  0  0  0  0  0  0  0  0  0
    7.8182   10.9672   24.9623 C   0  0  0  0  0  0  0  0  0  0  0  0
   10.5395   12.2492   20.2659 C   0  0  0  0  0  0  0  0  0  0  0  0
   10.1273   11.9598   22.5613 C   0  0  0  0  0  0  0  0  0  0  0  0
    6.7561   11.0650   26.0148 C   0  0  0  0  0  0  0  0  0  0  0  0
    5.6566   10.1950   25.7135 N   0  0  0  0  0  0  0  0  0  0  0  0
    8.2230    9.5988   24.6817 O   0  0  0  0  0  0  0  0  0  0  0  0
    9.6805   11.6738   21.2392 O   0  0  0  0  0  0  0  0  0  0  0  0
    9.9197   11.4430   25.7106 H   0  0  0  0  0  0  0  0  0  0  0  0
    9.0217   12.9042   25.2109 H   0  0  0  0  0  0  0  0  0  0  0  0
    7.3996   12.7568   23.5892 H   0  0  0  0  0  0  0  0  0  0  0  0
    7.0382   11.1809   22.8299 H   0  0  0  0  0  0  0  0  0  0  0  0
    8.9114    9.2976   22.7416 H   0  0  0  0  0  0  0  0  0  0  0  0
   10.1848    9.4129   24.0142 H   0  0  0  0  0  0  0  0  0  0  0  0
   10.1690   12.0114   19.2657 H   0  0  0  0  0  0  0  0  0  0  0  0
   11.5514   11.8568   20.3941 H   0  0  0  0  0  0  0  0  0  0  0  0
   10.5517   13.3336   20.3991 H   0  0  0  0  0  0  0  0  0  0  0  0
   11.1475   11.5650   22.6707 H   0  0  0  0  0  0  0  0  0  0  0  0
   10.1640   13.0520   22.6815 H   0  0  0  0  0  0  0  0  0  0  0  0
    7.1917   10.7804   26.9812 H   0  0  0  0  0  0  0  0  0  0  0  0
    6.3989   12.1019   26.0583 H   0  0  0  0  0  0  0  0  0  0  0  0
    4.8178   10.7328   25.6175 H   0  0  0  0  0  0  0  0  0  0  0  0
    5.8374    9.7086   24.8574 H   0  0  0  0  0  0  0  0  0  0  0  0
  1  4  1  0  0  0  0
  1  5  1  0  0  0  0
  2  4  1  0  0  0  0
  2  5  1  0  0  0  0
  3  4  1  0  0  0  0
  3 10  1  0  0  0  0
  4  7  1  0  0  0  0
  5  8  1  0  0  0  0
  5 10  1  0  0  0  0
  6 11  1  0  0  0  0
  7 11  1  0  0  0  0
  8  9  1  0  0  0  0
  1 12  1  0  0  0  0
  1 13  1  0  0  0  0
  2 14  1  0  0  0  0
  2 15  1  0  0  0  0
  3 16  1  0  0  0  0
  3 17  1  0  0  0  0
  6 18  1  0  0  0  0
  6 19  1  0  0  0  0
  6 20  1  0  0  0  0
  7 21  1  0  0  0  0
  7 22  1  0  0  0  0
  8 23  1  0  0  0  0
  8 24  1  0  0  0  0
  9 25  1  0  0  0  0
  9 26  1  0  0  0  0
M  END
> <id>
EN300-6481912

> <smiles>
Cl.COCC1(CC2(CN)C1)CO2

> <MDLNUMBER>
MFCD31668260

> <IUPAC Name>
[4-(methoxymethyl)-2-oxabicyclo[2.1.1]hexan-1-yl]methanamine hydrochloride

> <CAS>
2243520-91-2

> <Purity>
95

> <URL>
https://www.enaminestore.com/catalog/EN300-6481912

> <Saltdate>
Cl

> <ROCS_ShapeQuery>
x0812_0A_x1140_0A_x1097_0A_x0365_0A_x1097_0A_x0310_0A

> <ROCS_TanimotoCombo>
0.712 

> <ROCS_ShapeTanimoto>
0.203 

> <ROCS_ColorTanimoto>
0.510 

> <ROCS_RefTversky>
0.185 

> <ROCS_RefColorTversky>
0.586 

> <ROCS_RefTverskyCombo>
0.771 

> <ROCS_FitTversky>
1.905 

> <ROCS_FitColorTversky>
0.796 

> <ROCS_FitTverskyCombo>
2.700 

> <ROCS_ColorScore>
-8.750

> <ROCS_Overlap>
1868.865

> <ROCS_Rank>
206                 

$$$$
untitled-dbase-567799_6
  -OEChem-02092408543D

 22 23  0     0  0  0  0  0  0999 V2000
    9.0188   11.7569   25.1573 C   0  0  0  0  0  0  0  0  0  0  0  0
    7.6212   11.8470   23.5994 C   0  0  0  0  0  0  0  0  0  0  0  0
    9.1593    9.9301   23.5168 C   0  0  0  0  0  0  0  0  0  0  0  0
    9.1497   11.4714   23.6148 C   0  0  0  0  0  0  0  0  0  0  0  0
    7.6977   10.9363   24.8865 C   0  0  0  0  0  0  0  0  0  0  0  0
    6.5813   10.9060   25.8854 C   0  0  0  0  0  0  0  0  0  0  0  0
   10.1405   12.2115   22.7678 C   0  0  0  0  0  0  0  0  0  0  0  0
    4.2522   12.4703   27.6232 N   0  5  0  0  0  0  0  0  0  0  0  0
    6.0826   12.2680   26.1106 N   0  0  0  0  0  0  0  0  0  0  0  0
    5.1282   12.3678   26.8999 N   0  3  0  0  0  0  0  0  0  0  0  0
    8.1066    9.6129   24.4431 O   0  0  0  0  0  0  0  0  0  0  0  0
   11.3802   12.0046   23.2643 F   0  0  0  0  0  0  0  0  0  0  0  0
    9.8857   13.5358   22.8538 F   0  0  0  0  0  0  0  0  0  0  0  0
    9.7594   11.2744   25.8017 H   0  0  0  0  0  0  0  0  0  0  0  0
    8.9010   12.8033   25.4600 H   0  0  0  0  0  0  0  0  0  0  0  0
    7.3676   12.9021   23.7507 H   0  0  0  0  0  0  0  0  0  0  0  0
    7.0355   11.4496   22.7653 H   0  0  0  0  0  0  0  0  0  0  0  0
    8.8962    9.5680   22.5188 H   0  0  0  0  0  0  0  0  0  0  0  0
   10.1000    9.4901   23.8601 H   0  0  0  0  0  0  0  0  0  0  0  0
    6.9201   10.4905   26.8460 H   0  0  0  0  0  0  0  0  0  0  0  0
    5.7491   10.2795   25.5310 H   0  0  0  0  0  0  0  0  0  0  0  0
   10.1001   11.8937   21.7291 H   0  0  0  0  0  0  0  0  0  0  0  0
  1  4  1  0  0  0  0
  1  5  1  0  0  0  0
  2  4  1  0  0  0  0
  2  5  1  0  0  0  0
  3  4  1  0  0  0  0
  3 11  1  0  0  0  0
  4  7  1  0  0  0  0
  5  6  1  0  0  0  0
  5 11  1  0  0  0  0
  6  9  1  0  0  0  0
  7 12  1  0  0  0  0
  7 13  1  0  0  0  0
  8 10  2  0  0  0  0
  9 10  2  0  0  0  0
  1 14  1  0  0  0  0
  1 15  1  0  0  0  0
  2 16  1  0  0  0  0
  2 17  1  0  0  0  0
  3 18  1  0  0  0  0
  3 19  1  0  0  0  0
  6 20  1  0  0  0  0
  6 21  1  0  0  0  0
  7 22  1  0  0  0  0
M  CHG  2   8  -1  10   1
M  END
> <id>
EN300-27755222

> <smiles>
FC(F)C1(CC2(CN=[N+]=[N-])C1)CO2

> <IUPAC Name>
1-(azidomethyl)-4-(difluoromethyl)-2-oxabicyclo[2.1.1]hexane

> <CAS>
2649757-05-9

> <Purity>
95

> <URL>
https://www.enaminestore.com/catalog/EN300-27755222

> <ROCS_ShapeQuery>
x0812_0A_x1140_0A_x1097_0A_x0365_0A_x1097_0A_x0310_0A

> <ROCS_TanimotoCombo>
0.712 

> <ROCS_ShapeTanimoto>
0.240 

> <ROCS_ColorTanimoto>
0.473 

> <ROCS_RefTversky>
0.214 

> <ROCS_RefColorTversky>
0.498 

> <ROCS_RefTverskyCombo>
0.712 

> <ROCS_FitTversky>
2.003 

> <ROCS_FitColorTversky>
0.903 

> <ROCS_FitTverskyCombo>
2.906 

> <ROCS_ColorScore>
-7.357

> <ROCS_Overlap>
2162.837

> <ROCS_Rank>
207                 

$$$$
untitled-dbase-117192_6
  -OEChem-02092408543D

 22 23  0     0  0  0  0  0  0999 V2000
    9.0163   11.7572   25.1599 C   0  0  0  0  0  0  0  0  0  0  0  0
    7.6250   11.8513   23.5966 C   0  0  0  0  0  0  0  0  0  0  0  0
    9.1603    9.9319   23.5181 C   0  0  0  0  0  0  0  0  0  0  0  0
    9.1529   11.4731   23.6177 C   0  0  0  0  0  0  0  0  0  0  0  0
    7.6950   10.9391   24.8830 C   0  0  0  0  0  0  0  0  0  0  0  0
    6.5749   10.9096   25.8778 C   0  0  0  0  0  0  0  0  0  0  0  0
   10.1486   12.2124   22.7759 C   0  0  0  0  0  0  0  0  0  0  0  0
    4.2422   12.4761   27.6089 N   0  5  0  0  0  0  0  0  0  0  0  0
    6.0777   12.2723   26.1027 N   0  0  0  0  0  0  0  0  0  0  0  0
    5.1207   12.3729   26.8887 N   0  3  0  0  0  0  0  0  0  0  0  0
    8.1034    9.6156   24.4399 O   0  0  0  0  0  0  0  0  0  0  0  0
   11.3858   12.0026   23.2773 F   0  0  0  0  0  0  0  0  0  0  0  0
    9.8959   13.5371   22.8625 F   0  0  0  0  0  0  0  0  0  0  0  0
    9.7536   11.2730   25.8068 H   0  0  0  0  0  0  0  0  0  0  0  0
    8.8989   12.8035   25.4633 H   0  0  0  0  0  0  0  0  0  0  0  0
    7.3724   12.9066   23.7480 H   0  0  0  0  0  0  0  0  0  0  0  0
    7.0421   11.4556   22.7599 H   0  0  0  0  0  0  0  0  0  0  0  0
    8.9006    9.5714   22.5187 H   0  0  0  0  0  0  0  0  0  0  0  0
   10.0989    9.4900   23.8647 H   0  0  0  0  0  0  0  0  0  0  0  0
    6.9095   10.4926   26.8392 H   0  0  0  0  0  0  0  0  0  0  0  0
    5.7429   10.2850   25.5197 H   0  0  0  0  0  0  0  0  0  0  0  0
   10.1120   11.8960   21.7366 H   0  0  0  0  0  0  0  0  0  0  0  0
  1  4  1  0  0  0  0
  1  5  1  0  0  0  0
  2  4  1  0  0  0  0
  2  5  1  0  0  0  0
  3  4  1  0  0  0  0
  3 11  1  0  0  0  0
  4  7  1  1  0  0  0
  5  6  1  1  0  0  0
  5 11  1  0  0  0  0
  6  9  1  0  0  0  0
  7 12  1  0  0  0  0
  7 13  1  0  0  0  0
  8 10  2  0  0  0  0
  9 10  2  0  0  0  0
  1 14  1  0  0  0  0
  1 15  1  0  0  0  0
  2 16  1  0  0  0  0
  2 17  1  0  0  0  0
  3 18  1  0  0  0  0
  3 19  1  0  0  0  0
  6 20  1  0  0  0  0
  6 21  1  0  0  0  0
  7 22  1  0  0  0  0
M  CHG  2   8  -1  10   1
M  END
> <id>
EN300-37408184

> <smiles>
FC(F)[C@]1(C[C@@]2(CN=[N+]=[N-])C1)CO2

> <IUPAC Name>
1-(azidomethyl)-4-(difluoromethyl)-2-oxabicyclo[2.1.1]hexane

> <CAS>
2649757-05-9

> <URL>
https://www.enaminestore.com/catalog/EN300-37408184

> <ROCS_ShapeQuery>
x0812_0A_x1140_0A_x1097_0A_x0365_0A_x1097_0A_x0310_0A

> <ROCS_TanimotoCombo>
0.712 

> <ROCS_ShapeTanimoto>
0.240 

> <ROCS_ColorTanimoto>
0.473 

> <ROCS_RefTversky>
0.214 

> <ROCS_RefColorTversky>
0.498 

> <ROCS_RefTverskyCombo>
0.712 

> <ROCS_FitTversky>
2.003 

> <ROCS_FitColorTversky>
0.903 

> <ROCS_FitTverskyCombo>
2.906 

> <ROCS_ColorScore>
-7.357

> <ROCS_Overlap>
2162.619

> <ROCS_Rank>
208                 

$$$$
untitled-dbase-569531_8
  -OEChem-02092408543D

 26 27  0     1  0  0  0  0  0999 V2000
   10.0384   11.9370   22.4309 C   0  0  0  0  0  0  0  0  0  0  0  0
    9.3732   12.0847   24.8804 C   0  0  0  0  0  0  0  0  0  0  0  0
    8.1152   11.6470   25.6491 C   0  0  0  0  0  0  0  0  0  0  0  0
    7.6900   11.5144   23.2957 C   0  0  0  0  0  0  0  0  0  0  0  0
    9.3011    9.8787   23.7301 C   0  0  0  0  0  0  0  0  0  0  0  0
    9.1893   11.3875   23.5244 C   0  0  1  0  0  0  0  0  0  0  0  0
    7.3761   10.7976   24.5997 C   0  0  2  0  0  0  0  0  0  0  0  0
   11.6686   13.5827   21.9637 C   0  0  0  0  0  0  0  0  0  0  0  0
    5.9172   10.5486   24.8940 C   0  0  0  0  0  0  0  0  0  0  0  0
   10.0341   11.5153   21.2823 O   0  0  0  0  0  0  0  0  0  0  0  0
    8.1020    9.5492   24.4717 O   0  0  0  0  0  0  0  0  0  0  0  0
   10.7992   12.9598   22.9147 O   0  0  0  0  0  0  0  0  0  0  0  0
    5.0260    9.3256   23.3877 I   0  0  0  0  0  0  0  0  0  0  0  0
    9.4016   13.1757   24.7752 H   0  0  0  0  0  0  0  0  0  0  0  0
   10.2918   11.7752   25.3909 H   0  0  0  0  0  0  0  0  0  0  0  0
    8.3839   11.0634   26.5358 H   0  0  0  0  0  0  0  0  0  0  0  0
    7.5338   12.5228   25.9572 H   0  0  0  0  0  0  0  0  0  0  0  0
    7.3280   12.5473   23.2538 H   0  0  0  0  0  0  0  0  0  0  0  0
    7.3542   10.9713   22.4049 H   0  0  0  0  0  0  0  0  0  0  0  0
    9.2899    9.3185   22.7889 H   0  0  0  0  0  0  0  0  0  0  0  0
   10.1800    9.5791   24.3094 H   0  0  0  0  0  0  0  0  0  0  0  0
   12.2291   14.3839   22.4515 H   0  0  0  0  0  0  0  0  0  0  0  0
   11.0772   13.9873   21.1385 H   0  0  0  0  0  0  0  0  0  0  0  0
   12.3663   12.8359   21.5775 H   0  0  0  0  0  0  0  0  0  0  0  0
    5.3775   11.5036   24.9545 H   0  0  0  0  0  0  0  0  0  0  0  0
    5.8087   10.0600   25.8720 H   0  0  0  0  0  0  0  0  0  0  0  0
  1  6  1  0  0  0  0
  1 10  2  0  0  0  0
  1 12  1  0  0  0  0
  2  3  1  0  0  0  0
  2  6  1  0  0  0  0
  3  7  1  0  0  0  0
  4  6  1  0  0  0  0
  4  7  1  0  0  0  0
  5  6  1  0  0  0  0
  5 11  1  0  0  0  0
  7  9  1  0  0  0  0
  7 11  1  0  0  0  0
  8 12  1  0  0  0  0
  9 13  1  0  0  0  0
  2 14  1  0  0  0  0
  2 15  1  0  0  0  0
  3 16  1  0  0  0  0
  3 17  1  0  0  0  0
  4 18  1  0  0  0  0
  4 19  1  0  0  0  0
  5 20  1  0  0  0  0
  5 21  1  0  0  0  0
  8 22  1  0  0  0  0
  8 23  1  0  0  0  0
  8 24  1  0  0  0  0
  9 25  1  0  0  0  0
  9 26  1  0  0  0  0
M  END
> <id>
EN300-27721160

> <smiles>
COC(=O)C1(CCC2(CI)C1)CO2

> <IUPAC Name>
methyl 1-(iodomethyl)-2-oxabicyclo[2.2.1]heptane-4-carboxylate

> <CAS>
2763758-65-0

> <Purity>
95

> <URL>
https://www.enaminestore.com/catalog/EN300-27721160

> <ROCS_ShapeQuery>
x0812_0A_x1140_0A_x1097_0A_x0365_0A_x1097_0A_x0310_0A

> <ROCS_TanimotoCombo>
0.712 

> <ROCS_ShapeTanimoto>
0.225 

> <ROCS_ColorTanimoto>
0.488 

> <ROCS_RefTversky>
0.203 

> <ROCS_RefColorTversky>
0.541 

> <ROCS_RefTverskyCombo>
0.744 

> <ROCS_FitTversky>
1.919 

> <ROCS_FitColorTversky>
0.831 

> <ROCS_FitTverskyCombo>
2.750 

> <ROCS_ColorScore>
-8.038

> <ROCS_Overlap>
2051.774

> <ROCS_Rank>
209                 

$$$$
untitled-dbase-560427_1
  -OEChem-02092408543D

 22 23  0     0  0  0  0  0  0999 V2000
    7.8934   11.7212   23.1909 C   0  0  0  0  0  0  0  0  0  0  0  0
    8.3567   11.8446   25.2302 C   0  0  0  0  0  0  0  0  0  0  0  0
    9.5832   10.1182   23.9799 C   0  0  0  0  0  0  0  0  0  0  0  0
    9.2630   11.6289   23.9613 C   0  0  0  0  0  0  0  0  0  0  0  0
    7.4940   10.8054   24.4130 C   0  0  0  0  0  0  0  0  0  0  0  0
    6.0582   10.5463   24.7546 C   0  0  0  0  0  0  0  0  0  0  0  0
   10.3958   12.5590   23.6476 C   0  0  0  0  0  0  0  0  0  0  0  0
    5.9287   10.0967   26.1102 N   0  0  0  0  0  0  0  0  0  0  0  0
    8.2863    9.5906   24.3065 O   0  0  0  0  0  0  0  0  0  0  0  0
   10.0403   13.8471   23.8506 F   0  0  0  0  0  0  0  0  0  0  0  0
   11.4695   12.3007   24.4269 F   0  0  0  0  0  0  0  0  0  0  0  0
   10.7841   12.4377   22.3587 F   0  0  0  0  0  0  0  0  0  0  0  0
    7.4212   12.7083   23.1344 H   0  0  0  0  0  0  0  0  0  0  0  0
    7.8611   11.2472   22.2056 H   0  0  0  0  0  0  0  0  0  0  0  0
    8.7646   11.4868   26.1800 H   0  0  0  0  0  0  0  0  0  0  0  0
    7.9297   12.8435   25.3719 H   0  0  0  0  0  0  0  0  0  0  0  0
    9.9018    9.7410   23.0039 H   0  0  0  0  0  0  0  0  0  0  0  0
   10.3004    9.8475   24.7601 H   0  0  0  0  0  0  0  0  0  0  0  0
    5.4923   11.4776   24.6240 H   0  0  0  0  0  0  0  0  0  0  0  0
    5.6692    9.7759   24.0765 H   0  0  0  0  0  0  0  0  0  0  0  0
    5.5095    9.1878   26.1252 H   0  0  0  0  0  0  0  0  0  0  0  0
    6.8330   10.0510   26.5373 H   0  0  0  0  0  0  0  0  0  0  0  0
  1  4  1  0  0  0  0
  1  5  1  0  0  0  0
  2  4  1  0  0  0  0
  2  5  1  0  0  0  0
  3  4  1  0  0  0  0
  3  9  1  0  0  0  0
  4  7  1  1  0  0  0
  5  6  1  1  0  0  0
  5  9  1  0  0  0  0
  6  8  1  0  0  0  0
  7 10  1  0  0  0  0
  7 11  1  0  0  0  0
  7 12  1  0  0  0  0
  1 13  1  0  0  0  0
  1 14  1  0  0  0  0
  2 15  1  0  0  0  0
  2 16  1  0  0  0  0
  3 17  1  0  0  0  0
  3 18  1  0  0  0  0
  6 19  1  0  0  0  0
  6 20  1  0  0  0  0
  8 21  1  0  0  0  0
  8 22  1  0  0  0  0
M  END
> <id>
EN300-37375324

> <smiles>
Cl.NC[C@]1(C[C@]2(C1)C(F)(F)F)OC2

> <IUPAC Name>
1-[4-(trifluoromethyl)-2-oxabicyclo[2.1.1]hexan-1-yl]methanamine hydrochloride

> <CAS>
2361643-77-6

> <URL>
https://www.enaminestore.com/catalog/EN300-37375324

> <ROCS_ShapeQuery>
x0812_0A_x1140_0A_x1097_0A_x0365_0A_x1097_0A_x0310_0A

> <ROCS_TanimotoCombo>
0.712 

> <ROCS_ShapeTanimoto>
0.223 

> <ROCS_ColorTanimoto>
0.490 

> <ROCS_RefTversky>
0.201 

> <ROCS_RefColorTversky>
0.551 

> <ROCS_RefTverskyCombo>
0.752 

> <ROCS_FitTversky>
1.943 

> <ROCS_FitColorTversky>
0.815 

> <ROCS_FitTverskyCombo>
2.759 

> <ROCS_ColorScore>
-8.190

> <ROCS_Overlap>
2030.121

> <ROCS_Rank>
210                 

$$$$
untitled-dbase-493882_1
  -OEChem-02092408543D

 22 23  0     0  0  0  0  0  0999 V2000
    7.8934   11.7212   23.1909 C   0  0  0  0  0  0  0  0  0  0  0  0
    8.3567   11.8446   25.2302 C   0  0  0  0  0  0  0  0  0  0  0  0
    9.5832   10.1182   23.9799 C   0  0  0  0  0  0  0  0  0  0  0  0
    9.2630   11.6289   23.9613 C   0  0  0  0  0  0  0  0  0  0  0  0
    7.4940   10.8054   24.4130 C   0  0  0  0  0  0  0  0  0  0  0  0
    6.0582   10.5463   24.7546 C   0  0  0  0  0  0  0  0  0  0  0  0
   10.3958   12.5590   23.6476 C   0  0  0  0  0  0  0  0  0  0  0  0
    5.9287   10.0967   26.1102 N   0  0  0  0  0  0  0  0  0  0  0  0
    8.2863    9.5906   24.3065 O   0  0  0  0  0  0  0  0  0  0  0  0
   10.0403   13.8471   23.8506 F   0  0  0  0  0  0  0  0  0  0  0  0
   11.4695   12.3007   24.4269 F   0  0  0  0  0  0  0  0  0  0  0  0
   10.7841   12.4377   22.3587 F   0  0  0  0  0  0  0  0  0  0  0  0
    7.4212   12.7083   23.1344 H   0  0  0  0  0  0  0  0  0  0  0  0
    7.8611   11.2472   22.2056 H   0  0  0  0  0  0  0  0  0  0  0  0
    8.7646   11.4868   26.1800 H   0  0  0  0  0  0  0  0  0  0  0  0
    7.9297   12.8435   25.3719 H   0  0  0  0  0  0  0  0  0  0  0  0
    9.9018    9.7410   23.0039 H   0  0  0  0  0  0  0  0  0  0  0  0
   10.3004    9.8475   24.7601 H   0  0  0  0  0  0  0  0  0  0  0  0
    5.4923   11.4776   24.6240 H   0  0  0  0  0  0  0  0  0  0  0  0
    5.6692    9.7759   24.0765 H   0  0  0  0  0  0  0  0  0  0  0  0
    5.5095    9.1878   26.1252 H   0  0  0  0  0  0  0  0  0  0  0  0
    6.8330   10.0510   26.5373 H   0  0  0  0  0  0  0  0  0  0  0  0
  1  4  1  0  0  0  0
  1  5  1  0  0  0  0
  2  4  1  0  0  0  0
  2  5  1  0  0  0  0
  3  4  1  0  0  0  0
  3  9  1  0  0  0  0
  4  7  1  1  0  0  0
  5  6  1  1  0  0  0
  5  9  1  0  0  0  0
  6  8  1  0  0  0  0
  7 10  1  0  0  0  0
  7 11  1  0  0  0  0
  7 12  1  0  0  0  0
  1 13  1  0  0  0  0
  1 14  1  0  0  0  0
  2 15  1  0  0  0  0
  2 16  1  0  0  0  0
  3 17  1  0  0  0  0
  3 18  1  0  0  0  0
  6 19  1  0  0  0  0
  6 20  1  0  0  0  0
  8 21  1  0  0  0  0
  8 22  1  0  0  0  0
M  END
> <id>
EN300-26870171

> <smiles>
NC[C@]1(C[C@]2(C1)C(F)(F)F)OC2

> <IUPAC Name>
1-[(1r,4r)-4-(trifluoromethyl)-2-oxabicyclo[2.1.1]hexan-1-yl]methanamine

> <URL>
https://www.enaminestore.com/catalog/EN300-26870171

> <ROCS_ShapeQuery>
x0812_0A_x1140_0A_x1097_0A_x0365_0A_x1097_0A_x0310_0A

> <ROCS_TanimotoCombo>
0.712 

> <ROCS_ShapeTanimoto>
0.223 

> <ROCS_ColorTanimoto>
0.490 

> <ROCS_RefTversky>
0.201 

> <ROCS_RefColorTversky>
0.551 

> <ROCS_RefTverskyCombo>
0.752 

> <ROCS_FitTversky>
1.943 

> <ROCS_FitColorTversky>
0.815 

> <ROCS_FitTverskyCombo>
2.759 

> <ROCS_ColorScore>
-8.190

> <ROCS_Overlap>
2030.121

> <ROCS_Rank>
211                 

$$$$
untitled-dbase-453978_1
  -OEChem-02092408543D

 24 26  0     1  0  0  0  0  0999 V2000
    6.7786   11.4917   24.2589 C   0  0  0  0  0  0  0  0  0  0  0  0
    7.3533   11.1297   22.8717 C   0  0  0  0  0  0  0  0  0  0  0  0
    8.9196   12.6265   24.8837 C   0  0  0  0  0  0  0  0  0  0  0  0
    7.9082   11.5356   25.3132 C   0  0  2  0  0  0  0  0  0  0  0  0
    8.8879   10.9606   22.9638 C   0  0  2  0  0  0  0  0  0  0  0  0
    8.6659   10.2233   25.3390 C   0  0  2  0  0  0  0  0  0  0  0  0
    9.2303    9.8918   23.9880 C   0  0  1  0  0  0  0  0  0  0  0  0
    9.4552   12.3144   23.4647 C   0  0  2  0  0  0  0  0  0  0  0  0
   11.6694   13.6727   23.8030 O   0  0  0  0  0  0  0  0  0  0  0  0
   11.6623   11.7267   22.1820 O   0  0  0  0  0  0  0  0  0  0  0  0
    8.1575    9.1362   24.5611 O   0  0  0  0  0  0  0  0  0  0  0  0
   11.7066   11.3817   24.5746 F   0  0  0  0  0  0  0  0  0  0  0  0
   11.2254   12.3503   23.4139 S   0  0  0  0  0  0  0  0  0  0  0  0
    6.2709   12.4623   24.2077 H   0  0  0  0  0  0  0  0  0  0  0  0
    6.0192   10.7539   24.5450 H   0  0  0  0  0  0  0  0  0  0  0  0
    6.8889   10.2041   22.5102 H   0  0  0  0  0  0  0  0  0  0  0  0
    7.0967   11.9121   22.1476 H   0  0  0  0  0  0  0  0  0  0  0  0
    8.4292   13.6075   24.8806 H   0  0  0  0  0  0  0  0  0  0  0  0
    9.7346   12.6833   25.6156 H   0  0  0  0  0  0  0  0  0  0  0  0
    7.4975   11.7574   26.3034 H   0  0  0  0  0  0  0  0  0  0  0  0
    9.3007   10.6905   21.9860 H   0  0  0  0  0  0  0  0  0  0  0  0
    9.2560   10.0325   26.2218 H   0  0  0  0  0  0  0  0  0  0  0  0
   10.2121    9.4522   23.9098 H   0  0  0  0  0  0  0  0  0  0  0  0
    9.1483   13.1150   22.7797 H   0  0  0  0  0  0  0  0  0  0  0  0
  1  2  1  0  0  0  0
  1  4  1  0  0  0  0
  2  5  1  1  0  0  0
  3  4  1  6  0  0  0
  3  8  1  0  0  0  0
  4  6  1  0  0  0  0
  5  7  1  0  0  0  0
  5  8  1  0  0  0  0
  6  7  1  0  0  0  0
  6 11  1  1  0  0  0
  7 11  1  1  0  0  0
  8 13  1  6  0  0  0
  9 13  2  0  0  0  0
 10 13  2  0  0  0  0
 12 13  1  0  0  0  0
  1 14  1  0  0  0  0
  1 15  1  0  0  0  0
  2 16  1  0  0  0  0
  2 17  1  0  0  0  0
  3 18  1  0  0  0  0
  3 19  1  0  0  0  0
  4 20  1  0  0  0  0
  5 21  1  0  0  0  0
  6 22  1  0  0  0  0
  7 23  1  0  0  0  0
  8 24  1  0  0  0  0
M  END
> <id>
EN300-7354343

> <smiles>
FS(=O)(=O)[C@@H]1C[C@H]2CC[C@@H]1[C@@H]3O[C@@H]32 |&1:4,6,9,10,12,r|

> <IUPAC Name>
rac-(1R,2R,4S,5R,6R)-3-oxatricyclo[3.2.2.0,2,4]nonane-6-sulfonyl fluoride

> <CAS>
2309433-17-6

> <Purity>
95

> <URL>
https://www.enaminestore.com/catalog/EN300-7354343

> <ROCS_ShapeQuery>
x0812_0A_x1140_0A_x1097_0A_x0365_0A_x1097_0A_x0310_0A

> <ROCS_TanimotoCombo>
0.712 

> <ROCS_ShapeTanimoto>
0.220 

> <ROCS_ColorTanimoto>
0.492 

> <ROCS_RefTversky>
0.199 

> <ROCS_RefColorTversky>
0.703 

> <ROCS_RefTverskyCombo>
0.902 

> <ROCS_FitTversky>
1.886 

> <ROCS_FitColorTversky>
0.621 

> <ROCS_FitTverskyCombo>
2.507 

> <ROCS_ColorScore>
-10.720

> <ROCS_Overlap>
2016.585

> <ROCS_Rank>
212                 

$$$$
untitled-dbase-305827_1
  -OEChem-02092408543D

 32 34  0     1  0  0  0  0  0999 V2000
    8.1531   12.8383   22.9073 C   0  0  0  0  0  0  0  0  0  0  0  0
    8.3503   12.3689   25.3636 C   0  0  0  0  0  0  0  0  0  0  0  0
    6.5319   11.2769   24.0144 C   0  0  0  0  0  0  0  0  0  0  0  0
   10.0675   11.4717   23.7728 C   0  0  0  0  0  0  0  0  0  0  0  0
    8.2531   10.3804   22.4281 C   0  0  0  0  0  0  0  0  0  0  0  0
    8.4482    9.9049   24.8835 C   0  0  0  0  0  0  0  0  0  0  0  0
    9.1391   12.6583   24.0740 C   0  0  1  0  0  0  0  0  0  0  0  0
    7.3156   11.5618   22.7209 C   0  0  2  0  0  0  0  0  0  0  0  0
    7.5020   11.0843   25.2045 C   0  0  0  0  0  0  0  0  0  0  0  0
    9.2380   10.1888   23.5931 C   0  0  0  0  0  0  0  0  0  0  0  0
    6.7181   10.8023   26.4889 C   0  0  0  0  0  0  0  0  0  0  0  0
    5.9395    9.6227   26.3249 N   0  0  0  0  0  0  0  0  0  0  0  0
   10.1151    9.1070   23.3137 O   0  0  0  0  0  0  0  0  0  0  0  0
    7.4941   13.6932   23.1023 H   0  0  0  0  0  0  0  0  0  0  0  0
    8.7025   13.0633   21.9847 H   0  0  0  0  0  0  0  0  0  0  0  0
    9.0473   12.2611   26.2048 H   0  0  0  0  0  0  0  0  0  0  0  0
    7.7030   13.2237   25.5984 H   0  0  0  0  0  0  0  0  0  0  0  0
    5.8427   12.1068   24.2175 H   0  0  0  0  0  0  0  0  0  0  0  0
    5.9138   10.3798   23.8801 H   0  0  0  0  0  0  0  0  0  0  0  0
   10.6602   11.6678   22.8700 H   0  0  0  0  0  0  0  0  0  0  0  0
   10.7964   11.3397   24.5830 H   0  0  0  0  0  0  0  0  0  0  0  0
    7.6728    9.4625   22.2673 H   0  0  0  0  0  0  0  0  0  0  0  0
    8.8031   10.5497   21.4933 H   0  0  0  0  0  0  0  0  0  0  0  0
    9.1452    9.7285   25.7138 H   0  0  0  0  0  0  0  0  0  0  0  0
    7.8799    8.9711   24.7755 H   0  0  0  0  0  0  0  0  0  0  0  0
    9.7328   13.5703   24.2004 H   0  0  0  0  0  0  0  0  0  0  0  0
    6.6172   11.6959   21.8874 H   0  0  0  0  0  0  0  0  0  0  0  0
    7.4469   10.6762   27.2863 H   0  0  0  0  0  0  0  0  0  0  0  0
    6.0798   11.6643   26.6688 H   0  0  0  0  0  0  0  0  0  0  0  0
    4.9666    9.8239   26.4758 H   0  0  0  0  0  0  0  0  0  0  0  0
    6.0523    9.2582   25.3953 H   0  0  0  0  0  0  0  0  0  0  0  0
    9.5611    8.3166   23.2065 H   0  0  0  0  0  0  0  0  0  0  0  0
  1  7  1  0  0  0  0
  1  8  1  0  0  0  0
  2  7  1  0  0  0  0
  2  9  1  0  0  0  0
  3  8  1  0  0  0  0
  3  9  1  0  0  0  0
  4  7  1  0  0  0  0
  4 10  1  0  0  0  0
  5  8  1  0  0  0  0
  5 10  1  0  0  0  0
  6  9  1  0  0  0  0
  6 10  1  0  0  0  0
  9 11  1  0  0  0  0
 10 13  1  0  0  0  0
 11 12  1  0  0  0  0
  1 14  1  0  0  0  0
  1 15  1  0  0  0  0
  2 16  1  0  0  0  0
  2 17  1  0  0  0  0
  3 18  1  0  0  0  0
  3 19  1  0  0  0  0
  4 20  1  0  0  0  0
  4 21  1  0  0  0  0
  5 22  1  0  0  0  0
  5 23  1  0  0  0  0
  6 24  1  0  0  0  0
  6 25  1  0  0  0  0
  7 26  1  0  0  0  0
  8 27  1  0  0  0  0
 11 28  1  0  0  0  0
 11 29  1  0  0  0  0
 12 30  1  0  0  0  0
 12 31  1  0  0  0  0
 13 32  1  0  0  0  0
M  END
> <id>
EN300-7425901

> <smiles>
NCC1(CC2CC3CC(O)(C2)C1)C3

> <IUPAC Name>
3-(aminomethyl)adamantan-1-ol

> <CAS>
67496-96-2

> <URL>
https://www.enaminestore.com/catalog/EN300-7425901

> <ROCS_ShapeQuery>
x0812_0A_x1140_0A_x1097_0A_x0365_0A_x1097_0A_x0310_0A

> <ROCS_TanimotoCombo>
0.712 

> <ROCS_ShapeTanimoto>
0.234 

> <ROCS_ColorTanimoto>
0.478 

> <ROCS_RefTversky>
0.210 

> <ROCS_RefColorTversky>
0.556 

> <ROCS_RefTverskyCombo>
0.766 

> <ROCS_FitTversky>
1.959 

> <ROCS_FitColorTversky>
0.774 

> <ROCS_FitTverskyCombo>
2.733 

> <ROCS_ColorScore>
-8.283

> <ROCS_Overlap>
2120.657

> <ROCS_Rank>
213                 

$$$$
untitled-dbase-303492_1
  -OEChem-02092408543D

 32 34  0     1  0  0  0  0  0999 V2000
    8.1531   12.8383   22.9073 C   0  0  0  0  0  0  0  0  0  0  0  0
    8.3503   12.3689   25.3636 C   0  0  0  0  0  0  0  0  0  0  0  0
    6.5319   11.2769   24.0144 C   0  0  0  0  0  0  0  0  0  0  0  0
   10.0675   11.4717   23.7728 C   0  0  0  0  0  0  0  0  0  0  0  0
    8.2531   10.3804   22.4281 C   0  0  0  0  0  0  0  0  0  0  0  0
    8.4482    9.9049   24.8835 C   0  0  0  0  0  0  0  0  0  0  0  0
    9.1391   12.6583   24.0740 C   0  0  1  0  0  0  0  0  0  0  0  0
    7.3156   11.5618   22.7209 C   0  0  2  0  0  0  0  0  0  0  0  0
    7.5020   11.0843   25.2045 C   0  0  0  0  0  0  0  0  0  0  0  0
    9.2380   10.1888   23.5931 C   0  0  0  0  0  0  0  0  0  0  0  0
    6.7181   10.8023   26.4889 C   0  0  0  0  0  0  0  0  0  0  0  0
    5.9395    9.6227   26.3249 N   0  0  0  0  0  0  0  0  0  0  0  0
   10.1151    9.1070   23.3137 O   0  0  0  0  0  0  0  0  0  0  0  0
    7.4941   13.6932   23.1023 H   0  0  0  0  0  0  0  0  0  0  0  0
    8.7025   13.0633   21.9847 H   0  0  0  0  0  0  0  0  0  0  0  0
    9.0473   12.2611   26.2048 H   0  0  0  0  0  0  0  0  0  0  0  0
    7.7030   13.2237   25.5984 H   0  0  0  0  0  0  0  0  0  0  0  0
    5.8427   12.1068   24.2175 H   0  0  0  0  0  0  0  0  0  0  0  0
    5.9138   10.3798   23.8801 H   0  0  0  0  0  0  0  0  0  0  0  0
   10.6602   11.6678   22.8700 H   0  0  0  0  0  0  0  0  0  0  0  0
   10.7964   11.3397   24.5830 H   0  0  0  0  0  0  0  0  0  0  0  0
    7.6728    9.4625   22.2673 H   0  0  0  0  0  0  0  0  0  0  0  0
    8.8031   10.5497   21.4933 H   0  0  0  0  0  0  0  0  0  0  0  0
    9.1452    9.7285   25.7138 H   0  0  0  0  0  0  0  0  0  0  0  0
    7.8799    8.9711   24.7755 H   0  0  0  0  0  0  0  0  0  0  0  0
    9.7328   13.5703   24.2004 H   0  0  0  0  0  0  0  0  0  0  0  0
    6.6172   11.6959   21.8874 H   0  0  0  0  0  0  0  0  0  0  0  0
    7.4469   10.6762   27.2863 H   0  0  0  0  0  0  0  0  0  0  0  0
    6.0798   11.6643   26.6688 H   0  0  0  0  0  0  0  0  0  0  0  0
    4.9666    9.8239   26.4758 H   0  0  0  0  0  0  0  0  0  0  0  0
    6.0523    9.2582   25.3953 H   0  0  0  0  0  0  0  0  0  0  0  0
    9.5611    8.3166   23.2065 H   0  0  0  0  0  0  0  0  0  0  0  0
  1  7  1  0  0  0  0
  1  8  1  0  0  0  0
  2  7  1  0  0  0  0
  2  9  1  0  0  0  0
  3  8  1  0  0  0  0
  3  9  1  0  0  0  0
  4  7  1  0  0  0  0
  4 10  1  0  0  0  0
  5  8  1  0  0  0  0
  5 10  1  0  0  0  0
  6  9  1  0  0  0  0
  6 10  1  0  0  0  0
  9 11  1  0  0  0  0
 10 13  1  0  0  0  0
 11 12  1  0  0  0  0
  1 14  1  0  0  0  0
  1 15  1  0  0  0  0
  2 16  1  0  0  0  0
  2 17  1  0  0  0  0
  3 18  1  0  0  0  0
  3 19  1  0  0  0  0
  4 20  1  0  0  0  0
  4 21  1  0  0  0  0
  5 22  1  0  0  0  0
  5 23  1  0  0  0  0
  6 24  1  0  0  0  0
  6 25  1  0  0  0  0
  7 26  1  0  0  0  0
  8 27  1  0  0  0  0
 11 28  1  0  0  0  0
 11 29  1  0  0  0  0
 12 30  1  0  0  0  0
 12 31  1  0  0  0  0
 13 32  1  0  0  0  0
M  END
> <id>
EN300-7425900

> <smiles>
Cl.NCC1(CC2CC3CC(O)(C2)C1)C3

> <IUPAC Name>
3-(aminomethyl)adamantan-1-ol hydrochloride

> <CAS>
128487-54-7

> <Purity>
95

> <URL>
https://www.enaminestore.com/catalog/EN300-7425900

> <Saltdate>
Cl

> <MP>
274-276

> <ROCS_ShapeQuery>
x0812_0A_x1140_0A_x1097_0A_x0365_0A_x1097_0A_x0310_0A

> <ROCS_TanimotoCombo>
0.712 

> <ROCS_ShapeTanimoto>
0.234 

> <ROCS_ColorTanimoto>
0.478 

> <ROCS_RefTversky>
0.210 

> <ROCS_RefColorTversky>
0.556 

> <ROCS_RefTverskyCombo>
0.766 

> <ROCS_FitTversky>
1.959 

> <ROCS_FitColorTversky>
0.774 

> <ROCS_FitTverskyCombo>
2.733 

> <ROCS_ColorScore>
-8.283

> <ROCS_Overlap>
2120.657

> <ROCS_Rank>
214                 

$$$$
untitled-dbase-586900_6
  -OEChem-02092408543D

 28 30  0     0  0  0  0  0  0999 V2000
    4.2882   11.0059   27.6324 C   0  0  0  0  0  0  0  0  0  0  0  0
    5.1257   12.1157   27.5208 C   0  0  0  0  0  0  0  0  0  0  0  0
    4.5308    9.8688   26.8618 C   0  0  0  0  0  0  0  0  0  0  0  0
    6.2057   12.0885   26.6385 C   0  0  0  0  0  0  0  0  0  0  0  0
    5.6108    9.8416   25.9795 C   0  0  0  0  0  0  0  0  0  0  0  0
    6.4483   10.9514   25.8678 C   0  0  0  0  0  0  0  0  0  0  0  0
    8.9358   11.7572   25.2228 C   0  0  0  0  0  0  0  0  0  0  0  0
    7.6171   11.8256   23.6043 C   0  0  0  0  0  0  0  0  0  0  0  0
    9.1670    9.9195   23.6092 C   0  0  0  0  0  0  0  0  0  0  0  0
    7.6249   10.9213   24.9075 C   0  0  0  0  0  0  0  0  0  0  0  0
    9.1413   11.4588   23.6949 C   0  0  0  0  0  0  0  0  0  0  0  0
   10.1670   12.2006   22.8919 C   0  0  0  0  0  0  0  0  0  0  0  0
    8.0746    9.5991   24.4854 O   0  0  0  0  0  0  0  0  0  0  0  0
   10.1520   11.7302   21.5473 O   0  0  0  0  0  0  0  0  0  0  0  0
    3.4477   11.0263   28.3200 H   0  0  0  0  0  0  0  0  0  0  0  0
    4.9369   13.0007   28.1216 H   0  0  0  0  0  0  0  0  0  0  0  0
    3.8785    9.0047   26.9497 H   0  0  0  0  0  0  0  0  0  0  0  0
    6.8542   12.9567   26.5571 H   0  0  0  0  0  0  0  0  0  0  0  0
    5.7935    8.9518   25.3829 H   0  0  0  0  0  0  0  0  0  0  0  0
    8.8028   12.8069   25.5090 H   0  0  0  0  0  0  0  0  0  0  0  0
    9.6518   11.2860   25.9030 H   0  0  0  0  0  0  0  0  0  0  0  0
    7.0771   11.4196   22.7437 H   0  0  0  0  0  0  0  0  0  0  0  0
    7.3531   12.8819   23.7303 H   0  0  0  0  0  0  0  0  0  0  0  0
    8.9553    9.5481   22.6025 H   0  0  0  0  0  0  0  0  0  0  0  0
   10.0934    9.4889   23.9999 H   0  0  0  0  0  0  0  0  0  0  0  0
   11.1775   12.0473   23.2969 H   0  0  0  0  0  0  0  0  0  0  0  0
    9.9593   13.2801   22.8793 H   0  0  0  0  0  0  0  0  0  0  0  0
   10.8276   12.2362   21.0694 H   0  0  0  0  0  0  0  0  0  0  0  0
  1  2  1  0  0  0  0
  1  3  2  0  0  0  0
  2  4  2  0  0  0  0
  3  5  1  0  0  0  0
  4  6  1  0  0  0  0
  5  6  2  0  0  0  0
  6 10  1  0  0  0  0
  7 10  1  0  0  0  0
  7 11  1  0  0  0  0
  8 10  1  0  0  0  0
  8 11  1  0  0  0  0
  9 11  1  0  0  0  0
  9 13  1  0  0  0  0
 10 13  1  0  0  0  0
 11 12  1  0  0  0  0
 12 14  1  0  0  0  0
  1 15  1  0  0  0  0
  2 16  1  0  0  0  0
  3 17  1  0  0  0  0
  4 18  1  0  0  0  0
  5 19  1  0  0  0  0
  7 20  1  0  0  0  0
  7 21  1  0  0  0  0
  8 22  1  0  0  0  0
  8 23  1  0  0  0  0
  9 24  1  0  0  0  0
  9 25  1  0  0  0  0
 12 26  1  0  0  0  0
 12 27  1  0  0  0  0
 14 28  1  0  0  0  0
M  END
> <id>
EN300-43395184

> <smiles>
OCC1(CC2(C1)C=3C=CC=CC3)CO2

> <IUPAC Name>
{1-phenyl-2-oxabicyclo[2.1.1]hexan-4-yl}methanol

> <Purity>
95

> <URL>
https://www.enaminestore.com/catalog/EN300-43395184

> <ROCS_ShapeQuery>
x0812_0A_x1140_0A_x1097_0A_x0365_0A_x1097_0A_x0310_0A

> <ROCS_TanimotoCombo>
0.712 

> <ROCS_ShapeTanimoto>
0.228 

> <ROCS_ColorTanimoto>
0.483 

> <ROCS_RefTversky>
0.207 

> <ROCS_RefColorTversky>
0.566 

> <ROCS_RefTverskyCombo>
0.773 

> <ROCS_FitTversky>
1.849 

> <ROCS_FitColorTversky>
0.768 

> <ROCS_FitTverskyCombo>
2.617 

> <ROCS_ColorScore>
-8.447

> <ROCS_Overlap>
2088.595

> <ROCS_Rank>
215                 

$$$$
untitled-dbase-587151_6
  -OEChem-02092408543D

 28 30  0     0  0  0  0  0  0999 V2000
    4.2893   11.0050   27.6335 C   0  0  0  0  0  0  0  0  0  0  0  0
    5.1272   12.1145   27.5225 C   0  0  0  0  0  0  0  0  0  0  0  0
    4.5312    9.8682   26.8621 C   0  0  0  0  0  0  0  0  0  0  0  0
    6.2071   12.0874   26.6399 C   0  0  0  0  0  0  0  0  0  0  0  0
    5.6110    9.8411   25.9796 C   0  0  0  0  0  0  0  0  0  0  0  0
    6.4490   10.9507   25.8685 C   0  0  0  0  0  0  0  0  0  0  0  0
    8.9368   11.7557   25.2230 C   0  0  0  0  0  0  0  0  0  0  0  0
    7.6172   11.8259   23.6052 C   0  0  0  0  0  0  0  0  0  0  0  0
    9.1662    9.9191   23.6080 C   0  0  0  0  0  0  0  0  0  0  0  0
    7.6254   10.9206   24.9079 C   0  0  0  0  0  0  0  0  0  0  0  0
    9.1413   11.4583   23.6948 C   0  0  0  0  0  0  0  0  0  0  0  0
   10.1676   12.1997   22.8917 C   0  0  0  0  0  0  0  0  0  0  0  0
    8.0742    9.5984   24.4847 O   0  0  0  0  0  0  0  0  0  0  0  0
   10.1512   11.7303   21.5469 O   0  0  0  0  0  0  0  0  0  0  0  0
    3.4489   11.0253   28.3213 H   0  0  0  0  0  0  0  0  0  0  0  0
    4.9390   12.9992   28.1239 H   0  0  0  0  0  0  0  0  0  0  0  0
    3.8786    9.0044   26.9497 H   0  0  0  0  0  0  0  0  0  0  0  0
    6.8559   12.9553   26.5590 H   0  0  0  0  0  0  0  0  0  0  0  0
    5.7931    8.9516   25.3824 H   0  0  0  0  0  0  0  0  0  0  0  0
    8.8043   12.8050   25.5103 H   0  0  0  0  0  0  0  0  0  0  0  0
    9.6534   11.2842   25.9027 H   0  0  0  0  0  0  0  0  0  0  0  0
    7.0772   11.4213   22.7441 H   0  0  0  0  0  0  0  0  0  0  0  0
    7.3539   12.8822   23.7321 H   0  0  0  0  0  0  0  0  0  0  0  0
    8.9541    9.5481   22.6012 H   0  0  0  0  0  0  0  0  0  0  0  0
   10.0930    9.4876   23.9976 H   0  0  0  0  0  0  0  0  0  0  0  0
   11.1780   12.0447   23.2962 H   0  0  0  0  0  0  0  0  0  0  0  0
    9.9610   13.2793   22.8802 H   0  0  0  0  0  0  0  0  0  0  0  0
   10.8272   12.2358   21.0690 H   0  0  0  0  0  0  0  0  0  0  0  0
  1  2  1  0  0  0  0
  1  3  2  0  0  0  0
  2  4  2  0  0  0  0
  3  5  1  0  0  0  0
  4  6  1  0  0  0  0
  5  6  2  0  0  0  0
  6 10  1  1  0  0  0
  7 10  1  0  0  0  0
  7 11  1  0  0  0  0
  8 10  1  0  0  0  0
  8 11  1  0  0  0  0
  9 11  1  0  0  0  0
  9 13  1  0  0  0  0
 10 13  1  0  0  0  0
 11 12  1  1  0  0  0
 12 14  1  0  0  0  0
  1 15  1  0  0  0  0
  2 16  1  0  0  0  0
  3 17  1  0  0  0  0
  4 18  1  0  0  0  0
  5 19  1  0  0  0  0
  7 20  1  0  0  0  0
  7 21  1  0  0  0  0
  8 22  1  0  0  0  0
  8 23  1  0  0  0  0
  9 24  1  0  0  0  0
  9 25  1  0  0  0  0
 12 26  1  0  0  0  0
 12 27  1  0  0  0  0
 14 28  1  0  0  0  0
M  END
> <id>
EN300-44828704

> <smiles>
OC[C@]1(C[C@]2(C1)C=3C=CC=CC3)CO2

> <IUPAC Name>
{1-phenyl-2-oxabicyclo[2.1.1]hexan-4-yl}methanol

> <URL>
https://www.enaminestore.com/catalog/EN300-44828704

> <ROCS_ShapeQuery>
x0812_0A_x1140_0A_x1097_0A_x0365_0A_x1097_0A_x0310_0A

> <ROCS_TanimotoCombo>
0.712 

> <ROCS_ShapeTanimoto>
0.228 

> <ROCS_ColorTanimoto>
0.483 

> <ROCS_RefTversky>
0.206 

> <ROCS_RefColorTversky>
0.566 

> <ROCS_RefTverskyCombo>
0.773 

> <ROCS_FitTversky>
1.849 

> <ROCS_FitColorTversky>
0.768 

> <ROCS_FitTverskyCombo>
2.617 

> <ROCS_ColorScore>
-8.447

> <ROCS_Overlap>
2088.430

> <ROCS_Rank>
216                 

$$$$
untitled-dbase-352148_9
  -OEChem-02092408543D

 31 32  0     1  0  0  0  0  0999 V2000
    4.7905   10.4228   26.8531 C   0  0  0  0  0  0  0  0  0  0  0  0
    8.0397   12.1902   23.2127 C   0  0  0  0  0  0  0  0  0  0  0  0
    7.0079   11.7373   24.2580 C   0  0  0  0  0  0  0  0  0  0  0  0
    9.2165   11.4706   25.1554 C   0  0  0  0  0  0  0  0  0  0  0  0
    9.0646    9.9276   23.4061 C   0  0  0  0  0  0  0  0  0  0  0  0
    9.3103   11.4228   23.6351 C   0  0  1  0  0  0  0  0  0  0  0  0
    7.8452   10.8072   25.1500 C   0  0  1  0  0  0  0  0  0  0  0  0
    3.5668    9.5942   26.5562 C   0  0  0  0  0  0  0  0  0  0  0  0
   10.5872   11.9514   23.0254 C   0  0  0  0  0  0  0  0  0  0  0  0
    7.2422   10.5060   26.5002 C   0  0  0  0  0  0  0  0  0  0  0  0
    5.9672    9.8755   26.3492 N   0  0  0  0  0  0  0  0  0  0  0  0
    4.7210   11.4846   27.4696 O   0  0  0  0  0  0  0  0  0  0  0  0
    8.0629    9.5900   24.3948 O   0  0  0  0  0  0  0  0  0  0  0  0
   10.5013   11.8575   21.6103 O   0  0  0  0  0  0  0  0  0  0  0  0
    2.4529   10.5894   25.6055 Cl  0  0  0  0  0  0  0  0  0  0  0  0
    7.7216   11.9461   22.1937 H   0  0  0  0  0  0  0  0  0  0  0  0
    8.1857   13.2750   23.2732 H   0  0  0  0  0  0  0  0  0  0  0  0
    6.6204   12.6009   24.8092 H   0  0  0  0  0  0  0  0  0  0  0  0
    6.1741   11.2118   23.7809 H   0  0  0  0  0  0  0  0  0  0  0  0
    9.9878   10.8635   25.6423 H   0  0  0  0  0  0  0  0  0  0  0  0
    9.2176   12.4826   25.5734 H   0  0  0  0  0  0  0  0  0  0  0  0
    8.6831    9.6942   22.4075 H   0  0  0  0  0  0  0  0  0  0  0  0
    9.9525    9.3180   23.6045 H   0  0  0  0  0  0  0  0  0  0  0  0
    3.7997    8.6898   25.9887 H   0  0  0  0  0  0  0  0  0  0  0  0
    3.0826    9.3119   27.4950 H   0  0  0  0  0  0  0  0  0  0  0  0
   11.4489   11.3660   23.3636 H   0  0  0  0  0  0  0  0  0  0  0  0
   10.7410   13.0010   23.2981 H   0  0  0  0  0  0  0  0  0  0  0  0
    7.9246    9.8404   27.0373 H   0  0  0  0  0  0  0  0  0  0  0  0
    7.1281   11.4504   27.0408 H   0  0  0  0  0  0  0  0  0  0  0  0
    5.9179    8.9852   25.8499 H   0  0  0  0  0  0  0  0  0  0  0  0
   11.3356   12.2046   21.2549 H   0  0  0  0  0  0  0  0  0  0  0  0
  1  8  1  0  0  0  0
  1 11  1  0  0  0  0
  1 12  2  0  0  0  0
  2  3  1  0  0  0  0
  2  6  1  0  0  0  0
  3  7  1  0  0  0  0
  4  6  1  0  0  0  0
  4  7  1  0  0  0  0
  5  6  1  0  0  0  0
  5 13  1  0  0  0  0
  6  9  1  0  0  0  0
  7 10  1  0  0  0  0
  7 13  1  0  0  0  0
  8 15  1  0  0  0  0
  9 14  1  0  0  0  0
 10 11  1  0  0  0  0
  2 16  1  0  0  0  0
  2 17  1  0  0  0  0
  3 18  1  0  0  0  0
  3 19  1  0  0  0  0
  4 20  1  0  0  0  0
  4 21  1  0  0  0  0
  5 22  1  0  0  0  0
  5 23  1  0  0  0  0
  8 24  1  0  0  0  0
  8 25  1  0  0  0  0
  9 26  1  0  0  0  0
  9 27  1  0  0  0  0
 10 28  1  0  0  0  0
 10 29  1  0  0  0  0
 11 30  1  0  0  0  0
 14 31  1  0  0  0  0
M  END
> <id>
EN300-26578561

> <smiles>
OCC1(CCC2(CNC(=O)CCl)C1)CO2

> <IUPAC Name>
2-chloro-N-{[4-(hydroxymethyl)-2-oxabicyclo[2.2.1]heptan-1-yl]methyl}acetamide

> <CAS>
2411294-63-6

> <URL>
https://www.enaminestore.com/catalog/EN300-26578561

> <ROCS_ShapeQuery>
x0812_0A_x1140_0A_x1097_0A_x0365_0A_x1097_0A_x0310_0A

> <ROCS_TanimotoCombo>
0.712 

> <ROCS_ShapeTanimoto>
0.221 

> <ROCS_ColorTanimoto>
0.491 

> <ROCS_RefTversky>
0.201 

> <ROCS_RefColorTversky>
0.584 

> <ROCS_RefTverskyCombo>
0.785 

> <ROCS_FitTversky>
1.772 

> <ROCS_FitColorTversky>
0.754 

> <ROCS_FitTverskyCombo>
2.526 

> <ROCS_ColorScore>
-8.731

> <ROCS_Overlap>
2037.536

> <ROCS_Rank>
217                 

$$$$
untitled-dbase-24578_7
  -OEChem-02092408543D

 35 37  0     1  0  0  0  0  0999 V2000
    5.2157   10.1459   26.3674 C   0  0  0  0  0  0  0  0  0  0  0  0
    5.3254   10.7683   27.7313 C   0  0  0  0  0  0  0  0  0  0  0  0
    8.7876   12.1672   22.9809 C   0  0  0  0  0  0  0  0  0  0  0  0
    7.6208   11.2183   22.6770 C   0  0  0  0  0  0  0  0  0  0  0  0
    9.8540   11.0435   25.0143 C   0  0  0  0  0  0  0  0  0  0  0  0
    7.9057    9.4528   24.5051 C   0  0  0  0  0  0  0  0  0  0  0  0
    5.7677   11.5365   26.5169 C   0  0  0  0  0  0  0  0  0  0  0  0
    8.9062   12.1542   24.5094 C   0  0  2  0  0  0  0  0  0  0  0  0
    7.1565   10.7263   24.0529 C   0  0  1  0  0  0  0  0  0  0  0  0
    9.4398    9.6225   24.5688 C   0  0  0  0  0  0  0  0  0  0  0  0
   10.0595    8.5628   25.4840 C   0  0  0  0  0  0  0  0  0  0  0  0
    7.2163   11.7991   26.2817 C   0  0  0  0  0  0  0  0  0  0  0  0
    7.5071   11.8964   24.8637 N   0  0  0  0  0  0  0  0  0  0  0  0
    9.9589    9.3782   23.2552 O   0  0  0  0  0  0  0  0  0  0  0  0
    5.8977    9.3402   26.1253 H   0  0  0  0  0  0  0  0  0  0  0  0
    4.2262   10.0399   25.9398 H   0  0  0  0  0  0  0  0  0  0  0  0
    4.4095   11.0799   28.2184 H   0  0  0  0  0  0  0  0  0  0  0  0
    6.0807   10.3792   28.4029 H   0  0  0  0  0  0  0  0  0  0  0  0
    9.7091   11.8643   22.4767 H   0  0  0  0  0  0  0  0  0  0  0  0
    8.5367   13.1724   22.6237 H   0  0  0  0  0  0  0  0  0  0  0  0
    6.8212   11.7777   22.1783 H   0  0  0  0  0  0  0  0  0  0  0  0
    7.9142   10.4045   22.0084 H   0  0  0  0  0  0  0  0  0  0  0  0
   10.8723   11.2620   24.6665 H   0  0  0  0  0  0  0  0  0  0  0  0
    9.8735   11.0925   26.1123 H   0  0  0  0  0  0  0  0  0  0  0  0
    7.5276    9.1769   25.4996 H   0  0  0  0  0  0  0  0  0  0  0  0
    7.6445    8.6301   23.8264 H   0  0  0  0  0  0  0  0  0  0  0  0
    5.1464   12.3615   26.1898 H   0  0  0  0  0  0  0  0  0  0  0  0
    9.2633   13.1337   24.8651 H   0  0  0  0  0  0  0  0  0  0  0  0
    6.0730   10.5299   24.0335 H   0  0  0  0  0  0  0  0  0  0  0  0
    9.7560    7.5721   25.1536 H   0  0  0  0  0  0  0  0  0  0  0  0
    9.7220    8.7201   26.5058 H   0  0  0  0  0  0  0  0  0  0  0  0
   11.1438    8.6376   25.4476 H   0  0  0  0  0  0  0  0  0  0  0  0
    7.4938   12.7445   26.7708 H   0  0  0  0  0  0  0  0  0  0  0  0
    7.8050   10.9763   26.7133 H   0  0  0  0  0  0  0  0  0  0  0  0
   10.9206    9.4591   23.3268 H   0  0  0  0  0  0  0  0  0  0  0  0
  1  2  1  0  0  0  0
  1  7  1  0  0  0  0
  2  7  1  0  0  0  0
  3  4  1  0  0  0  0
  3  8  1  0  0  0  0
  4  9  1  0  0  0  0
  5  8  1  0  0  0  0
  5 10  1  0  0  0  0
  6  9  1  0  0  0  0
  6 10  1  0  0  0  0
  7 12  1  0  0  0  0
  8 13  1  0  0  0  0
  9 13  1  0  0  0  0
 10 11  1  0  0  0  0
 10 14  1  0  0  0  0
 12 13  1  0  0  0  0
  1 15  1  0  0  0  0
  1 16  1  0  0  0  0
  2 17  1  0  0  0  0
  2 18  1  0  0  0  0
  3 19  1  0  0  0  0
  3 20  1  0  0  0  0
  4 21  1  0  0  0  0
  4 22  1  0  0  0  0
  5 23  1  0  0  0  0
  5 24  1  0  0  0  0
  6 25  1  0  0  0  0
  6 26  1  0  0  0  0
  7 27  1  0  0  0  0
  8 28  1  0  0  0  0
  9 29  1  0  0  0  0
 11 30  1  0  0  0  0
 11 31  1  0  0  0  0
 11 32  1  0  0  0  0
 12 33  1  0  0  0  0
 12 34  1  0  0  0  0
 14 35  1  0  0  0  0
M  END
> <id>
EN300-89069

> <smiles>
CC1(O)CC2CCC(C1)N2CC3CC3

> <MDLNUMBER>
MFCD13196437

> <IUPAC Name>
8-(cyclopropylmethyl)-3-methyl-8-azabicyclo[3.2.1]octan-3-ol

> <CAS>
1211724-83-2

> <URL>
https://www.enaminestore.com/catalog/EN300-89069

> <ROCS_ShapeQuery>
x0812_0A_x1140_0A_x1097_0A_x0365_0A_x1097_0A_x0310_0A

> <ROCS_TanimotoCombo>
0.712 

> <ROCS_ShapeTanimoto>
0.215 

> <ROCS_ColorTanimoto>
0.496 

> <ROCS_RefTversky>
0.197 

> <ROCS_RefColorTversky>
0.536 

> <ROCS_RefTverskyCombo>
0.732 

> <ROCS_FitTversky>
1.788 

> <ROCS_FitColorTversky>
0.871 

> <ROCS_FitTverskyCombo>
2.659 

> <ROCS_ColorScore>
-7.936

> <ROCS_Overlap>
1989.007

> <ROCS_Rank>
218                 

$$$$
untitled-dbase-474573_3
  -OEChem-02092408543D

 24 25  0     1  0  0  0  0  0999 V2000
    8.2238   12.1280   23.0849 C   0  0  0  0  0  0  0  0  0  0  0  0
    7.1045   11.7312   24.0607 C   0  0  0  0  0  0  0  0  0  0  0  0
    9.2267   11.5195   25.1587 C   0  0  0  0  0  0  0  0  0  0  0  0
    9.2225    9.8819   23.4907 C   0  0  0  0  0  0  0  0  0  0  0  0
    9.4513   11.3880   23.6572 C   0  0  1  0  0  0  0  0  0  0  0  0
    7.8593   10.8537   25.0716 C   0  0  1  0  0  0  0  0  0  0  0  0
    7.1412   10.6262   26.3793 C   0  0  0  0  0  0  0  0  0  0  0  0
   10.7773   11.8850   23.1318 C   0  0  0  0  0  0  0  0  0  0  0  0
    8.1383    9.5972   24.4064 O   0  0  0  0  0  0  0  0  0  0  0  0
    5.8942    9.9941   26.1237 O   0  0  0  0  0  0  0  0  0  0  0  0
   10.8851   13.1966   23.4220 F   0  0  0  0  0  0  0  0  0  0  0  0
   10.7782   11.7571   21.7902 F   0  0  0  0  0  0  0  0  0  0  0  0
    7.9942   11.8273   22.0573 H   0  0  0  0  0  0  0  0  0  0  0  0
    8.3669   13.2148   23.0978 H   0  0  0  0  0  0  0  0  0  0  0  0
    6.6731   12.6231   24.5278 H   0  0  0  0  0  0  0  0  0  0  0  0
    6.3137   11.1783   23.5431 H   0  0  0  0  0  0  0  0  0  0  0  0
    9.9515   10.9419   25.7432 H   0  0  0  0  0  0  0  0  0  0  0  0
    9.1943   12.5531   25.5187 H   0  0  0  0  0  0  0  0  0  0  0  0
    8.9280    9.5928   22.4774 H   0  0  0  0  0  0  0  0  0  0  0  0
   10.0884    9.2862   23.7984 H   0  0  0  0  0  0  0  0  0  0  0  0
    6.9525   11.5774   26.8895 H   0  0  0  0  0  0  0  0  0  0  0  0
    7.7312    9.9807   27.0395 H   0  0  0  0  0  0  0  0  0  0  0  0
   11.6020   11.3329   23.5647 H   0  0  0  0  0  0  0  0  0  0  0  0
    5.4639    9.8650   26.9844 H   0  0  0  0  0  0  0  0  0  0  0  0
  1  2  1  0  0  0  0
  1  5  1  0  0  0  0
  2  6  1  0  0  0  0
  3  5  1  0  0  0  0
  3  6  1  0  0  0  0
  4  5  1  0  0  0  0
  4  9  1  0  0  0  0
  5  8  1  0  0  0  0
  6  7  1  0  0  0  0
  6  9  1  0  0  0  0
  7 10  1  0  0  0  0
  8 11  1  0  0  0  0
  8 12  1  0  0  0  0
  1 13  1  0  0  0  0
  1 14  1  0  0  0  0
  2 15  1  0  0  0  0
  2 16  1  0  0  0  0
  3 17  1  0  0  0  0
  3 18  1  0  0  0  0
  4 19  1  0  0  0  0
  4 20  1  0  0  0  0
  7 21  1  0  0  0  0
  7 22  1  0  0  0  0
  8 23  1  0  0  0  0
 10 24  1  0  0  0  0
M  END
> <id>
EN300-27701966

> <smiles>
OCC1(CCC2(CO1)C(F)F)C2

> <MDLNUMBER>
MFCD33020099

> <IUPAC Name>
[4-(difluoromethyl)-2-oxabicyclo[2.2.1]heptan-1-yl]methanol

> <CAS>
2580209-93-2

> <Purity>
95

> <URL>
https://www.enaminestore.com/catalog/EN300-27701966

> <ROCS_ShapeQuery>
x0812_0A_x1140_0A_x1097_0A_x0365_0A_x1097_0A_x0310_0A

> <ROCS_TanimotoCombo>
0.711 

> <ROCS_ShapeTanimoto>
0.232 

> <ROCS_ColorTanimoto>
0.479 

> <ROCS_RefTversky>
0.208 

> <ROCS_RefColorTversky>
0.535 

> <ROCS_RefTverskyCombo>
0.743 

> <ROCS_FitTversky>
2.016 

> <ROCS_FitColorTversky>
0.821 

> <ROCS_FitTverskyCombo>
2.838 

> <ROCS_ColorScore>
-7.943

> <ROCS_Overlap>
2103.156

> <ROCS_Rank>
219                 

$$$$
untitled-dbase-356772_7
  -OEChem-02092408543D

 31 33  0     0  0  0  0  0  0999 V2000
   10.6113   11.8856   22.3769 C   0  0  0  0  0  0  0  0  0  0  0  0
    6.7748   10.4351   24.6739 C   0  0  0  0  0  0  0  0  0  0  0  0
    7.5607   11.9171   22.8107 C   0  0  0  0  0  0  0  0  0  0  0  0
    8.6185    9.6699   23.1571 C   0  0  0  0  0  0  0  0  0  0  0  0
    8.0623   12.5242   25.1873 C   0  0  0  0  0  0  0  0  0  0  0  0
    9.1236   10.2695   25.5348 C   0  0  0  0  0  0  0  0  0  0  0  0
    9.9235   11.7683   23.7071 C   0  0  0  0  0  0  0  0  0  0  0  0
    7.3010   10.4600   23.2285 C   0  0  0  0  0  0  0  0  0  0  0  0
    7.8090   11.0678   25.6208 C   0  0  0  0  0  0  0  0  0  0  0  0
    8.6055   12.5610   23.7445 C   0  0  0  0  0  0  0  0  0  0  0  0
    9.6694   10.3007   24.0929 C   0  0  0  0  0  0  0  0  0  0  0  0
   11.9777   12.5313   22.3990 C   0  0  0  0  0  0  0  0  0  0  0  0
   10.0700   11.4708   21.3531 O   0  0  0  0  0  0  0  0  0  0  0  0
   11.8475   14.2804   22.1621 Cl  0  0  0  0  0  0  0  0  0  0  0  0
    5.8252   10.9805   24.7369 H   0  0  0  0  0  0  0  0  0  0  0  0
    6.5695    9.4020   24.9799 H   0  0  0  0  0  0  0  0  0  0  0  0
    7.9051   11.9524   21.7702 H   0  0  0  0  0  0  0  0  0  0  0  0
    6.6249   12.4883   22.8501 H   0  0  0  0  0  0  0  0  0  0  0  0
    8.4429    8.6260   23.4456 H   0  0  0  0  0  0  0  0  0  0  0  0
    8.9881    9.6514   22.1250 H   0  0  0  0  0  0  0  0  0  0  0  0
    7.1312   13.1006   25.2512 H   0  0  0  0  0  0  0  0  0  0  0  0
    8.7777   12.9987   25.8700 H   0  0  0  0  0  0  0  0  0  0  0  0
    9.8637   10.6925   26.2253 H   0  0  0  0  0  0  0  0  0  0  0  0
    8.9531    9.2322   25.8485 H   0  0  0  0  0  0  0  0  0  0  0  0
   10.6265   12.2101   24.4265 H   0  0  0  0  0  0  0  0  0  0  0  0
    6.5610   10.0083   22.5583 H   0  0  0  0  0  0  0  0  0  0  0  0
    7.4304   11.0480   26.6488 H   0  0  0  0  0  0  0  0  0  0  0  0
    8.7731   13.6007   23.4394 H   0  0  0  0  0  0  0  0  0  0  0  0
   10.5988    9.7219   24.0374 H   0  0  0  0  0  0  0  0  0  0  0  0
   12.5903   12.1200   21.5930 H   0  0  0  0  0  0  0  0  0  0  0  0
   12.4528   12.3504   23.3663 H   0  0  0  0  0  0  0  0  0  0  0  0
  1  7  1  0  0  0  0
  1 12  1  0  0  0  0
  1 13  2  0  0  0  0
  2  8  1  0  0  0  0
  2  9  1  0  0  0  0
  3  8  1  0  0  0  0
  3 10  1  0  0  0  0
  4  8  1  0  0  0  0
  4 11  1  0  0  0  0
  5  9  1  0  0  0  0
  5 10  1  0  0  0  0
  6  9  1  0  0  0  0
  6 11  1  0  0  0  0
  7 10  1  0  0  0  0
  7 11  1  0  0  0  0
 12 14  1  0  0  0  0
  2 15  1  0  0  0  0
  2 16  1  0  0  0  0
  3 17  1  0  0  0  0
  3 18  1  0  0  0  0
  4 19  1  0  0  0  0
  4 20  1  0  0  0  0
  5 21  1  0  0  0  0
  5 22  1  0  0  0  0
  6 23  1  0  0  0  0
  6 24  1  0  0  0  0
  7 25  1  0  0  0  0
  8 26  1  0  0  0  0
  9 27  1  0  0  0  0
 10 28  1  0  0  0  0
 11 29  1  0  0  0  0
 12 30  1  0  0  0  0
 12 31  1  0  0  0  0
M  END
> <id>
EN300-5164428

> <smiles>
ClCC(=O)C1C2CC3CC(C2)CC1C3

> <IUPAC Name>
1-(adamantan-2-yl)-2-chloroethan-1-one

> <CAS>
66374-57-0

> <Purity>
95

> <URL>
https://www.enaminestore.com/catalog/EN300-5164428

> <ROCS_ShapeQuery>
x0812_0A_x1140_0A_x1097_0A_x0365_0A_x1097_0A_x0310_0A

> <ROCS_TanimotoCombo>
0.711 

> <ROCS_ShapeTanimoto>
0.238 

> <ROCS_ColorTanimoto>
0.473 

> <ROCS_RefTversky>
0.213 

> <ROCS_RefColorTversky>
0.492 

> <ROCS_RefTverskyCombo>
0.706 

> <ROCS_FitTversky>
1.935 

> <ROCS_FitColorTversky>
0.925 

> <ROCS_FitTverskyCombo>
2.860 

> <ROCS_ColorScore>
-7.265

> <ROCS_Overlap>
2155.722

> <ROCS_Rank>
220                 

$$$$
untitled-dbase-478053_1
  -OEChem-02092408543D

 29 31  0     0  0  0  0  0  0999 V2000
    9.9664   12.0462   22.4760 C   0  0  0  0  0  0  0  0  0  0  0  0
    8.9263   11.9917   24.9532 C   0  0  0  0  0  0  0  0  0  0  0  0
    7.4933   11.6758   23.4590 C   0  0  0  0  0  0  0  0  0  0  0  0
    9.0174    8.9576   22.5724 C   0  0  0  0  0  0  0  0  0  0  0  0
   10.4500    9.2733   24.0653 C   0  0  0  0  0  0  0  0  0  0  0  0
    9.0488   11.3919   23.4948 C   0  0  0  0  0  0  0  0  0  0  0  0
    9.0564    9.8557   23.8122 C   0  0  0  0  0  0  0  0  0  0  0  0
    7.6339   11.0804   24.9177 C   0  0  0  0  0  0  0  0  0  0  0  0
    6.5385   11.2950   25.9225 C   0  0  0  0  0  0  0  0  0  0  0  0
   11.4761   13.8407   22.1855 C   0  0  0  0  0  0  0  0  0  0  0  0
   10.4820    8.8144   22.6645 N   0  0  0  0  0  0  0  0  0  0  0  0
   10.1157   11.6435   21.3302 O   0  0  0  0  0  0  0  0  0  0  0  0
    8.0375    9.6749   24.8278 O   0  0  0  0  0  0  0  0  0  0  0  0
   10.5774   13.1266   23.0402 O   0  0  0  0  0  0  0  0  0  0  0  0
    9.6976   11.6924   25.6691 H   0  0  0  0  0  0  0  0  0  0  0  0
    8.7688   13.0737   25.0273 H   0  0  0  0  0  0  0  0  0  0  0  0
    7.1876   12.7251   23.3786 H   0  0  0  0  0  0  0  0  0  0  0  0
    6.9050   11.0769   22.7574 H   0  0  0  0  0  0  0  0  0  0  0  0
    8.4735    8.0174   22.7218 H   0  0  0  0  0  0  0  0  0  0  0  0
    8.6675    9.4147   21.6424 H   0  0  0  0  0  0  0  0  0  0  0  0
   11.2417    9.9819   24.3250 H   0  0  0  0  0  0  0  0  0  0  0  0
   10.4639    8.4560   24.7961 H   0  0  0  0  0  0  0  0  0  0  0  0
    5.7150   10.5865   25.7658 H   0  0  0  0  0  0  0  0  0  0  0  0
    6.1275   12.3100   25.8472 H   0  0  0  0  0  0  0  0  0  0  0  0
    6.9099   11.1577   26.9463 H   0  0  0  0  0  0  0  0  0  0  0  0
   11.9087   14.6822   22.7322 H   0  0  0  0  0  0  0  0  0  0  0  0
   10.9352   14.2023   21.3074 H   0  0  0  0  0  0  0  0  0  0  0  0
   12.2748   13.1667   21.8670 H   0  0  0  0  0  0  0  0  0  0  0  0
   10.8296    7.8664   22.5314 H   0  0  0  0  0  0  0  0  0  0  0  0
  1  6  1  0  0  0  0
  1 12  2  0  0  0  0
  1 14  1  0  0  0  0
  2  6  1  0  0  0  0
  2  8  1  0  0  0  0
  3  6  1  0  0  0  0
  3  8  1  0  0  0  0
  4  7  1  0  0  0  0
  4 11  1  0  0  0  0
  5  7  1  0  0  0  0
  5 11  1  0  0  0  0
  6  7  1  0  0  0  0
  7 13  1  0  0  0  0
  8  9  1  0  0  0  0
  8 13  1  0  0  0  0
 10 14  1  0  0  0  0
  2 15  1  0  0  0  0
  2 16  1  0  0  0  0
  3 17  1  0  0  0  0
  3 18  1  0  0  0  0
  4 19  1  0  0  0  0
  4 20  1  0  0  0  0
  5 21  1  0  0  0  0
  5 22  1  0  0  0  0
  9 23  1  0  0  0  0
  9 24  1  0  0  0  0
  9 25  1  0  0  0  0
 10 26  1  0  0  0  0
 10 27  1  0  0  0  0
 10 28  1  0  0  0  0
 11 29  1  0  0  0  0
M  END
> <id>
EN300-27727246

> <smiles>
COC(=O)C1(CC2(C)C1)C3(CNC3)O2

> <IUPAC Name>
methyl 4'-methyl-3'-oxaspiro[azetidine-3,2'-bicyclo[2.1.1]hexane]-1'-carboxylate

> <CAS>
2580255-14-5

> <URL>
https://www.enaminestore.com/catalog/EN300-27727246

> <ROCS_ShapeQuery>
x0812_0A_x1140_0A_x1097_0A_x0365_0A_x1097_0A_x0310_0A

> <ROCS_TanimotoCombo>
0.711 

> <ROCS_ShapeTanimoto>
0.257 

> <ROCS_ColorTanimoto>
0.454 

> <ROCS_RefTversky>
0.227 

> <ROCS_RefColorTversky>
0.562 

> <ROCS_RefTverskyCombo>
0.789 

> <ROCS_FitTversky>
2.029 

> <ROCS_FitColorTversky>
0.703 

> <ROCS_FitTverskyCombo>
2.732 

> <ROCS_ColorScore>
-8.408

> <ROCS_Overlap>
2298.786

> <ROCS_Rank>
221                 

$$$$
untitled-dbase-573020_9
  -OEChem-02092408543D

 23 24  0     0  0  0  0  0  0999 V2000
    9.7943   11.9430   22.3979 C   0  0  0  0  0  0  0  0  0  0  0  0
    8.1416   10.0911   23.5499 C   0  0  0  0  0  0  0  0  0  0  0  0
    9.5820   10.8598   24.9021 C   0  0  0  0  0  0  0  0  0  0  0  0
    9.0319   11.3704   23.5360 C   0  0  0  0  0  0  0  0  0  0  0  0
    8.0287   10.6124   25.0355 C   0  0  0  0  0  0  0  0  0  0  0  0
    7.8953   12.0371   24.3677 C   0  0  0  0  0  0  0  0  0  0  0  0
   11.2234   13.7280   21.8016 C   0  0  0  0  0  0  0  0  0  0  0  0
    7.2700   10.0414   26.1686 C   0  0  0  0  0  0  0  0  0  0  0  0
    9.8185   11.4566   21.2755 O   0  0  0  0  0  0  0  0  0  0  0  0
    5.8718   10.0043   25.8633 O   0  0  0  0  0  0  0  0  0  0  0  0
   10.4442   13.0701   22.8057 O   0  0  0  0  0  0  0  0  0  0  0  0
    8.2157   13.1095   25.1243 F   0  0  0  0  0  0  0  0  0  0  0  0
    6.7357   12.3196   23.7349 F   0  0  0  0  0  0  0  0  0  0  0  0
    7.2269   10.1099   22.9480 H   0  0  0  0  0  0  0  0  0  0  0  0
    8.6459    9.1299   23.4016 H   0  0  0  0  0  0  0  0  0  0  0  0
   10.2227    9.9716   24.8820 H   0  0  0  0  0  0  0  0  0  0  0  0
   10.0242   11.6029   25.5741 H   0  0  0  0  0  0  0  0  0  0  0  0
   11.6990   14.6134   22.2304 H   0  0  0  0  0  0  0  0  0  0  0  0
   10.5774   14.0157   20.9683 H   0  0  0  0  0  0  0  0  0  0  0  0
   11.9936   13.0412   21.4426 H   0  0  0  0  0  0  0  0  0  0  0  0
    7.3876   10.6369   27.0943 H   0  0  0  0  0  0  0  0  0  0  0  0
    7.5820    9.0053   26.4026 H   0  0  0  0  0  0  0  0  0  0  0  0
    5.4363    9.6233   26.6392 H   0  0  0  0  0  0  0  0  0  0  0  0
  1  4  1  0  0  0  0
  1  9  2  0  0  0  0
  1 11  1  0  0  0  0
  2  4  1  6  0  0  0
  2  5  1  6  0  0  0
  3  4  1  0  0  0  0
  3  5  1  0  0  0  0
  4  6  1  0  0  0  0
  5  6  1  0  0  0  0
  5  8  1  0  0  0  0
  6 12  1  0  0  0  0
  6 13  1  0  0  0  0
  7 11  1  0  0  0  0
  8 10  1  0  0  0  0
  2 14  1  0  0  0  0
  2 15  1  0  0  0  0
  3 16  1  0  0  0  0
  3 17  1  0  0  0  0
  7 18  1  0  0  0  0
  7 19  1  0  0  0  0
  7 20  1  0  0  0  0
  8 21  1  0  0  0  0
  8 22  1  0  0  0  0
 10 23  1  0  0  0  0
M  END
> <id>
EN300-43348392

> <smiles>
COC(=O)[C@]1(C[C@@]2(CO)C1)C2(F)F

> <IUPAC Name>
methyl (1s,3s)-2,2-difluoro-3-(hydroxymethyl)bicyclo[1.1.1]pentane-1-carboxylate

> <URL>
https://www.enaminestore.com/catalog/EN300-43348392

> <ROCS_ShapeQuery>
x0812_0A_x1140_0A_x1097_0A_x0365_0A_x1097_0A_x0310_0A

> <ROCS_TanimotoCombo>
0.711 

> <ROCS_ShapeTanimoto>
0.229 

> <ROCS_ColorTanimoto>
0.482 

> <ROCS_RefTversky>
0.206 

> <ROCS_RefColorTversky>
0.560 

> <ROCS_RefTverskyCombo>
0.766 

> <ROCS_FitTversky>
1.926 

> <ROCS_FitColorTversky>
0.776 

> <ROCS_FitTverskyCombo>
2.703 

> <ROCS_ColorScore>
-8.351

> <ROCS_Overlap>
2081.727

> <ROCS_Rank>
222                 

$$$$
untitled-dbase-266713_0
  -OEChem-02092408543D

 29 31  0     1  0  0  0  0  0999 V2000
    7.2405   11.3661   25.3715 C   0  0  0  0  0  0  0  0  0  0  0  0
    8.7148   11.4550   25.8034 C   0  0  0  0  0  0  0  0  0  0  0  0
    7.7997    9.6231   23.6721 C   0  0  0  0  0  0  0  0  0  0  0  0
    7.9313   11.8963   21.5627 C   0  0  0  0  0  0  0  0  0  0  0  0
   10.1625   11.9701   22.2103 C   0  0  0  0  0  0  0  0  0  0  0  0
    7.1438   11.0032   23.8737 C   0  0  2  0  0  0  0  0  0  0  0  0
    9.6304   11.0821   24.6170 C   0  0  2  0  0  0  0  0  0  0  0  0
    7.8925   12.0986   23.0767 C   0  0  1  0  0  0  0  0  0  0  0  0
    9.3751   12.1378   23.5072 C   0  0  2  0  0  0  0  0  0  0  0  0
    9.2433    9.6486   24.1950 C   0  0  2  0  0  0  0  0  0  0  0  0
    9.2396   11.3042   21.2951 N   0  0  0  0  0  0  0  0  0  0  0  0
   10.1438    9.1379   23.2231 O   0  0  0  0  0  0  0  0  0  0  0  0
    6.7209   10.6139   25.9773 H   0  0  0  0  0  0  0  0  0  0  0  0
    6.7401   12.3226   25.5646 H   0  0  0  0  0  0  0  0  0  0  0  0
    8.9397   12.4688   26.1557 H   0  0  0  0  0  0  0  0  0  0  0  0
    8.8942   10.7835   26.6516 H   0  0  0  0  0  0  0  0  0  0  0  0
    7.2328    8.8770   24.2443 H   0  0  0  0  0  0  0  0  0  0  0  0
    7.7390    9.2963   22.6293 H   0  0  0  0  0  0  0  0  0  0  0  0
    7.1163   11.2675   21.1912 H   0  0  0  0  0  0  0  0  0  0  0  0
    7.8628   12.8626   21.0490 H   0  0  0  0  0  0  0  0  0  0  0  0
   10.4240   12.9523   21.7981 H   0  0  0  0  0  0  0  0  0  0  0  0
   11.0955   11.4136   22.3374 H   0  0  0  0  0  0  0  0  0  0  0  0
    6.0928   10.9638   23.5660 H   0  0  0  0  0  0  0  0  0  0  0  0
   10.6837   11.1196   24.9176 H   0  0  0  0  0  0  0  0  0  0  0  0
    7.4208   13.0676   23.2875 H   0  0  0  0  0  0  0  0  0  0  0  0
    9.6076   13.1293   23.9192 H   0  0  0  0  0  0  0  0  0  0  0  0
    9.3225    8.9825   25.0639 H   0  0  0  0  0  0  0  0  0  0  0  0
    9.2169   10.3094   21.5098 H   0  0  0  0  0  0  0  0  0  0  0  0
    9.8715    8.2238   23.0399 H   0  0  0  0  0  0  0  0  0  0  0  0
  1  2  1  0  0  0  0
  1  6  1  0  0  0  0
  2  7  1  1  0  0  0
  3  6  1  6  0  0  0
  3 10  1  0  0  0  0
  4  8  1  6  0  0  0
  4 11  1  0  0  0  0
  5  9  1  6  0  0  0
  5 11  1  0  0  0  0
  6  8  1  0  0  0  0
  7  9  1  0  0  0  0
  7 10  1  0  0  0  0
  8  9  1  0  0  0  0
 10 12  1  6  0  0  0
  1 13  1  0  0  0  0
  1 14  1  0  0  0  0
  2 15  1  0  0  0  0
  2 16  1  0  0  0  0
  3 17  1  0  0  0  0
  3 18  1  0  0  0  0
  4 19  1  0  0  0  0
  4 20  1  0  0  0  0
  5 21  1  0  0  0  0
  5 22  1  0  0  0  0
  6 23  1  0  0  0  0
  7 24  1  0  0  0  0
  8 25  1  0  0  0  0
  9 26  1  0  0  0  0
 10 27  1  0  0  0  0
 11 28  1  0  0  0  0
 12 29  1  0  0  0  0
M  END
> <id>
EN300-27100427

> <smiles>
Cl.O[C@@H]1C[C@H]2CC[C@@H]1[C@H]3CNC[C@H]32 |&1:2,4,7,8,12,r|

> <IUPAC Name>
rac-(1R,2S,6S,7R,8R)-4-azatricyclo[5.2.2.0,2,6]undecan-8-ol hydrochloride

> <CAS>
2470280-05-6

> <Purity>
95

> <URL>
https://www.enaminestore.com/catalog/EN300-27100427

> <Saltdate>
Cl

> <ROCS_ShapeQuery>
x0812_0A_x1140_0A_x1097_0A_x0365_0A_x1097_0A_x0310_0A

> <ROCS_TanimotoCombo>
0.711 

> <ROCS_ShapeTanimoto>
0.205 

> <ROCS_ColorTanimoto>
0.506 

> <ROCS_RefTversky>
0.188 

> <ROCS_RefColorTversky>
0.589 

> <ROCS_RefTverskyCombo>
0.777 

> <ROCS_FitTversky>
1.826 

> <ROCS_FitColorTversky>
0.781 

> <ROCS_FitTverskyCombo>
2.607 

> <ROCS_ColorScore>
-8.801

> <ROCS_Overlap>
1898.140

> <ROCS_Rank>
223                 

$$$$
untitled-dbase-212760_0
  -OEChem-02092408543D

 29 31  0     1  0  0  0  0  0999 V2000
    7.2405   11.3661   25.3715 C   0  0  0  0  0  0  0  0  0  0  0  0
    8.7148   11.4550   25.8034 C   0  0  0  0  0  0  0  0  0  0  0  0
    7.7997    9.6231   23.6721 C   0  0  0  0  0  0  0  0  0  0  0  0
    7.9313   11.8963   21.5627 C   0  0  0  0  0  0  0  0  0  0  0  0
   10.1625   11.9701   22.2103 C   0  0  0  0  0  0  0  0  0  0  0  0
    7.1438   11.0032   23.8737 C   0  0  2  0  0  0  0  0  0  0  0  0
    9.6304   11.0821   24.6170 C   0  0  2  0  0  0  0  0  0  0  0  0
    7.8925   12.0986   23.0767 C   0  0  1  0  0  0  0  0  0  0  0  0
    9.3751   12.1378   23.5072 C   0  0  2  0  0  0  0  0  0  0  0  0
    9.2433    9.6486   24.1950 C   0  0  2  0  0  0  0  0  0  0  0  0
    9.2396   11.3042   21.2951 N   0  0  0  0  0  0  0  0  0  0  0  0
   10.1438    9.1379   23.2231 O   0  0  0  0  0  0  0  0  0  0  0  0
    6.7209   10.6139   25.9773 H   0  0  0  0  0  0  0  0  0  0  0  0
    6.7401   12.3226   25.5646 H   0  0  0  0  0  0  0  0  0  0  0  0
    8.9397   12.4688   26.1557 H   0  0  0  0  0  0  0  0  0  0  0  0
    8.8942   10.7835   26.6516 H   0  0  0  0  0  0  0  0  0  0  0  0
    7.2328    8.8770   24.2443 H   0  0  0  0  0  0  0  0  0  0  0  0
    7.7390    9.2963   22.6293 H   0  0  0  0  0  0  0  0  0  0  0  0
    7.1163   11.2675   21.1912 H   0  0  0  0  0  0  0  0  0  0  0  0
    7.8628   12.8626   21.0490 H   0  0  0  0  0  0  0  0  0  0  0  0
   10.4240   12.9523   21.7981 H   0  0  0  0  0  0  0  0  0  0  0  0
   11.0955   11.4136   22.3374 H   0  0  0  0  0  0  0  0  0  0  0  0
    6.0928   10.9638   23.5660 H   0  0  0  0  0  0  0  0  0  0  0  0
   10.6837   11.1196   24.9176 H   0  0  0  0  0  0  0  0  0  0  0  0
    7.4208   13.0676   23.2875 H   0  0  0  0  0  0  0  0  0  0  0  0
    9.6076   13.1293   23.9192 H   0  0  0  0  0  0  0  0  0  0  0  0
    9.3225    8.9825   25.0639 H   0  0  0  0  0  0  0  0  0  0  0  0
    9.2169   10.3094   21.5098 H   0  0  0  0  0  0  0  0  0  0  0  0
    9.8715    8.2238   23.0399 H   0  0  0  0  0  0  0  0  0  0  0  0
  1  2  1  0  0  0  0
  1  6  1  0  0  0  0
  2  7  1  1  0  0  0
  3  6  1  6  0  0  0
  3 10  1  0  0  0  0
  4  8  1  6  0  0  0
  4 11  1  0  0  0  0
  5  9  1  6  0  0  0
  5 11  1  0  0  0  0
  6  8  1  0  0  0  0
  7  9  1  0  0  0  0
  7 10  1  0  0  0  0
  8  9  1  0  0  0  0
 10 12  1  6  0  0  0
  1 13  1  0  0  0  0
  1 14  1  0  0  0  0
  2 15  1  0  0  0  0
  2 16  1  0  0  0  0
  3 17  1  0  0  0  0
  3 18  1  0  0  0  0
  4 19  1  0  0  0  0
  4 20  1  0  0  0  0
  5 21  1  0  0  0  0
  5 22  1  0  0  0  0
  6 23  1  0  0  0  0
  7 24  1  0  0  0  0
  8 25  1  0  0  0  0
  9 26  1  0  0  0  0
 10 27  1  0  0  0  0
 11 28  1  0  0  0  0
 12 29  1  0  0  0  0
M  END
> <id>
EN300-27100428

> <smiles>
O[C@@H]1C[C@H]2CC[C@@H]1[C@H]3CNC[C@H]32 |&1:1,3,6,7,11,r|

> <IUPAC Name>
rac-(1R,2S,6S,7R,8R)-4-azatricyclo[5.2.2.0,2,6]undecan-8-ol

> <CAS>
2470279-26-4

> <URL>
https://www.enaminestore.com/catalog/EN300-27100428

> <ROCS_ShapeQuery>
x0812_0A_x1140_0A_x1097_0A_x0365_0A_x1097_0A_x0310_0A

> <ROCS_TanimotoCombo>
0.711 

> <ROCS_ShapeTanimoto>
0.205 

> <ROCS_ColorTanimoto>
0.506 

> <ROCS_RefTversky>
0.188 

> <ROCS_RefColorTversky>
0.589 

> <ROCS_RefTverskyCombo>
0.777 

> <ROCS_FitTversky>
1.826 

> <ROCS_FitColorTversky>
0.781 

> <ROCS_FitTverskyCombo>
2.607 

> <ROCS_ColorScore>
-8.801

> <ROCS_Overlap>
1898.140

> <ROCS_Rank>
224                 

$$$$
untitled-dbase-557600_0
  -OEChem-02092408543D

 31 32  0     0  0  0  0  0  0999 V2000
    9.8770   11.9805   22.0331 C   0  0  0  0  0  0  0  0  0  0  0  0
    7.9144   12.4218   23.5215 C   0  0  0  0  0  0  0  0  0  0  0  0
   10.0628   11.6100   24.4885 C   0  0  0  0  0  0  0  0  0  0  0  0
    7.1433   11.8779   24.7296 C   0  0  0  0  0  0  0  0  0  0  0  0
    9.3230   11.0545   25.7109 C   0  0  0  0  0  0  0  0  0  0  0  0
    8.6577   10.0851   23.1216 C   0  0  0  0  0  0  0  0  0  0  0  0
    9.1419   11.5351   23.2613 C   0  0  0  0  0  0  0  0  0  0  0  0
    7.8863   10.6633   25.3165 C   0  0  0  0  0  0  0  0  0  0  0  0
   11.0169   13.8229   21.0896 C   0  0  0  0  0  0  0  0  0  0  0  0
    7.1304   10.0785   26.5047 C   0  0  0  0  0  0  0  0  0  0  0  0
    5.8307    9.6626   26.0948 N   0  0  0  0  0  0  0  0  0  0  0  0
   10.0591   11.2752   21.0500 O   0  0  0  0  0  0  0  0  0  0  0  0
    7.9601    9.6473   24.2977 O   0  0  0  0  0  0  0  0  0  0  0  0
   10.2960   13.2679   22.1943 O   0  0  0  0  0  0  0  0  0  0  0  0
    7.2589   12.4486   22.6416 H   0  0  0  0  0  0  0  0  0  0  0  0
    8.2152   13.4611   23.7060 H   0  0  0  0  0  0  0  0  0  0  0  0
   10.3774   12.6444   24.6772 H   0  0  0  0  0  0  0  0  0  0  0  0
   10.9855   11.0398   24.3206 H   0  0  0  0  0  0  0  0  0  0  0  0
    7.0201   12.6659   25.4818 H   0  0  0  0  0  0  0  0  0  0  0  0
    6.1395   11.5821   24.3998 H   0  0  0  0  0  0  0  0  0  0  0  0
    9.8654   10.1743   26.0781 H   0  0  0  0  0  0  0  0  0  0  0  0
    9.3221   11.7965   26.5180 H   0  0  0  0  0  0  0  0  0  0  0  0
    7.9797    9.9711   22.2677 H   0  0  0  0  0  0  0  0  0  0  0  0
    9.4950    9.3972   22.9552 H   0  0  0  0  0  0  0  0  0  0  0  0
   11.3045   14.8514   21.3210 H   0  0  0  0  0  0  0  0  0  0  0  0
   10.3887   13.8012   20.1956 H   0  0  0  0  0  0  0  0  0  0  0  0
   11.9154   13.2261   20.9157 H   0  0  0  0  0  0  0  0  0  0  0  0
    7.7061    9.2288   26.8699 H   0  0  0  0  0  0  0  0  0  0  0  0
    7.0609   10.8588   27.2617 H   0  0  0  0  0  0  0  0  0  0  0  0
    5.1291   10.1400   26.6316 H   0  0  0  0  0  0  0  0  0  0  0  0
    5.6917    9.8714   25.1224 H   0  0  0  0  0  0  0  0  0  0  0  0
  1  7  1  0  0  0  0
  1 12  2  0  0  0  0
  1 14  1  0  0  0  0
  2  4  1  0  0  0  0
  2  7  1  0  0  0  0
  3  5  1  0  0  0  0
  3  7  1  0  0  0  0
  4  8  1  0  0  0  0
  5  8  1  0  0  0  0
  6  7  1  0  0  0  0
  6 13  1  0  0  0  0
  8 10  1  0  0  0  0
  8 13  1  0  0  0  0
  9 14  1  0  0  0  0
 10 11  1  0  0  0  0
  2 15  1  0  0  0  0
  2 16  1  0  0  0  0
  3 17  1  0  0  0  0
  3 18  1  0  0  0  0
  4 19  1  0  0  0  0
  4 20  1  0  0  0  0
  5 21  1  0  0  0  0
  5 22  1  0  0  0  0
  6 23  1  0  0  0  0
  6 24  1  0  0  0  0
  9 25  1  0  0  0  0
  9 26  1  0  0  0  0
  9 27  1  0  0  0  0
 10 28  1  0  0  0  0
 10 29  1  0  0  0  0
 11 30  1  0  0  0  0
 11 31  1  0  0  0  0
M  END
> <id>
EN300-6497346

> <smiles>
Cl.COC(=O)C1(CCC2(CN)CC1)CO2

> <MDLNUMBER>
MFCD31719046

> <IUPAC Name>
methyl 1-(aminomethyl)-2-oxabicyclo[2.2.2]octane-4-carboxylate hydrochloride

> <CAS>
2248294-13-3

> <Purity>
95

> <URL>
https://www.enaminestore.com/catalog/EN300-6497346

> <Saltdate>
Cl

> <ROCS_ShapeQuery>
x0812_0A_x1140_0A_x1097_0A_x0365_0A_x1097_0A_x0310_0A

> <ROCS_TanimotoCombo>
0.711 

> <ROCS_ShapeTanimoto>
0.227 

> <ROCS_ColorTanimoto>
0.484 

> <ROCS_RefTversky>
0.206 

> <ROCS_RefColorTversky>
0.552 

> <ROCS_RefTverskyCombo>
0.757 

> <ROCS_FitTversky>
1.857 

> <ROCS_FitColorTversky>
0.797 

> <ROCS_FitTverskyCombo>
2.653 

> <ROCS_ColorScore>
-8.208

> <ROCS_Overlap>
2080.621

> <ROCS_Rank>
225                 

$$$$
untitled-dbase-469206_0
  -OEChem-02092408543D

 31 32  0     0  0  0  0  0  0999 V2000
    9.8770   11.9805   22.0331 C   0  0  0  0  0  0  0  0  0  0  0  0
    7.9144   12.4218   23.5215 C   0  0  0  0  0  0  0  0  0  0  0  0
   10.0628   11.6100   24.4885 C   0  0  0  0  0  0  0  0  0  0  0  0
    7.1433   11.8779   24.7296 C   0  0  0  0  0  0  0  0  0  0  0  0
    9.3230   11.0545   25.7109 C   0  0  0  0  0  0  0  0  0  0  0  0
    8.6577   10.0851   23.1216 C   0  0  0  0  0  0  0  0  0  0  0  0
    9.1419   11.5351   23.2613 C   0  0  0  0  0  0  0  0  0  0  0  0
    7.8863   10.6633   25.3165 C   0  0  0  0  0  0  0  0  0  0  0  0
   11.0169   13.8229   21.0896 C   0  0  0  0  0  0  0  0  0  0  0  0
    7.1304   10.0785   26.5047 C   0  0  0  0  0  0  0  0  0  0  0  0
    5.8307    9.6626   26.0948 N   0  0  0  0  0  0  0  0  0  0  0  0
   10.0591   11.2752   21.0500 O   0  0  0  0  0  0  0  0  0  0  0  0
    7.9601    9.6473   24.2977 O   0  0  0  0  0  0  0  0  0  0  0  0
   10.2960   13.2679   22.1943 O   0  0  0  0  0  0  0  0  0  0  0  0
    7.2589   12.4486   22.6416 H   0  0  0  0  0  0  0  0  0  0  0  0
    8.2152   13.4611   23.7060 H   0  0  0  0  0  0  0  0  0  0  0  0
   10.3774   12.6444   24.6772 H   0  0  0  0  0  0  0  0  0  0  0  0
   10.9855   11.0398   24.3206 H   0  0  0  0  0  0  0  0  0  0  0  0
    7.0201   12.6659   25.4818 H   0  0  0  0  0  0  0  0  0  0  0  0
    6.1395   11.5821   24.3998 H   0  0  0  0  0  0  0  0  0  0  0  0
    9.8654   10.1743   26.0781 H   0  0  0  0  0  0  0  0  0  0  0  0
    9.3221   11.7965   26.5180 H   0  0  0  0  0  0  0  0  0  0  0  0
    7.9797    9.9711   22.2677 H   0  0  0  0  0  0  0  0  0  0  0  0
    9.4950    9.3972   22.9552 H   0  0  0  0  0  0  0  0  0  0  0  0
   11.3045   14.8514   21.3210 H   0  0  0  0  0  0  0  0  0  0  0  0
   10.3887   13.8012   20.1956 H   0  0  0  0  0  0  0  0  0  0  0  0
   11.9154   13.2261   20.9157 H   0  0  0  0  0  0  0  0  0  0  0  0
    7.7061    9.2288   26.8699 H   0  0  0  0  0  0  0  0  0  0  0  0
    7.0609   10.8588   27.2617 H   0  0  0  0  0  0  0  0  0  0  0  0
    5.1291   10.1400   26.6316 H   0  0  0  0  0  0  0  0  0  0  0  0
    5.6917    9.8714   25.1224 H   0  0  0  0  0  0  0  0  0  0  0  0
  1  7  1  0  0  0  0
  1 12  2  0  0  0  0
  1 14  1  0  0  0  0
  2  4  1  0  0  0  0
  2  7  1  0  0  0  0
  3  5  1  0  0  0  0
  3  7  1  0  0  0  0
  4  8  1  0  0  0  0
  5  8  1  0  0  0  0
  6  7  1  0  0  0  0
  6 13  1  0  0  0  0
  8 10  1  0  0  0  0
  8 13  1  0  0  0  0
  9 14  1  0  0  0  0
 10 11  1  0  0  0  0
  2 15  1  0  0  0  0
  2 16  1  0  0  0  0
  3 17  1  0  0  0  0
  3 18  1  0  0  0  0
  4 19  1  0  0  0  0
  4 20  1  0  0  0  0
  5 21  1  0  0  0  0
  5 22  1  0  0  0  0
  6 23  1  0  0  0  0
  6 24  1  0  0  0  0
  9 25  1  0  0  0  0
  9 26  1  0  0  0  0
  9 27  1  0  0  0  0
 10 28  1  0  0  0  0
 10 29  1  0  0  0  0
 11 30  1  0  0  0  0
 11 31  1  0  0  0  0
M  END
> <id>
EN300-6497347

> <smiles>
COC(=O)C1(CCC2(CN)CC1)CO2

> <MDLNUMBER>
MFCD31719047

> <IUPAC Name>
methyl 1-(aminomethyl)-2-oxabicyclo[2.2.2]octane-4-carboxylate

> <CAS>
2248294-12-2

> <URL>
https://www.enaminestore.com/catalog/EN300-6497347

> <ROCS_ShapeQuery>
x0812_0A_x1140_0A_x1097_0A_x0365_0A_x1097_0A_x0310_0A

> <ROCS_TanimotoCombo>
0.711 

> <ROCS_ShapeTanimoto>
0.227 

> <ROCS_ColorTanimoto>
0.484 

> <ROCS_RefTversky>
0.206 

> <ROCS_RefColorTversky>
0.552 

> <ROCS_RefTverskyCombo>
0.757 

> <ROCS_FitTversky>
1.857 

> <ROCS_FitColorTversky>
0.797 

> <ROCS_FitTverskyCombo>
2.653 

> <ROCS_ColorScore>
-8.208

> <ROCS_Overlap>
2080.621

> <ROCS_Rank>
226                 

$$$$
untitled-dbase-275450_1
  -OEChem-02092408543D

 39 42  0     0  0  0  0  0  0999 V2000
   10.3177   12.5710   21.4177 C   0  0  0  0  0  0  0  0  0  0  0  0
   11.7004   15.3991   22.5052 C   0  0  0  0  0  0  0  0  0  0  0  0
   11.6593   13.9606   23.0531 C   0  0  0  0  0  0  0  0  0  0  0  0
   10.6349   15.0819   21.4396 C   0  0  0  0  0  0  0  0  0  0  0  0
    6.6934   10.4391   24.3365 C   0  0  0  0  0  0  0  0  0  0  0  0
    8.6672   10.5349   25.8801 C   0  0  0  0  0  0  0  0  0  0  0  0
    8.9103    9.5320   23.5948 C   0  0  0  0  0  0  0  0  0  0  0  0
    7.7680   12.6433   24.8624 C   0  0  0  0  0  0  0  0  0  0  0  0
    8.0115   11.6382   22.5718 C   0  0  0  0  0  0  0  0  0  0  0  0
    9.9899   11.7341   24.1187 C   0  0  0  0  0  0  0  0  0  0  0  0
    7.3901   11.2644   25.4310 C   0  0  0  0  0  0  0  0  0  0  0  0
    7.6345   10.2565   23.1343 C   0  0  0  0  0  0  0  0  0  0  0  0
    9.6181   10.3527   24.6856 C   0  0  0  0  0  0  0  0  0  0  0  0
   10.3347   13.7691   22.2394 C   0  0  0  0  0  0  0  0  0  0  0  0
    8.7208   12.4869   23.6536 C   0  0  0  0  0  0  0  0  0  0  0  0
    9.0944   13.8606   23.0904 C   0  0  0  0  0  0  0  0  0  0  0  0
   10.3043   11.6143   20.7615 N   0  0  0  0  0  0  0  0  0  0  0  0
   12.3210   16.3966   22.8044 O   0  0  0  0  0  0  0  0  0  0  0  0
   12.5172   13.3637   22.7259 H   0  0  0  0  0  0  0  0  0  0  0  0
   11.5674   13.8995   24.1408 H   0  0  0  0  0  0  0  0  0  0  0  0
    9.8217   15.8105   21.3906 H   0  0  0  0  0  0  0  0  0  0  0  0
   11.0674   14.9507   20.4422 H   0  0  0  0  0  0  0  0  0  0  0  0
    6.4009    9.4598   24.7351 H   0  0  0  0  0  0  0  0  0  0  0  0
    5.7715   10.9412   24.0180 H   0  0  0  0  0  0  0  0  0  0  0  0
    9.1660   11.1062   26.6727 H   0  0  0  0  0  0  0  0  0  0  0  0
    8.4097    9.5574   26.3062 H   0  0  0  0  0  0  0  0  0  0  0  0
    8.6570    8.5367   23.9802 H   0  0  0  0  0  0  0  0  0  0  0  0
    9.5843    9.3813   22.7426 H   0  0  0  0  0  0  0  0  0  0  0  0
    6.8585   13.1795   24.5618 H   0  0  0  0  0  0  0  0  0  0  0  0
    8.2446   13.2467   25.6457 H   0  0  0  0  0  0  0  0  0  0  0  0
    8.6644   11.5145   21.6981 H   0  0  0  0  0  0  0  0  0  0  0  0
    7.1076   12.1514   22.2191 H   0  0  0  0  0  0  0  0  0  0  0  0
   10.5174   12.3169   24.8850 H   0  0  0  0  0  0  0  0  0  0  0  0
   10.6875   11.6124   23.2801 H   0  0  0  0  0  0  0  0  0  0  0  0
    6.7157   11.3894   26.2855 H   0  0  0  0  0  0  0  0  0  0  0  0
    7.1336    9.6662   22.3588 H   0  0  0  0  0  0  0  0  0  0  0  0
   10.5249    9.8309   25.0112 H   0  0  0  0  0  0  0  0  0  0  0  0
    9.2488   14.5278   23.9317 H   0  0  0  0  0  0  0  0  0  0  0  0
    8.2501   14.2163   22.5097 H   0  0  0  0  0  0  0  0  0  0  0  0
  1 14  1  0  0  0  0
  1 17  3  0  0  0  0
  2  3  1  0  0  0  0
  2  4  1  0  0  0  0
  2 18  2  0  0  0  0
  3 14  1  0  0  0  0
  4 14  1  0  0  0  0
  5 11  1  0  0  0  0
  5 12  1  0  0  0  0
  6 11  1  0  0  0  0
  6 13  1  0  0  0  0
  7 12  1  0  0  0  0
  7 13  1  0  0  0  0
  8 11  1  0  0  0  0
  8 15  1  0  0  0  0
  9 12  1  0  0  0  0
  9 15  1  0  0  0  0
 10 13  1  0  0  0  0
 10 15  1  0  0  0  0
 14 16  1  0  0  0  0
 15 16  1  0  0  0  0
  3 19  1  0  0  0  0
  3 20  1  0  0  0  0
  4 21  1  0  0  0  0
  4 22  1  0  0  0  0
  5 23  1  0  0  0  0
  5 24  1  0  0  0  0
  6 25  1  0  0  0  0
  6 26  1  0  0  0  0
  7 27  1  0  0  0  0
  7 28  1  0  0  0  0
  8 29  1  0  0  0  0
  8 30  1  0  0  0  0
  9 31  1  0  0  0  0
  9 32  1  0  0  0  0
 10 33  1  0  0  0  0
 10 34  1  0  0  0  0
 11 35  1  0  0  0  0
 12 36  1  0  0  0  0
 13 37  1  0  0  0  0
 16 38  1  0  0  0  0
 16 39  1  0  0  0  0
M  END
> <id>
EN300-1797038

> <smiles>
O=C1CC(CC2(CC3CC4CC(C3)C2)C4)(C1)C#N

> <IUPAC Name>
1-[(adamantan-1-yl)methyl]-3-oxocyclobutane-1-carbonitrile

> <CAS>
2228559-68-8

> <URL>
https://www.enaminestore.com/catalog/EN300-1797038

> <ROCS_ShapeQuery>
x0812_0A_x1140_0A_x1097_0A_x0365_0A_x1097_0A_x0310_0A

> <ROCS_TanimotoCombo>
0.711 

> <ROCS_ShapeTanimoto>
0.248 

> <ROCS_ColorTanimoto>
0.462 

> <ROCS_RefTversky>
0.225 

> <ROCS_RefColorTversky>
0.524 

> <ROCS_RefTverskyCombo>
0.748 

> <ROCS_FitTversky>
1.742 

> <ROCS_FitColorTversky>
0.798 

> <ROCS_FitTverskyCombo>
2.540 

> <ROCS_ColorScore>
-7.779

> <ROCS_Overlap>
2272.699

> <ROCS_Rank>
227                 

$$$$
untitled-dbase-134238_8
  -OEChem-02092408543D

 25 26  0     1  0  0  0  0  0999 V2000
   10.3562   11.3900   22.4826 C   0  0  0  0  0  0  0  0  0  0  0  0
    9.3567   12.1240   24.7022 C   0  0  0  0  0  0  0  0  0  0  0  0
    7.9760   11.9139   25.3462 C   0  0  0  0  0  0  0  0  0  0  0  0
    7.8858   11.2483   23.0472 C   0  0  0  0  0  0  0  0  0  0  0  0
    9.3105    9.7135   24.0839 C   0  0  0  0  0  0  0  0  0  0  0  0
    9.3256   11.1353   23.5274 C   0  0  1  0  0  0  0  0  0  0  0  0
    7.3429   10.8647   24.4149 C   0  0  2  0  0  0  0  0  0  0  0  0
   11.7887   11.3326   22.9558 C   0  0  0  0  0  0  0  0  0  0  0  0
    5.8440   10.7331   24.5290 C   0  0  0  0  0  0  0  0  0  0  0  0
   10.0204   11.6284   21.3239 O   0  0  0  0  0  0  0  0  0  0  0  0
    7.9987    9.6006   24.6864 O   0  0  0  0  0  0  0  0  0  0  0  0
    5.5317   10.3542   25.7968 F   0  0  0  0  0  0  0  0  0  0  0  0
   12.3872   13.0939   23.4969 Br  0  0  0  0  0  0  0  0  0  0  0  0
    9.4693   13.1591   24.3586 H   0  0  0  0  0  0  0  0  0  0  0  0
   10.1708   11.9159   25.4051 H   0  0  0  0  0  0  0  0  0  0  0  0
    8.0769   11.5457   26.3725 H   0  0  0  0  0  0  0  0  0  0  0  0
    7.4133   12.8537   25.3545 H   0  0  0  0  0  0  0  0  0  0  0  0
    7.6000   12.2528   22.7172 H   0  0  0  0  0  0  0  0  0  0  0  0
    7.6476   10.5221   22.2614 H   0  0  0  0  0  0  0  0  0  0  0  0
    9.3990    8.9498   23.3038 H   0  0  0  0  0  0  0  0  0  0  0  0
   10.0762    9.5322   24.8446 H   0  0  0  0  0  0  0  0  0  0  0  0
   12.4430   11.0019   22.1468 H   0  0  0  0  0  0  0  0  0  0  0  0
   11.8748   10.6795   23.8264 H   0  0  0  0  0  0  0  0  0  0  0  0
    5.4578    9.9736   23.8431 H   0  0  0  0  0  0  0  0  0  0  0  0
    5.3448   11.6852   24.3269 H   0  0  0  0  0  0  0  0  0  0  0  0
  1  6  1  0  0  0  0
  1  8  1  0  0  0  0
  1 10  2  0  0  0  0
  2  3  1  0  0  0  0
  2  6  1  0  0  0  0
  3  7  1  0  0  0  0
  4  6  1  0  0  0  0
  4  7  1  0  0  0  0
  5  6  1  0  0  0  0
  5 11  1  0  0  0  0
  7  9  1  0  0  0  0
  7 11  1  0  0  0  0
  8 13  1  0  0  0  0
  9 12  1  0  0  0  0
  2 14  1  0  0  0  0
  2 15  1  0  0  0  0
  3 16  1  0  0  0  0
  3 17  1  0  0  0  0
  4 18  1  0  0  0  0
  4 19  1  0  0  0  0
  5 20  1  0  0  0  0
  5 21  1  0  0  0  0
  8 22  1  0  0  0  0
  8 23  1  0  0  0  0
  9 24  1  0  0  0  0
  9 25  1  0  0  0  0
M  END
> <id>
EN300-27143697

> <smiles>
FCC1(CCC2(CO1)C(=O)CBr)C2

> <IUPAC Name>
2-bromo-1-[1-(fluoromethyl)-2-oxabicyclo[2.2.1]heptan-4-yl]ethan-1-one

> <CAS>
2763750-95-2

> <Purity>
95

> <URL>
https://www.enaminestore.com/catalog/EN300-27143697

> <ROCS_ShapeQuery>
x0812_0A_x1140_0A_x1097_0A_x0365_0A_x1097_0A_x0310_0A

> <ROCS_TanimotoCombo>
0.710 

> <ROCS_ShapeTanimoto>
0.226 

> <ROCS_ColorTanimoto>
0.484 

> <ROCS_RefTversky>
0.204 

> <ROCS_RefColorTversky>
0.539 

> <ROCS_RefTverskyCombo>
0.743 

> <ROCS_FitTversky>
1.926 

> <ROCS_FitColorTversky>
0.827 

> <ROCS_FitTverskyCombo>
2.753 

> <ROCS_ColorScore>
-8.003

> <ROCS_Overlap>
2059.690

> <ROCS_Rank>
228                 

$$$$
untitled-dbase-74434_0
  -OEChem-02092408543D

 22 24  0     0  0  0  0  0  0999 V2000
   10.3137   12.8580   23.4374 C   0  0  0  0  0  0  0  0  0  0  0  0
    9.3874   11.9894   23.9235 C   0  0  0  0  0  0  0  0  0  0  0  0
    9.0578   11.1300   22.8699 C   0  0  0  0  0  0  0  0  0  0  0  0
    8.6206    9.3297   24.4581 C   0  0  0  0  0  0  0  0  0  0  0  0
    6.8001   10.8800   23.7622 C   0  0  0  0  0  0  0  0  0  0  0  0
    9.0147   10.3506   25.5823 C   0  0  0  0  0  0  0  0  0  0  0  0
    7.2430   11.8608   24.9038 C   0  0  0  0  0  0  0  0  0  0  0  0
    8.0403   10.0935   23.2219 C   0  0  0  0  0  0  0  0  0  0  0  0
    9.7162   11.3999   21.7500 N   0  0  0  0  0  0  0  0  0  0  0  0
   10.4800   12.4636   22.1260 N   0  0  0  0  0  0  0  0  0  0  0  0
    8.7264   11.7401   25.0951 N   0  0  0  0  0  0  0  0  0  0  0  0
   10.8612   13.6892   23.8572 H   0  0  0  0  0  0  0  0  0  0  0  0
    9.5096    8.7589   24.1624 H   0  0  0  0  0  0  0  0  0  0  0  0
    7.8824    8.6174   24.8446 H   0  0  0  0  0  0  0  0  0  0  0  0
    6.0440   10.1832   24.1418 H   0  0  0  0  0  0  0  0  0  0  0  0
    6.3413   11.4579   22.9502 H   0  0  0  0  0  0  0  0  0  0  0  0
    8.4525   10.1460   26.5011 H   0  0  0  0  0  0  0  0  0  0  0  0
   10.0797   10.2532   25.8280 H   0  0  0  0  0  0  0  0  0  0  0  0
    6.9808   12.8934   24.6423 H   0  0  0  0  0  0  0  0  0  0  0  0
    6.7199   11.6228   25.8376 H   0  0  0  0  0  0  0  0  0  0  0  0
    7.7867    9.4251   22.3958 H   0  0  0  0  0  0  0  0  0  0  0  0
   11.0946   12.8748   21.4350 H   0  0  0  0  0  0  0  0  0  0  0  0
  1  2  2  0  0  0  0
  1 10  1  0  0  0  0
  2  3  1  0  0  0  0
  2 11  1  0  0  0  0
  3  8  1  0  0  0  0
  3  9  2  0  0  0  0
  4  6  1  0  0  0  0
  4  8  1  0  0  0  0
  5  7  1  0  0  0  0
  5  8  1  0  0  0  0
  6 11  1  0  0  0  0
  7 11  1  0  0  0  0
  9 10  1  0  0  0  0
  1 12  1  0  0  0  0
  4 13  1  0  0  0  0
  4 14  1  0  0  0  0
  5 15  1  0  0  0  0
  5 16  1  0  0  0  0
  6 17  1  0  0  0  0
  6 18  1  0  0  0  0
  7 19  1  0  0  0  0
  7 20  1  0  0  0  0
  8 21  1  0  0  0  0
 10 22  1  0  0  0  0
M  END
> <id>
EN300-366245

> <smiles>
Cl.C1CN2CCC1C3=NNC=C23

> <MDLNUMBER>
MFCD30539885

> <IUPAC Name>
1,4,5-triazatricyclo[5.2.2.0,2,6]undeca-2,5-diene hydrochloride

> <CAS>
2089258-31-9

> <Purity>
95

> <URL>
https://www.enaminestore.com/catalog/EN300-366245

> <Saltdate>
Cl

> <ROCS_ShapeQuery>
x0812_0A_x1140_0A_x1097_0A_x0365_0A_x1097_0A_x0310_0A

> <ROCS_TanimotoCombo>
0.710 

> <ROCS_ShapeTanimoto>
0.207 

> <ROCS_ColorTanimoto>
0.503 

> <ROCS_RefTversky>
0.189 

> <ROCS_RefColorTversky>
0.548 

> <ROCS_RefTverskyCombo>
0.738 

> <ROCS_FitTversky>
1.866 

> <ROCS_FitColorTversky>
0.858 

> <ROCS_FitTverskyCombo>
2.724 

> <ROCS_ColorScore>
-8.139

> <ROCS_Overlap>
1911.904

> <ROCS_Rank>
229                 

$$$$
untitled-dbase-572198_8
  -OEChem-02092408543D

 23 24  0     0  0  0  0  0  0999 V2000
   10.0465   10.7691   22.3518 C   0  0  0  0  0  0  0  0  0  0  0  0
    8.9469    9.9958   24.7353 C   0  0  0  0  0  0  0  0  0  0  0  0
    7.5227   10.8354   23.4083 C   0  0  0  0  0  0  0  0  0  0  0  0
    9.0788   10.8974   23.4706 C   0  0  0  0  0  0  0  0  0  0  0  0
    7.8026   11.0626   24.9450 C   0  0  0  0  0  0  0  0  0  0  0  0
    8.8822   12.0996   24.4423 C   0  0  0  0  0  0  0  0  0  0  0  0
   11.8476    9.4568   21.5659 C   0  0  0  0  0  0  0  0  0  0  0  0
    6.8394   11.1899   26.0592 C   0  0  0  0  0  0  0  0  0  0  0  0
   10.0846   11.5233   21.3891 O   0  0  0  0  0  0  0  0  0  0  0  0
    6.0333   10.0109   26.1577 O   0  0  0  0  0  0  0  0  0  0  0  0
   10.8609    9.6984   22.5740 O   0  0  0  0  0  0  0  0  0  0  0  0
    9.8945   12.3988   25.2854 F   0  0  0  0  0  0  0  0  0  0  0  0
    8.4312   13.2619   23.9219 F   0  0  0  0  0  0  0  0  0  0  0  0
    8.6312    8.9586   24.5787 H   0  0  0  0  0  0  0  0  0  0  0  0
    9.7755   10.0116   25.4510 H   0  0  0  0  0  0  0  0  0  0  0  0
    7.0098   11.6422   22.8740 H   0  0  0  0  0  0  0  0  0  0  0  0
    7.0717    9.8781   23.1255 H   0  0  0  0  0  0  0  0  0  0  0  0
   12.4427    8.5822   21.8398 H   0  0  0  0  0  0  0  0  0  0  0  0
   12.4926   10.3337   21.4685 H   0  0  0  0  0  0  0  0  0  0  0  0
   11.3449    9.2692   20.6142 H   0  0  0  0  0  0  0  0  0  0  0  0
    6.1517   12.0466   25.9231 H   0  0  0  0  0  0  0  0  0  0  0  0
    7.3431   11.3250   27.0358 H   0  0  0  0  0  0  0  0  0  0  0  0
    5.4296   10.1581   26.8998 H   0  0  0  0  0  0  0  0  0  0  0  0
  1  4  1  0  0  0  0
  1  9  2  0  0  0  0
  1 11  1  0  0  0  0
  2  4  1  0  0  0  0
  2  5  1  0  0  0  0
  3  4  1  0  0  0  0
  3  5  1  0  0  0  0
  4  6  1  0  0  0  0
  5  6  1  0  0  0  0
  5  8  1  0  0  0  0
  6 12  1  0  0  0  0
  6 13  1  0  0  0  0
  7 11  1  0  0  0  0
  8 10  1  0  0  0  0
  2 14  1  0  0  0  0
  2 15  1  0  0  0  0
  3 16  1  0  0  0  0
  3 17  1  0  0  0  0
  7 18  1  0  0  0  0
  7 19  1  0  0  0  0
  7 20  1  0  0  0  0
  8 21  1  0  0  0  0
  8 22  1  0  0  0  0
 10 23  1  0  0  0  0
M  END
> <id>
EN300-39919329

> <smiles>
COC(=O)C1(CC2(CO)C1)C2(F)F

> <IUPAC Name>
methyl 2,2-difluoro-3-(hydroxymethyl)bicyclo[1.1.1]pentane-1-carboxylate

> <Purity>
90

> <URL>
https://www.enaminestore.com/catalog/EN300-39919329

> <ROCS_ShapeQuery>
x0812_0A_x1140_0A_x1097_0A_x0365_0A_x1097_0A_x0310_0A

> <ROCS_TanimotoCombo>
0.710 

> <ROCS_ShapeTanimoto>
0.220 

> <ROCS_ColorTanimoto>
0.490 

> <ROCS_RefTversky>
0.200 

> <ROCS_RefColorTversky>
0.566 

> <ROCS_RefTverskyCombo>
0.766 

> <ROCS_FitTversky>
1.870 

> <ROCS_FitColorTversky>
0.784 

> <ROCS_FitTverskyCombo>
2.654 

> <ROCS_ColorScore>
-8.435

> <ROCS_Overlap>
2020.946

> <ROCS_Rank>
230                 

$$$$
untitled-dbase-323952_4
  -OEChem-02092408543D

 40 42  0     1  0  0  0  0  0999 V2000
   11.3385   13.0978   22.9227 C   0  0  0  0  0  0  0  0  0  0  0  0
    7.8635   10.6721   25.6607 C   0  0  0  0  0  0  0  0  0  0  0  0
    8.4424    9.4053   23.5551 C   0  0  0  0  0  0  0  0  0  0  0  0
    6.9510   11.3688   23.4119 C   0  0  0  0  0  0  0  0  0  0  0  0
   10.1072   10.7321   24.5040 C   0  0  0  0  0  0  0  0  0  0  0  0
    8.6095   12.7039   24.3602 C   0  0  0  0  0  0  0  0  0  0  0  0
    8.9506    9.8277   24.9365 C   0  0  1  0  0  0  0  0  0  0  0  0
    7.3977   11.8722   24.7876 C   0  0  2  0  0  0  0  0  0  0  0  0
    8.2632   10.7731   22.8757 C   0  0  0  0  0  0  0  0  0  0  0  0
    9.3851   11.6723   23.5171 C   0  0  0  0  0  0  0  0  0  0  0  0
   12.7534   15.5740   22.7949 C   0  0  0  0  0  0  0  0  0  0  0  0
   12.8126   15.1990   20.3120 C   0  0  0  0  0  0  0  0  0  0  0  0
   10.6073   15.4607   21.4851 C   0  0  0  0  0  0  0  0  0  0  0  0
   12.0388   14.9394   21.6027 C   0  0  0  0  0  0  0  0  0  0  0  0
   10.2727   12.2810   22.5750 N   0  0  0  0  0  0  0  0  0  0  0  0
   11.6541   13.4000   24.0689 O   0  0  0  0  0  0  0  0  0  0  0  0
   11.9930   13.5219   21.8006 O   0  0  0  0  0  0  0  0  0  0  0  0
    7.0022   10.0348   25.8936 H   0  0  0  0  0  0  0  0  0  0  0  0
    8.2645   11.0457   26.6104 H   0  0  0  0  0  0  0  0  0  0  0  0
    9.1939    8.8072   23.0255 H   0  0  0  0  0  0  0  0  0  0  0  0
    7.5186    8.8198   23.6033 H   0  0  0  0  0  0  0  0  0  0  0  0
    6.1348   10.6416   23.4706 H   0  0  0  0  0  0  0  0  0  0  0  0
    6.6187   12.2000   22.7783 H   0  0  0  0  0  0  0  0  0  0  0  0
   10.5697   11.2582   25.3459 H   0  0  0  0  0  0  0  0  0  0  0  0
   10.8873   10.1458   24.0015 H   0  0  0  0  0  0  0  0  0  0  0  0
    8.2924   13.5617   23.7534 H   0  0  0  0  0  0  0  0  0  0  0  0
    9.1804   13.0863   25.2130 H   0  0  0  0  0  0  0  0  0  0  0  0
    9.2792    8.9808   25.5446 H   0  0  0  0  0  0  0  0  0  0  0  0
    6.6314   12.4676   25.2904 H   0  0  0  0  0  0  0  0  0  0  0  0
    8.2793   10.7050   21.7847 H   0  0  0  0  0  0  0  0  0  0  0  0
   12.2011   15.3899   23.7234 H   0  0  0  0  0  0  0  0  0  0  0  0
   13.7693   15.1826   22.9112 H   0  0  0  0  0  0  0  0  0  0  0  0
   12.8128   16.6624   22.6812 H   0  0  0  0  0  0  0  0  0  0  0  0
   12.3034   14.7455   19.4539 H   0  0  0  0  0  0  0  0  0  0  0  0
   13.8086   14.7438   20.3558 H   0  0  0  0  0  0  0  0  0  0  0  0
   12.9292   16.2704   20.1193 H   0  0  0  0  0  0  0  0  0  0  0  0
   10.0944   15.0057   20.6299 H   0  0  0  0  0  0  0  0  0  0  0  0
   10.0259   15.2503   22.3886 H   0  0  0  0  0  0  0  0  0  0  0  0
   10.5997   16.5426   21.3102 H   0  0  0  0  0  0  0  0  0  0  0  0
   10.1111   12.1027   21.5816 H   0  0  0  0  0  0  0  0  0  0  0  0
  1 15  1  0  0  0  0
  1 16  2  0  0  0  0
  1 17  1  0  0  0  0
  2  7  1  0  0  0  0
  2  8  1  0  0  0  0
  3  7  1  0  0  0  0
  3  9  1  0  0  0  0
  4  8  1  0  0  0  0
  4  9  1  0  0  0  0
  5  7  1  0  0  0  0
  5 10  1  0  0  0  0
  6  8  1  0  0  0  0
  6 10  1  0  0  0  0
  9 10  1  0  0  0  0
 10 15  1  0  0  0  0
 11 14  1  0  0  0  0
 12 14  1  0  0  0  0
 13 14  1  0  0  0  0
 14 17  1  0  0  0  0
  2 18  1  0  0  0  0
  2 19  1  0  0  0  0
  3 20  1  0  0  0  0
  3 21  1  0  0  0  0
  4 22  1  0  0  0  0
  4 23  1  0  0  0  0
  5 24  1  0  0  0  0
  5 25  1  0  0  0  0
  6 26  1  0  0  0  0
  6 27  1  0  0  0  0
  7 28  1  0  0  0  0
  8 29  1  0  0  0  0
  9 30  1  0  0  0  0
 11 31  1  0  0  0  0
 11 32  1  0  0  0  0
 11 33  1  0  0  0  0
 12 34  1  0  0  0  0
 12 35  1  0  0  0  0
 12 36  1  0  0  0  0
 13 37  1  0  0  0  0
 13 38  1  0  0  0  0
 13 39  1  0  0  0  0
 15 40  1  0  0  0  0
M  END
> <id>
EN300-37447151

> <smiles>
CC(C)(C)OC(=O)NC12CC3CC2CC(C1)C3

> <IUPAC Name>
tert-butyl N-{tricyclo[3.3.1.0,3,7]nonan-3-yl}carbamate

> <URL>
https://www.enaminestore.com/catalog/EN300-37447151

> <ROCS_ShapeQuery>
x0812_0A_x1140_0A_x1097_0A_x0365_0A_x1097_0A_x0310_0A

> <ROCS_TanimotoCombo>
0.710 

> <ROCS_ShapeTanimoto>
0.246 

> <ROCS_ColorTanimoto>
0.464 

> <ROCS_RefTversky>
0.222 

> <ROCS_RefColorTversky>
0.793 

> <ROCS_RefTverskyCombo>
1.015 

> <ROCS_FitTversky>
1.780 

> <ROCS_FitColorTversky>
0.528 

> <ROCS_FitTverskyCombo>
2.309 

> <ROCS_ColorScore>
-12.341

> <ROCS_Overlap>
2247.070

> <ROCS_Rank>
231                 

$$$$
untitled-dbase-541489_3
  -OEChem-02092408543D

 28 30  0     0  0  0  0  0  0999 V2000
    9.5897   11.3924   23.4429 C   0  0  0  0  0  0  0  0  0  0  0  0
    8.4006   11.1446   22.8236 C   0  0  0  0  0  0  0  0  0  0  0  0
   10.4360   11.7477   22.3977 C   0  0  0  0  0  0  0  0  0  0  0  0
    9.0485    9.7419   25.1737 C   0  0  0  0  0  0  0  0  0  0  0  0
    8.4034   12.1255   25.4596 C   0  0  0  0  0  0  0  0  0  0  0  0
    7.7003    9.4676   24.4224 C   0  0  0  0  0  0  0  0  0  0  0  0
    7.0554   11.8506   24.7081 C   0  0  0  0  0  0  0  0  0  0  0  0
    9.5406   11.2017   24.9206 C   0  0  0  0  0  0  0  0  0  0  0  0
    7.2333   10.7309   23.6398 C   0  0  0  0  0  0  0  0  0  0  0  0
   11.8558   12.1252   22.4600 C   0  0  0  0  0  0  0  0  0  0  0  0
    9.7984   11.7179   21.2103 N   0  0  0  0  0  0  0  0  0  0  0  0
   11.4367   14.1932   20.9044 O   0  0  0  0  0  0  0  0  0  0  0  0
   13.3113   14.3008   22.6048 O   0  0  0  0  0  0  0  0  0  0  0  0
    8.4759   11.3247   21.4990 O   0  0  0  0  0  0  0  0  0  0  0  0
   11.9861   13.8723   22.2059 S   0  0  0  0  0  0  0  0  0  0  0  0
   10.7161   14.7501   23.5503 Cl  0  0  0  0  0  0  0  0  0  0  0  0
    8.9128    9.5666   26.2474 H   0  0  0  0  0  0  0  0  0  0  0  0
    9.8039    9.0258   24.8259 H   0  0  0  0  0  0  0  0  0  0  0  0
    8.6798   13.1788   25.3238 H   0  0  0  0  0  0  0  0  0  0  0  0
    8.2627   11.9686   26.5356 H   0  0  0  0  0  0  0  0  0  0  0  0
    7.8434    8.6282   23.7299 H   0  0  0  0  0  0  0  0  0  0  0  0
    6.9331    9.1588   25.1421 H   0  0  0  0  0  0  0  0  0  0  0  0
    6.2815   11.5678   25.4316 H   0  0  0  0  0  0  0  0  0  0  0  0
    6.7200   12.7787   24.2278 H   0  0  0  0  0  0  0  0  0  0  0  0
   10.4973   11.4020   25.4094 H   0  0  0  0  0  0  0  0  0  0  0  0
    6.3260   10.5550   23.0581 H   0  0  0  0  0  0  0  0  0  0  0  0
   12.4720   11.6378   21.6843 H   0  0  0  0  0  0  0  0  0  0  0  0
   12.3245   11.9036   23.4349 H   0  0  0  0  0  0  0  0  0  0  0  0
  1  2  2  0  0  0  0
  1  3  1  0  0  0  0
  1  8  1  0  0  0  0
  2  9  1  0  0  0  0
  2 14  1  0  0  0  0
  3 10  1  0  0  0  0
  3 11  2  0  0  0  0
  4  6  1  0  0  0  0
  4  8  1  0  0  0  0
  5  7  1  0  0  0  0
  5  8  1  0  0  0  0
  6  9  1  0  0  0  0
  7  9  1  0  0  0  0
 10 15  1  0  0  0  0
 11 14  1  0  0  0  0
 12 15  2  0  0  0  0
 13 15  2  0  0  0  0
 15 16  1  0  0  0  0
  4 17  1  0  0  0  0
  4 18  1  0  0  0  0
  5 19  1  0  0  0  0
  5 20  1  0  0  0  0
  6 21  1  0  0  0  0
  6 22  1  0  0  0  0
  7 23  1  0  0  0  0
  7 24  1  0  0  0  0
  8 25  1  0  0  0  0
  9 26  1  0  0  0  0
 10 27  1  0  0  0  0
 10 28  1  0  0  0  0
M  END
> <id>
EN300-1117321

> <smiles>
ClS(=O)(=O)CC1=NOC=2C3CCC(CC3)C12

> <IUPAC Name>
{3-oxa-4-azatricyclo[5.2.2.0,2,6]undeca-2(6),4-dien-5-yl}methanesulfonyl chloride

> <CAS>
2138369-71-6

> <URL>
https://www.enaminestore.com/catalog/EN300-1117321

> <ROCS_ShapeQuery>
x0812_0A_x1140_0A_x1097_0A_x0365_0A_x1097_0A_x0310_0A

> <ROCS_TanimotoCombo>
0.710 

> <ROCS_ShapeTanimoto>
0.219 

> <ROCS_ColorTanimoto>
0.491 

> <ROCS_RefTversky>
0.201 

> <ROCS_RefColorTversky>
0.518 

> <ROCS_RefTverskyCombo>
0.719 

> <ROCS_FitTversky>
1.698 

> <ROCS_FitColorTversky>
0.904 

> <ROCS_FitTverskyCombo>
2.602 

> <ROCS_ColorScore>
-7.658

> <ROCS_Overlap>
2032.484

> <ROCS_Rank>
232                 

$$$$
untitled-dbase-572229_2
  -OEChem-02092408543D

 35 36  0     0  0  0  0  0  0999 V2000
   10.7171   12.2096   21.9349 C   0  0  0  0  0  0  0  0  0  0  0  0
    8.5766   11.8547   25.1455 C   0  0  0  0  0  0  0  0  0  0  0  0
    7.6576   11.7642   23.2688 C   0  0  0  0  0  0  0  0  0  0  0  0
    9.3831   10.0423   23.6705 C   0  0  0  0  0  0  0  0  0  0  0  0
    9.1248   11.5359   23.7269 C   0  0  0  0  0  0  0  0  0  0  0  0
    7.4811   10.8601   24.5643 C   0  0  0  0  0  0  0  0  0  0  0  0
   11.2865   13.2421   19.3350 C   0  0  0  0  0  0  0  0  0  0  0  0
   13.3175   14.2745   20.3927 C   0  0  0  0  0  0  0  0  0  0  0  0
   13.0613   11.7763   20.3530 C   0  0  0  0  0  0  0  0  0  0  0  0
    6.1486   10.6883   25.2258 C   0  0  0  0  0  0  0  0  0  0  0  0
   12.3272   13.1132   20.4464 C   0  0  0  0  0  0  0  0  0  0  0  0
   10.1485   12.3867   23.1828 N   0  0  0  0  0  0  0  0  0  0  0  0
   10.4296   11.3200   21.1408 O   0  0  0  0  0  0  0  0  0  0  0  0
    8.1605    9.5932   24.2922 O   0  0  0  0  0  0  0  0  0  0  0  0
    6.3324   10.2093   26.5553 O   0  0  0  0  0  0  0  0  0  0  0  0
   11.6554   13.1772   21.7094 O   0  0  0  0  0  0  0  0  0  0  0  0
    9.1606   11.4758   25.9890 H   0  0  0  0  0  0  0  0  0  0  0  0
    8.2603   12.8831   25.3506 H   0  0  0  0  0  0  0  0  0  0  0  0
    7.2625   12.7848   23.3134 H   0  0  0  0  0  0  0  0  0  0  0  0
    7.3659   11.2988   22.3230 H   0  0  0  0  0  0  0  0  0  0  0  0
    9.4439    9.6472   22.6526 H   0  0  0  0  0  0  0  0  0  0  0  0
   10.2391    9.7232   24.2715 H   0  0  0  0  0  0  0  0  0  0  0  0
   10.5738   12.4104   19.3702 H   0  0  0  0  0  0  0  0  0  0  0  0
   10.7290   14.1813   19.4115 H   0  0  0  0  0  0  0  0  0  0  0  0
   11.7613   13.2009   18.3480 H   0  0  0  0  0  0  0  0  0  0  0  0
   14.0660   14.1861   21.1884 H   0  0  0  0  0  0  0  0  0  0  0  0
   12.8068   15.2307   20.5543 H   0  0  0  0  0  0  0  0  0  0  0  0
   13.8378   14.3176   19.4304 H   0  0  0  0  0  0  0  0  0  0  0  0
   13.8078   11.6836   21.1501 H   0  0  0  0  0  0  0  0  0  0  0  0
   12.3700   10.9306   20.4269 H   0  0  0  0  0  0  0  0  0  0  0  0
   13.6082   11.6974   19.4065 H   0  0  0  0  0  0  0  0  0  0  0  0
    5.5241    9.9622   24.6848 H   0  0  0  0  0  0  0  0  0  0  0  0
    5.6021   11.6413   25.2788 H   0  0  0  0  0  0  0  0  0  0  0  0
   10.4742   13.1668   23.7508 H   0  0  0  0  0  0  0  0  0  0  0  0
    5.4471   10.1146   26.9398 H   0  0  0  0  0  0  0  0  0  0  0  0
  1 12  1  0  0  0  0
  1 13  2  0  0  0  0
  1 16  1  0  0  0  0
  2  5  1  0  0  0  0
  2  6  1  0  0  0  0
  3  5  1  0  0  0  0
  3  6  1  0  0  0  0
  4  5  1  0  0  0  0
  4 14  1  0  0  0  0
  5 12  1  1  0  0  0
  6 10  1  1  0  0  0
  6 14  1  0  0  0  0
  7 11  1  0  0  0  0
  8 11  1  0  0  0  0
  9 11  1  0  0  0  0
 10 15  1  0  0  0  0
 11 16  1  0  0  0  0
  2 17  1  0  0  0  0
  2 18  1  0  0  0  0
  3 19  1  0  0  0  0
  3 20  1  0  0  0  0
  4 21  1  0  0  0  0
  4 22  1  0  0  0  0
  7 23  1  0  0  0  0
  7 24  1  0  0  0  0
  7 25  1  0  0  0  0
  8 26  1  0  0  0  0
  8 27  1  0  0  0  0
  8 28  1  0  0  0  0
  9 29  1  0  0  0  0
  9 30  1  0  0  0  0
  9 31  1  0  0  0  0
 10 32  1  0  0  0  0
 10 33  1  0  0  0  0
 12 34  1  0  0  0  0
 15 35  1  0  0  0  0
M  END
> <id>
EN300-43351233

> <smiles>
CC(C)(C)OC(=O)N[C@]1(C[C@@]2(CO)C1)CO2

> <IUPAC Name>
tert-butyl N-[1-(hydroxymethyl)-2-oxabicyclo[2.1.1]hexan-4-yl]carbamate

> <URL>
https://www.enaminestore.com/catalog/EN300-43351233

> <ROCS_ShapeQuery>
x0812_0A_x1140_0A_x1097_0A_x0365_0A_x1097_0A_x0310_0A

> <ROCS_TanimotoCombo>
0.710 

> <ROCS_ShapeTanimoto>
0.223 

> <ROCS_ColorTanimoto>
0.486 

> <ROCS_RefTversky>
0.204 

> <ROCS_RefColorTversky>
0.608 

> <ROCS_RefTverskyCombo>
0.812 

> <ROCS_FitTversky>
1.719 

> <ROCS_FitColorTversky>
0.708 

> <ROCS_FitTverskyCombo>
2.427 

> <ROCS_ColorScore>
-9.127

> <ROCS_Overlap>
2067.394

> <ROCS_Rank>
233                 

$$$$
untitled-dbase-260525_2
  -OEChem-02092408543D

 25 26  0     1  0  0  0  0  0999 V2000
    8.2392   12.1272   23.0843 C   0  0  0  0  0  0  0  0  0  0  0  0
    7.1123   11.7347   24.0531 C   0  0  0  0  0  0  0  0  0  0  0  0
    9.2272   11.5087   25.1623 C   0  0  0  0  0  0  0  0  0  0  0  0
    9.2230    9.8746   23.4908 C   0  0  0  0  0  0  0  0  0  0  0  0
    9.4593   11.3790   23.6618 C   0  0  1  0  0  0  0  0  0  0  0  0
    7.8565   10.8508   25.0663 C   0  0  1  0  0  0  0  0  0  0  0  0
    7.1300   10.6245   26.3695 C   0  0  0  0  0  0  0  0  0  0  0  0
   10.7910   11.8697   23.1448 C   0  0  0  0  0  0  0  0  0  0  0  0
    5.8689    9.9914   26.1357 N   0  0  0  0  0  0  0  0  0  0  0  0
    8.1322    9.5941   24.3999 O   0  0  0  0  0  0  0  0  0  0  0  0
   10.9045   13.1800   23.4384 F   0  0  0  0  0  0  0  0  0  0  0  0
   10.7985   11.7446   21.8030 F   0  0  0  0  0  0  0  0  0  0  0  0
    8.0136   11.8299   22.0548 H   0  0  0  0  0  0  0  0  0  0  0  0
    8.3883   13.2132   23.1004 H   0  0  0  0  0  0  0  0  0  0  0  0
    6.6833   12.6279   24.5197 H   0  0  0  0  0  0  0  0  0  0  0  0
    6.3212   11.1873   23.5299 H   0  0  0  0  0  0  0  0  0  0  0  0
    9.9455   10.9258   25.7496 H   0  0  0  0  0  0  0  0  0  0  0  0
    9.1986   12.5416   25.5244 H   0  0  0  0  0  0  0  0  0  0  0  0
    8.9325    9.5893   22.4753 H   0  0  0  0  0  0  0  0  0  0  0  0
   10.0838    9.2734   23.8021 H   0  0  0  0  0  0  0  0  0  0  0  0
    7.7547    9.9863   27.0016 H   0  0  0  0  0  0  0  0  0  0  0  0
    6.9749   11.5970   26.8464 H   0  0  0  0  0  0  0  0  0  0  0  0
   11.6102   11.3121   23.5810 H   0  0  0  0  0  0  0  0  0  0  0  0
    5.1277   10.5696   26.4836 H   0  0  0  0  0  0  0  0  0  0  0  0
    5.7379    9.8470   25.1525 H   0  0  0  0  0  0  0  0  0  0  0  0
  1  2  1  0  0  0  0
  1  5  1  0  0  0  0
  2  6  1  0  0  0  0
  3  5  1  0  0  0  0
  3  6  1  0  0  0  0
  4  5  1  0  0  0  0
  4 10  1  0  0  0  0
  5  8  1  0  0  0  0
  6  7  1  0  0  0  0
  6 10  1  0  0  0  0
  7  9  1  0  0  0  0
  8 11  1  0  0  0  0
  8 12  1  0  0  0  0
  1 13  1  0  0  0  0
  1 14  1  0  0  0  0
  2 15  1  0  0  0  0
  2 16  1  0  0  0  0
  3 17  1  0  0  0  0
  3 18  1  0  0  0  0
  4 19  1  0  0  0  0
  4 20  1  0  0  0  0
  7 21  1  0  0  0  0
  7 22  1  0  0  0  0
  8 23  1  0  0  0  0
  9 24  1  0  0  0  0
  9 25  1  0  0  0  0
M  END
> <id>
EN300-27699440

> <smiles>
NCC1(CCC2(CO1)C(F)F)C2

> <MDLNUMBER>
MFCD32878853

> <IUPAC Name>
1-[4-(difluoromethyl)-2-oxabicyclo[2.2.1]heptan-1-yl]methanamine

> <CAS>
2567498-62-6

> <URL>
https://www.enaminestore.com/catalog/EN300-27699440

> <ROCS_ShapeQuery>
x0812_0A_x1140_0A_x1097_0A_x0365_0A_x1097_0A_x0310_0A

> <ROCS_TanimotoCombo>
0.709 

> <ROCS_ShapeTanimoto>
0.232 

> <ROCS_ColorTanimoto>
0.477 

> <ROCS_RefTversky>
0.208 

> <ROCS_RefColorTversky>
0.533 

> <ROCS_RefTverskyCombo>
0.741 

> <ROCS_FitTversky>
2.016 

> <ROCS_FitColorTversky>
0.819 

> <ROCS_FitTverskyCombo>
2.835 

> <ROCS_ColorScore>
-7.922

> <ROCS_Overlap>
2101.722

> <ROCS_Rank>
234                 

$$$$
untitled-dbase-260524_2
  -OEChem-02092408543D

 25 26  0     1  0  0  0  0  0999 V2000
    8.2392   12.1272   23.0843 C   0  0  0  0  0  0  0  0  0  0  0  0
    7.1123   11.7347   24.0531 C   0  0  0  0  0  0  0  0  0  0  0  0
    9.2272   11.5087   25.1623 C   0  0  0  0  0  0  0  0  0  0  0  0
    9.2230    9.8746   23.4908 C   0  0  0  0  0  0  0  0  0  0  0  0
    9.4593   11.3790   23.6618 C   0  0  1  0  0  0  0  0  0  0  0  0
    7.8565   10.8508   25.0663 C   0  0  1  0  0  0  0  0  0  0  0  0
    7.1300   10.6245   26.3695 C   0  0  0  0  0  0  0  0  0  0  0  0
   10.7910   11.8697   23.1448 C   0  0  0  0  0  0  0  0  0  0  0  0
    5.8689    9.9914   26.1357 N   0  0  0  0  0  0  0  0  0  0  0  0
    8.1322    9.5941   24.3999 O   0  0  0  0  0  0  0  0  0  0  0  0
   10.9045   13.1800   23.4384 F   0  0  0  0  0  0  0  0  0  0  0  0
   10.7985   11.7446   21.8030 F   0  0  0  0  0  0  0  0  0  0  0  0
    8.0136   11.8299   22.0548 H   0  0  0  0  0  0  0  0  0  0  0  0
    8.3883   13.2132   23.1004 H   0  0  0  0  0  0  0  0  0  0  0  0
    6.6833   12.6279   24.5197 H   0  0  0  0  0  0  0  0  0  0  0  0
    6.3212   11.1873   23.5299 H   0  0  0  0  0  0  0  0  0  0  0  0
    9.9455   10.9258   25.7496 H   0  0  0  0  0  0  0  0  0  0  0  0
    9.1986   12.5416   25.5244 H   0  0  0  0  0  0  0  0  0  0  0  0
    8.9325    9.5893   22.4753 H   0  0  0  0  0  0  0  0  0  0  0  0
   10.0838    9.2734   23.8021 H   0  0  0  0  0  0  0  0  0  0  0  0
    7.7547    9.9863   27.0016 H   0  0  0  0  0  0  0  0  0  0  0  0
    6.9749   11.5970   26.8464 H   0  0  0  0  0  0  0  0  0  0  0  0
   11.6102   11.3121   23.5810 H   0  0  0  0  0  0  0  0  0  0  0  0
    5.1277   10.5696   26.4836 H   0  0  0  0  0  0  0  0  0  0  0  0
    5.7379    9.8470   25.1525 H   0  0  0  0  0  0  0  0  0  0  0  0
  1  2  1  0  0  0  0
  1  5  1  0  0  0  0
  2  6  1  0  0  0  0
  3  5  1  0  0  0  0
  3  6  1  0  0  0  0
  4  5  1  0  0  0  0
  4 10  1  0  0  0  0
  5  8  1  0  0  0  0
  6  7  1  0  0  0  0
  6 10  1  0  0  0  0
  7  9  1  0  0  0  0
  8 11  1  0  0  0  0
  8 12  1  0  0  0  0
  1 13  1  0  0  0  0
  1 14  1  0  0  0  0
  2 15  1  0  0  0  0
  2 16  1  0  0  0  0
  3 17  1  0  0  0  0
  3 18  1  0  0  0  0
  4 19  1  0  0  0  0
  4 20  1  0  0  0  0
  7 21  1  0  0  0  0
  7 22  1  0  0  0  0
  8 23  1  0  0  0  0
  9 24  1  0  0  0  0
  9 25  1  0  0  0  0
M  END
> <id>
EN300-27699439

> <smiles>
Cl.NCC1(CCC2(CO1)C(F)F)C2

> <MDLNUMBER>
MFCD32878852

> <IUPAC Name>
1-[4-(difluoromethyl)-2-oxabicyclo[2.2.1]heptan-1-yl]methanamine hydrochloride

> <CAS>
2567504-66-7

> <Purity>
95

> <URL>
https://www.enaminestore.com/catalog/EN300-27699439

> <ROCS_ShapeQuery>
x0812_0A_x1140_0A_x1097_0A_x0365_0A_x1097_0A_x0310_0A

> <ROCS_TanimotoCombo>
0.709 

> <ROCS_ShapeTanimoto>
0.232 

> <ROCS_ColorTanimoto>
0.477 

> <ROCS_RefTversky>
0.208 

> <ROCS_RefColorTversky>
0.533 

> <ROCS_RefTverskyCombo>
0.741 

> <ROCS_FitTversky>
2.016 

> <ROCS_FitColorTversky>
0.819 

> <ROCS_FitTverskyCombo>
2.835 

> <ROCS_ColorScore>
-7.922

> <ROCS_Overlap>
2101.722

> <ROCS_Rank>
235                 

$$$$
untitled-dbase-399177_0
  -OEChem-02092408543D

 37 38  0     1  0  0  0  0  0999 V2000
   10.2677   11.5125   22.3558 C   0  0  0  0  0  0  0  0  0  0  0  0
    9.3610   12.1748   24.6369 C   0  0  0  0  0  0  0  0  0  0  0  0
    8.0419   11.8679   25.3657 C   0  0  0  0  0  0  0  0  0  0  0  0
    7.8540   11.1970   23.0741 C   0  0  0  0  0  0  0  0  0  0  0  0
    9.4458    9.7669   24.0127 C   0  0  0  0  0  0  0  0  0  0  0  0
    9.3256   11.1860   23.4623 C   0  0  1  0  0  0  0  0  0  0  0  0
    7.4268   10.7764   24.4717 C   0  0  2  0  0  0  0  0  0  0  0  0
   12.2908   13.2106   21.2975 C   0  0  0  0  0  0  0  0  0  0  0  0
   13.9050   11.7837   22.5888 C   0  0  0  0  0  0  0  0  0  0  0  0
   12.5125   10.7605   20.7661 C   0  0  0  0  0  0  0  0  0  0  0  0
    5.9511   10.5394   24.6793 C   0  0  0  0  0  0  0  0  0  0  0  0
   12.5594   11.8186   21.8675 C   0  0  0  0  0  0  0  0  0  0  0  0
    5.6943   10.1327   26.0264 N   0  0  0  0  0  0  0  0  0  0  0  0
    9.9206   11.7370   21.2041 O   0  0  0  0  0  0  0  0  0  0  0  0
    8.1859    9.5618   24.6961 O   0  0  0  0  0  0  0  0  0  0  0  0
   11.5454   11.5179   22.8316 O   0  0  0  0  0  0  0  0  0  0  0  0
    9.3784   13.2152   24.2912 H   0  0  0  0  0  0  0  0  0  0  0  0
   10.2305   12.0249   25.2863 H   0  0  0  0  0  0  0  0  0  0  0  0
    8.2331   11.5081   26.3820 H   0  0  0  0  0  0  0  0  0  0  0  0
    7.4160   12.7657   25.4133 H   0  0  0  0  0  0  0  0  0  0  0  0
    7.4778   12.1787   22.7669 H   0  0  0  0  0  0  0  0  0  0  0  0
    7.6185   10.4556   22.3019 H   0  0  0  0  0  0  0  0  0  0  0  0
    9.5386    9.0111   23.2253 H   0  0  0  0  0  0  0  0  0  0  0  0
   10.2688    9.6403   24.7229 H   0  0  0  0  0  0  0  0  0  0  0  0
   11.3258   13.2399   20.7789 H   0  0  0  0  0  0  0  0  0  0  0  0
   12.2871   13.9741   22.0823 H   0  0  0  0  0  0  0  0  0  0  0  0
   13.0494   13.4819   20.5544 H   0  0  0  0  0  0  0  0  0  0  0  0
   14.1018   10.7867   22.9994 H   0  0  0  0  0  0  0  0  0  0  0  0
   13.9097   12.4744   23.4398 H   0  0  0  0  0  0  0  0  0  0  0  0
   14.7290   12.0520   21.9199 H   0  0  0  0  0  0  0  0  0  0  0  0
   12.7051    9.7619   21.1747 H   0  0  0  0  0  0  0  0  0  0  0  0
   11.5408   10.7460   20.2618 H   0  0  0  0  0  0  0  0  0  0  0  0
   13.2911   10.9434   20.0167 H   0  0  0  0  0  0  0  0  0  0  0  0
    5.4225   11.4734   24.4660 H   0  0  0  0  0  0  0  0  0  0  0  0
    5.6311    9.7548   23.9869 H   0  0  0  0  0  0  0  0  0  0  0  0
    5.2566    9.2310   26.0324 H   0  0  0  0  0  0  0  0  0  0  0  0
    6.5557   10.0824   26.5364 H   0  0  0  0  0  0  0  0  0  0  0  0
  1  6  1  0  0  0  0
  1 14  2  0  0  0  0
  1 16  1  0  0  0  0
  2  3  1  0  0  0  0
  2  6  1  0  0  0  0
  3  7  1  0  0  0  0
  4  6  1  0  0  0  0
  4  7  1  0  0  0  0
  5  6  1  0  0  0  0
  5 15  1  0  0  0  0
  7 11  1  0  0  0  0
  7 15  1  0  0  0  0
  8 12  1  0  0  0  0
  9 12  1  0  0  0  0
 10 12  1  0  0  0  0
 11 13  1  0  0  0  0
 12 16  1  0  0  0  0
  2 17  1  0  0  0  0
  2 18  1  0  0  0  0
  3 19  1  0  0  0  0
  3 20  1  0  0  0  0
  4 21  1  0  0  0  0
  4 22  1  0  0  0  0
  5 23  1  0  0  0  0
  5 24  1  0  0  0  0
  8 25  1  0  0  0  0
  8 26  1  0  0  0  0
  8 27  1  0  0  0  0
  9 28  1  0  0  0  0
  9 29  1  0  0  0  0
  9 30  1  0  0  0  0
 10 31  1  0  0  0  0
 10 32  1  0  0  0  0
 10 33  1  0  0  0  0
 11 34  1  0  0  0  0
 11 35  1  0  0  0  0
 13 36  1  0  0  0  0
 13 37  1  0  0  0  0
M  END
> <id>
EN300-6747265

> <smiles>
CC(C)(C)OC(=O)C1(CCC2(CN)C1)CO2

> <IUPAC Name>
tert-butyl 1-(aminomethyl)-2-oxabicyclo[2.2.1]heptane-4-carboxylate

> <CAS>
2287283-79-6

> <URL>
https://www.enaminestore.com/catalog/EN300-6747265

> <ROCS_ShapeQuery>
x0812_0A_x1140_0A_x1097_0A_x0365_0A_x1097_0A_x0310_0A

> <ROCS_TanimotoCombo>
0.709 

> <ROCS_ShapeTanimoto>
0.227 

> <ROCS_ColorTanimoto>
0.482 

> <ROCS_RefTversky>
0.207 

> <ROCS_RefColorTversky>
0.577 

> <ROCS_RefTverskyCombo>
0.784 

> <ROCS_FitTversky>
1.733 

> <ROCS_FitColorTversky>
0.746 

> <ROCS_FitTverskyCombo>
2.479 

> <ROCS_ColorScore>
-8.631

> <ROCS_Overlap>
2095.408

> <ROCS_Rank>
236                 

$$$$
untitled-dbase-489293_5
  -OEChem-02092408543D

 38 39  0     1  0  0  0  0  0999 V2000
   10.3922   11.9281   22.5192 C   0  0  0  0  0  0  0  0  0  0  0  0
    7.5286   10.8100   23.2355 C   0  0  0  0  0  0  0  0  0  0  0  0
    9.7207   11.5914   23.8198 C   0  0  1  0  0  0  0  0  0  0  0  0
    8.2418   12.0436   23.8061 C   0  0  2  0  0  0  0  0  0  0  0  0
    8.0946    9.8717   24.3046 C   0  0  1  0  0  0  0  0  0  0  0  0
    9.6220   10.0759   24.1429 C   0  0  1  0  0  0  0  0  0  0  0  0
    7.7345   12.0626   25.2646 C   0  0  2  0  0  0  0  0  0  0  0  0
    7.6236   10.5622   25.6066 C   0  0  1  0  0  0  0  0  0  0  0  0
    9.9424   14.4366   21.9752 C   0  0  0  0  0  0  0  0  0  0  0  0
   12.1589   15.0115   23.0076 C   0  0  0  0  0  0  0  0  0  0  0  0
   12.0778   13.9148   20.7495 C   0  0  0  0  0  0  0  0  0  0  0  0
   11.4067   14.0241   22.1179 C   0  0  0  0  0  0  0  0  0  0  0  0
   10.1825    9.2005   23.1169 N   0  0  0  0  0  0  0  0  0  0  0  0
   10.0178   11.5185   21.4286 O   0  0  0  0  0  0  0  0  0  0  0  0
    6.4817   12.7266   25.3205 O   0  0  0  0  0  0  0  0  0  0  0  0
    6.2923   10.1668   25.8982 O   0  0  0  0  0  0  0  0  0  0  0  0
   11.4592   12.7436   22.7547 O   0  0  0  0  0  0  0  0  0  0  0  0
    6.4370   10.8921   23.2664 H   0  0  0  0  0  0  0  0  0  0  0  0
    7.8346   10.5586   22.2160 H   0  0  0  0  0  0  0  0  0  0  0  0
   10.2924   12.1086   24.5999 H   0  0  0  0  0  0  0  0  0  0  0  0
    8.0403   12.9624   23.2490 H   0  0  0  0  0  0  0  0  0  0  0  0
    7.7557    8.8360   24.2155 H   0  0  0  0  0  0  0  0  0  0  0  0
   10.1378    9.8602   25.0858 H   0  0  0  0  0  0  0  0  0  0  0  0
    8.4348   12.5852   25.9248 H   0  0  0  0  0  0  0  0  0  0  0  0
    8.2623   10.2867   26.4523 H   0  0  0  0  0  0  0  0  0  0  0  0
    9.3990   13.7303   21.3373 H   0  0  0  0  0  0  0  0  0  0  0  0
    9.4403   14.4846   22.9470 H   0  0  0  0  0  0  0  0  0  0  0  0
    9.8575   15.4171   21.4930 H   0  0  0  0  0  0  0  0  0  0  0  0
   13.2100   14.7195   23.1127 H   0  0  0  0  0  0  0  0  0  0  0  0
   11.7390   15.0229   24.0199 H   0  0  0  0  0  0  0  0  0  0  0  0
   12.1203   16.0288   22.6047 H   0  0  0  0  0  0  0  0  0  0  0  0
   13.1281   13.6190   20.8516 H   0  0  0  0  0  0  0  0  0  0  0  0
   11.5732   13.1832   20.1102 H   0  0  0  0  0  0  0  0  0  0  0  0
   12.0778   14.8837   20.2370 H   0  0  0  0  0  0  0  0  0  0  0  0
    9.4500    8.6364   22.7560 H   0  0  0  0  0  0  0  0  0  0  0  0
   10.5716    9.7695   22.4028 H   0  0  0  0  0  0  0  0  0  0  0  0
    6.6263   13.6304   24.9945 H   0  0  0  0  0  0  0  0  0  0  0  0
    6.3015    9.2013   26.0052 H   0  0  0  0  0  0  0  0  0  0  0  0
  1  3  1  1  0  0  0
  1 14  2  0  0  0  0
  1 17  1  0  0  0  0
  2  4  1  1  0  0  0
  2  5  1  1  0  0  0
  3  4  1  0  0  0  0
  3  6  1  0  0  0  0
  4  7  1  0  0  0  0
  5  6  1  0  0  0  0
  5  8  1  0  0  0  0
  6 13  1  1  0  0  0
  7  8  1  0  0  0  0
  7 15  1  1  0  0  0
  8 16  1  1  0  0  0
  9 12  1  0  0  0  0
 10 12  1  0  0  0  0
 11 12  1  0  0  0  0
 12 17  1  0  0  0  0
  2 18  1  0  0  0  0
  2 19  1  0  0  0  0
  3 20  1  0  0  0  0
  4 21  1  0  0  0  0
  5 22  1  0  0  0  0
  6 23  1  0  0  0  0
  7 24  1  0  0  0  0
  8 25  1  0  0  0  0
  9 26  1  0  0  0  0
  9 27  1  0  0  0  0
  9 28  1  0  0  0  0
 10 29  1  0  0  0  0
 10 30  1  0  0  0  0
 10 31  1  0  0  0  0
 11 32  1  0  0  0  0
 11 33  1  0  0  0  0
 11 34  1  0  0  0  0
 13 35  1  0  0  0  0
 13 36  1  0  0  0  0
 15 37  1  0  0  0  0
 16 38  1  0  0  0  0
M  END
> <id>
EN300-27730074

> <smiles>
CC(C)(C)OC(=O)[C@@H]1[C@H](N)[C@@H]2C[C@H]1[C@@H](O)[C@H]2O |&1:7,8,10,12,13,15,r|

> <IUPAC Name>
rac-tert-butyl (1R,2S,3R,4S,5S,6R)-3-amino-5,6-dihydroxybicyclo[2.2.1]heptane-2-carboxylate

> <CAS>
2639389-01-6

> <URL>
https://www.enaminestore.com/catalog/EN300-27730074

> <ROCS_ShapeQuery>
x0812_0A_x1140_0A_x1097_0A_x0365_0A_x1097_0A_x0310_0A

> <ROCS_TanimotoCombo>
0.709 

> <ROCS_ShapeTanimoto>
0.281 

> <ROCS_ColorTanimoto>
0.428 

> <ROCS_RefTversky>
0.247 

> <ROCS_RefColorTversky>
0.585 

> <ROCS_RefTverskyCombo>
0.831 

> <ROCS_FitTversky>
2.004 

> <ROCS_FitColorTversky>
0.615 

> <ROCS_FitTverskyCombo>
2.619 

> <ROCS_ColorScore>
-8.828

> <ROCS_Overlap>
2494.711

> <ROCS_Rank>
237                 

$$$$
untitled-dbase-247156_2
  -OEChem-02092408543D

 35 36  0     0  0  0  0  0  0999 V2000
   10.7306   12.2294   21.9395 C   0  0  0  0  0  0  0  0  0  0  0  0
    8.5543   11.8487   25.1383 C   0  0  0  0  0  0  0  0  0  0  0  0
    7.6531   11.7351   23.2550 C   0  0  0  0  0  0  0  0  0  0  0  0
    9.3858   10.0406   23.6887 C   0  0  0  0  0  0  0  0  0  0  0  0
    9.1294   11.5487   23.7210 C   0  0  0  0  0  0  0  0  0  0  0  0
    7.4750   10.8481   24.5543 C   0  0  0  0  0  0  0  0  0  0  0  0
   11.3125   13.2635   19.3430 C   0  0  0  0  0  0  0  0  0  0  0  0
   13.3311   14.3064   20.4138 C   0  0  0  0  0  0  0  0  0  0  0  0
   13.0875   11.8069   20.3738 C   0  0  0  0  0  0  0  0  0  0  0  0
    6.1372   10.6725   25.2048 C   0  0  0  0  0  0  0  0  0  0  0  0
   12.3463   13.1402   20.4614 C   0  0  0  0  0  0  0  0  0  0  0  0
   10.1498   12.4021   23.1848 N   0  0  0  0  0  0  0  0  0  0  0  0
   10.4529   11.3380   21.1439 O   0  0  0  0  0  0  0  0  0  0  0  0
    8.1630    9.5868   24.3008 O   0  0  0  0  0  0  0  0  0  0  0  0
    6.3118   10.2026   26.5386 O   0  0  0  0  0  0  0  0  0  0  0  0
   11.6655   13.2015   21.7198 O   0  0  0  0  0  0  0  0  0  0  0  0
    9.1366   11.4780   25.9869 H   0  0  0  0  0  0  0  0  0  0  0  0
    8.2252   12.8736   25.3422 H   0  0  0  0  0  0  0  0  0  0  0  0
    7.2398   12.7494   23.2834 H   0  0  0  0  0  0  0  0  0  0  0  0
    7.3781   11.2562   22.3108 H   0  0  0  0  0  0  0  0  0  0  0  0
    9.4618    9.6383   22.6745 H   0  0  0  0  0  0  0  0  0  0  0  0
   10.2397    9.7354   24.3000 H   0  0  0  0  0  0  0  0  0  0  0  0
   10.6037   12.4282   19.3737 H   0  0  0  0  0  0  0  0  0  0  0  0
   10.7498   14.1999   19.4151 H   0  0  0  0  0  0  0  0  0  0  0  0
   11.7942   13.2241   18.3592 H   0  0  0  0  0  0  0  0  0  0  0  0
   14.0747   14.2220   21.2146 H   0  0  0  0  0  0  0  0  0  0  0  0
   12.8147   15.2601   20.5714 H   0  0  0  0  0  0  0  0  0  0  0  0
   13.8578   14.3515   19.4551 H   0  0  0  0  0  0  0  0  0  0  0  0
   13.8291   11.7183   21.1759 H   0  0  0  0  0  0  0  0  0  0  0  0
   12.3999   10.9578   20.4434 H   0  0  0  0  0  0  0  0  0  0  0  0
   13.6412   11.7302   19.4310 H   0  0  0  0  0  0  0  0  0  0  0  0
    5.5220    9.9398   24.6623 H   0  0  0  0  0  0  0  0  0  0  0  0
    5.5853   11.6228   25.2470 H   0  0  0  0  0  0  0  0  0  0  0  0
   10.4677   13.1852   23.7564 H   0  0  0  0  0  0  0  0  0  0  0  0
    5.4237   10.1050   26.9159 H   0  0  0  0  0  0  0  0  0  0  0  0
  1 12  1  0  0  0  0
  1 13  2  0  0  0  0
  1 16  1  0  0  0  0
  2  5  1  0  0  0  0
  2  6  1  0  0  0  0
  3  5  1  0  0  0  0
  3  6  1  0  0  0  0
  4  5  1  0  0  0  0
  4 14  1  0  0  0  0
  5 12  1  0  0  0  0
  6 10  1  0  0  0  0
  6 14  1  0  0  0  0
  7 11  1  0  0  0  0
  8 11  1  0  0  0  0
  9 11  1  0  0  0  0
 10 15  1  0  0  0  0
 11 16  1  0  0  0  0
  2 17  1  0  0  0  0
  2 18  1  0  0  0  0
  3 19  1  0  0  0  0
  3 20  1  0  0  0  0
  4 21  1  0  0  0  0
  4 22  1  0  0  0  0
  7 23  1  0  0  0  0
  7 24  1  0  0  0  0
  7 25  1  0  0  0  0
  8 26  1  0  0  0  0
  8 27  1  0  0  0  0
  8 28  1  0  0  0  0
  9 29  1  0  0  0  0
  9 30  1  0  0  0  0
  9 31  1  0  0  0  0
 10 32  1  0  0  0  0
 10 33  1  0  0  0  0
 12 34  1  0  0  0  0
 15 35  1  0  0  0  0
M  END
> <id>
EN300-7010838

> <smiles>
CC(C)(C)OC(=O)NC1(CC2(CO)C1)CO2

> <MDLNUMBER>
MFCD31705633

> <IUPAC Name>
tert-butyl N-[1-(hydroxymethyl)-2-oxabicyclo[2.1.1]hexan-4-yl]carbamate

> <CAS>
2170372-32-2

> <Purity>
95

> <URL>
https://www.enaminestore.com/catalog/EN300-7010838

> <ROCS_ShapeQuery>
x0812_0A_x1140_0A_x1097_0A_x0365_0A_x1097_0A_x0310_0A

> <ROCS_TanimotoCombo>
0.709 

> <ROCS_ShapeTanimoto>
0.223 

> <ROCS_ColorTanimoto>
0.486 

> <ROCS_RefTversky>
0.204 

> <ROCS_RefColorTversky>
0.608 

> <ROCS_RefTverskyCombo>
0.812 

> <ROCS_FitTversky>
1.717 

> <ROCS_FitColorTversky>
0.708 

> <ROCS_FitTverskyCombo>
2.425 

> <ROCS_ColorScore>
-9.131

> <ROCS_Overlap>
2064.084

> <ROCS_Rank>
238                 

$$$$
untitled-dbase-477842_9
  -OEChem-02092408543D

 28 29  0     0  0  0  0  0  0999 V2000
    9.4921   12.0674   22.1955 C   0  0  0  0  0  0  0  0  0  0  0  0
    8.9486   12.0297   24.8224 C   0  0  0  0  0  0  0  0  0  0  0  0
    7.3674   11.3230   23.6549 C   0  0  0  0  0  0  0  0  0  0  0  0
    8.6895    9.5874   24.7831 C   0  0  0  0  0  0  0  0  0  0  0  0
    8.9242   11.3412   23.4039 C   0  0  0  0  0  0  0  0  0  0  0  0
    7.9010   10.8839   25.0665 C   0  0  0  0  0  0  0  0  0  0  0  0
    9.6088   15.6801   21.6262 C   0  0  0  0  0  0  0  0  0  0  0  0
    7.0104   10.8874   26.2720 C   0  0  0  0  0  0  0  0  0  0  0  0
    9.8429   14.2224   21.2916 C   0  0  0  0  0  0  0  0  0  0  0  0
    5.8619   10.0553   26.0606 N   0  0  0  0  0  0  0  0  0  0  0  0
    9.9976   11.5053   21.2334 O   0  0  0  0  0  0  0  0  0  0  0  0
    9.3943    9.9776   23.5925 O   0  0  0  0  0  0  0  0  0  0  0  0
    9.3467   13.4128   22.3624 O   0  0  0  0  0  0  0  0  0  0  0  0
    9.8864   11.9467   25.3798 H   0  0  0  0  0  0  0  0  0  0  0  0
    8.5820   13.0605   24.8822 H   0  0  0  0  0  0  0  0  0  0  0  0
    6.8420   12.2829   23.5975 H   0  0  0  0  0  0  0  0  0  0  0  0
    6.8007   10.5681   23.1017 H   0  0  0  0  0  0  0  0  0  0  0  0
    9.4048    9.3455   25.5744 H   0  0  0  0  0  0  0  0  0  0  0  0
    8.0394    8.7350   24.5664 H   0  0  0  0  0  0  0  0  0  0  0  0
    8.5421   15.8848   21.7531 H   0  0  0  0  0  0  0  0  0  0  0  0
   10.1333   15.9538   22.5475 H   0  0  0  0  0  0  0  0  0  0  0  0
   10.0005   16.3257   20.8331 H   0  0  0  0  0  0  0  0  0  0  0  0
    7.5805   10.5107   27.1307 H   0  0  0  0  0  0  0  0  0  0  0  0
    6.6840   11.9174   26.4643 H   0  0  0  0  0  0  0  0  0  0  0  0
   10.9116   14.0243   21.1660 H   0  0  0  0  0  0  0  0  0  0  0  0
    9.3175   13.9504   20.3713 H   0  0  0  0  0  0  0  0  0  0  0  0
    5.0285   10.6038   26.1428 H   0  0  0  0  0  0  0  0  0  0  0  0
    5.9029    9.6513   25.1456 H   0  0  0  0  0  0  0  0  0  0  0  0
  1  5  1  0  0  0  0
  1 11  2  0  0  0  0
  1 13  1  0  0  0  0
  2  5  1  0  0  0  0
  2  6  1  0  0  0  0
  3  5  1  0  0  0  0
  3  6  1  0  0  0  0
  4  6  1  0  0  0  0
  4 12  1  0  0  0  0
  5 12  1  0  0  0  0
  6  8  1  0  0  0  0
  7  9  1  0  0  0  0
  8 10  1  0  0  0  0
  9 13  1  0  0  0  0
  2 14  1  0  0  0  0
  2 15  1  0  0  0  0
  3 16  1  0  0  0  0
  3 17  1  0  0  0  0
  4 18  1  0  0  0  0
  4 19  1  0  0  0  0
  7 20  1  0  0  0  0
  7 21  1  0  0  0  0
  7 22  1  0  0  0  0
  8 23  1  0  0  0  0
  8 24  1  0  0  0  0
  9 25  1  0  0  0  0
  9 26  1  0  0  0  0
 10 27  1  0  0  0  0
 10 28  1  0  0  0  0
M  END
> <id>
EN300-27727397

> <smiles>
CCOC(=O)C1(CC2(CN)C1)OC2

> <IUPAC Name>
ethyl 4-(aminomethyl)-2-oxabicyclo[2.1.1]hexane-1-carboxylate

> <CAS>
2580202-93-1

> <URL>
https://www.enaminestore.com/catalog/EN300-27727397

> <ROCS_ShapeQuery>
x0812_0A_x1140_0A_x1097_0A_x0365_0A_x1097_0A_x0310_0A

> <ROCS_TanimotoCombo>
0.709 

> <ROCS_ShapeTanimoto>
0.214 

> <ROCS_ColorTanimoto>
0.495 

> <ROCS_RefTversky>
0.195 

> <ROCS_RefColorTversky>
0.575 

> <ROCS_RefTverskyCombo>
0.770 

> <ROCS_FitTversky>
1.845 

> <ROCS_FitColorTversky>
0.780 

> <ROCS_FitTverskyCombo>
2.625 

> <ROCS_ColorScore>
-8.580

> <ROCS_Overlap>
1973.188

> <ROCS_Rank>
239                 

$$$$
untitled-dbase-396393_5
  -OEChem-02092408543D

 36 37  0     0  0  0  0  0  0999 V2000
   11.8700   14.8207   21.3828 B   0  0  0  0  0  0  0  0  0  0  0  0
   10.0040   11.7849   22.1818 C   0  0  0  0  0  0  0  0  0  0  0  0
    8.1006   10.3181   22.8154 C   0  0  0  0  0  0  0  0  0  0  0  0
    9.9591   10.7161   24.4396 C   0  0  0  0  0  0  0  0  0  0  0  0
    8.3580   12.5587   23.8944 C   0  0  0  0  0  0  0  0  0  0  0  0
    7.1889    9.8682   23.9657 C   0  0  0  0  0  0  0  0  0  0  0  0
    9.0515   10.2658   25.5927 C   0  0  0  0  0  0  0  0  0  0  0  0
    7.4500   12.1118   25.0486 C   0  0  0  0  0  0  0  0  0  0  0  0
    9.1217   11.3538   23.3170 C   0  0  0  0  0  0  0  0  0  0  0  0
    7.5726   10.5882   25.2791 C   0  0  0  0  0  0  0  0  0  0  0  0
   11.9387   13.2558   21.6518 C   0  0  0  0  0  0  0  0  0  0  0  0
    6.6662   10.1401   26.4263 C   0  0  0  0  0  0  0  0  0  0  0  0
   10.9590   12.7079   22.5794 N   0  0  0  0  0  0  0  0  0  0  0  0
    9.8728   11.3350   21.0465 O   0  0  0  0  0  0  0  0  0  0  0  0
   12.0612   15.7084   22.4113 O   0  0  0  0  0  0  0  0  0  0  0  0
   11.6168   15.2619   20.1080 O   0  0  0  0  0  0  0  0  0  0  0  0
    6.7846    8.8175   26.6135 F   0  0  0  0  0  0  0  0  0  0  0  0
    7.0115   10.7732   27.5568 F   0  0  0  0  0  0  0  0  0  0  0  0
    5.3882   10.4269   26.1387 F   0  0  0  0  0  0  0  0  0  0  0  0
    8.6127    9.4468   22.3868 H   0  0  0  0  0  0  0  0  0  0  0  0
    7.4922   10.7370   22.0032 H   0  0  0  0  0  0  0  0  0  0  0  0
   10.7078   11.4267   24.8130 H   0  0  0  0  0  0  0  0  0  0  0  0
   10.5258    9.8563   24.0594 H   0  0  0  0  0  0  0  0  0  0  0  0
    7.7532   13.0431   23.1168 H   0  0  0  0  0  0  0  0  0  0  0  0
    9.0588   13.3253   24.2495 H   0  0  0  0  0  0  0  0  0  0  0  0
    6.1435   10.0767   23.7054 H   0  0  0  0  0  0  0  0  0  0  0  0
    7.2663    8.7805   24.0882 H   0  0  0  0  0  0  0  0  0  0  0  0
    9.1819    9.1893   25.7607 H   0  0  0  0  0  0  0  0  0  0  0  0
    9.3645   10.7633   26.5194 H   0  0  0  0  0  0  0  0  0  0  0  0
    7.7207   12.6601   25.9598 H   0  0  0  0  0  0  0  0  0  0  0  0
    6.4112   12.3830   24.8217 H   0  0  0  0  0  0  0  0  0  0  0  0
   12.9270   12.9839   22.0429 H   0  0  0  0  0  0  0  0  0  0  0  0
   11.8230   12.7057   20.7097 H   0  0  0  0  0  0  0  0  0  0  0  0
   10.9758   13.0120   23.5495 H   0  0  0  0  0  0  0  0  0  0  0  0
   11.9931   16.6302   22.1116 H   0  0  0  0  0  0  0  0  0  0  0  0
   11.5969   16.2322   20.0578 H   0  0  0  0  0  0  0  0  0  0  0  0
  1 11  1  0  0  0  0
  1 15  1  0  0  0  0
  1 16  1  0  0  0  0
  2  9  1  0  0  0  0
  2 13  1  0  0  0  0
  2 14  2  0  0  0  0
  3  6  1  0  0  0  0
  3  9  1  0  0  0  0
  4  7  1  0  0  0  0
  4  9  1  0  0  0  0
  5  8  1  0  0  0  0
  5  9  1  0  0  0  0
  6 10  1  0  0  0  0
  7 10  1  0  0  0  0
  8 10  1  0  0  0  0
 10 12  1  0  0  0  0
 11 13  1  0  0  0  0
 12 17  1  0  0  0  0
 12 18  1  0  0  0  0
 12 19  1  0  0  0  0
  3 20  1  0  0  0  0
  3 21  1  0  0  0  0
  4 22  1  0  0  0  0
  4 23  1  0  0  0  0
  5 24  1  0  0  0  0
  5 25  1  0  0  0  0
  6 26  1  0  0  0  0
  6 27  1  0  0  0  0
  7 28  1  0  0  0  0
  7 29  1  0  0  0  0
  8 30  1  0  0  0  0
  8 31  1  0  0  0  0
 11 32  1  0  0  0  0
 11 33  1  0  0  0  0
 13 34  1  0  0  0  0
 15 35  1  0  0  0  0
 16 36  1  0  0  0  0
M  END
> <id>
EN300-846359

> <smiles>
OB(O)CNC(=O)C1(CCC2(CC1)C(F)(F)F)CC2

> <IUPAC Name>
({[4-(trifluoromethyl)bicyclo[2.2.2]octan-1-yl]formamido}methyl)boronic acid

> <URL>
https://www.enaminestore.com/catalog/EN300-846359

> <ROCS_ShapeQuery>
x0812_0A_x1140_0A_x1097_0A_x0365_0A_x1097_0A_x0310_0A

> <ROCS_TanimotoCombo>
0.709 

> <ROCS_ShapeTanimoto>
0.252 

> <ROCS_ColorTanimoto>
0.457 

> <ROCS_RefTversky>
0.228 

> <ROCS_RefColorTversky>
0.491 

> <ROCS_RefTverskyCombo>
0.719 

> <ROCS_FitTversky>
1.733 

> <ROCS_FitColorTversky>
0.869 

> <ROCS_FitTverskyCombo>
2.602 

> <ROCS_ColorScore>
-7.257

> <ROCS_Overlap>
2304.537

> <ROCS_Rank>
240                 

$$$$
untitled-dbase-565746_0
  -OEChem-02092408543D

 29 30  0     0  0  0  0  0  0999 V2000
    9.7177   12.1178   22.1088 C   0  0  0  0  0  0  0  0  0  0  0  0
    7.6201   12.1995   23.4711 C   0  0  0  0  0  0  0  0  0  0  0  0
    9.8196   11.8192   24.5790 C   0  0  0  0  0  0  0  0  0  0  0  0
    6.8925   11.5349   24.6452 C   0  0  0  0  0  0  0  0  0  0  0  0
    9.1239   11.1493   25.7695 C   0  0  0  0  0  0  0  0  0  0  0  0
    8.8112   10.0401   23.1697 C   0  0  0  0  0  0  0  0  0  0  0  0
    9.0056   11.5569   23.3029 C   0  0  0  0  0  0  0  0  0  0  0  0
    7.8128   10.4895   25.3024 C   0  0  0  0  0  0  0  0  0  0  0  0
    7.1089    9.7873   26.4586 C   0  0  0  0  0  0  0  0  0  0  0  0
   10.5474   14.1303   21.1895 C   0  0  0  0  0  0  0  0  0  0  0  0
   10.0884   11.4474   21.1548 O   0  0  0  0  0  0  0  0  0  0  0  0
    8.1377    9.4931   24.3137 O   0  0  0  0  0  0  0  0  0  0  0  0
    9.8773   13.4630   22.2636 O   0  0  0  0  0  0  0  0  0  0  0  0
    7.0260   12.0914   22.5545 H   0  0  0  0  0  0  0  0  0  0  0  0
    7.7090   13.2790   23.6480 H   0  0  0  0  0  0  0  0  0  0  0  0
    9.9226   12.8966   24.7610 H   0  0  0  0  0  0  0  0  0  0  0  0
   10.8413   11.4312   24.4779 H   0  0  0  0  0  0  0  0  0  0  0  0
    6.5781   12.2948   25.3703 H   0  0  0  0  0  0  0  0  0  0  0  0
    5.9838   11.0511   24.2653 H   0  0  0  0  0  0  0  0  0  0  0  0
    9.7983   10.3917   26.1879 H   0  0  0  0  0  0  0  0  0  0  0  0
    8.9347   11.8877   26.5575 H   0  0  0  0  0  0  0  0  0  0  0  0
    8.2199    9.7898   22.2812 H   0  0  0  0  0  0  0  0  0  0  0  0
    9.7711    9.5204   23.0680 H   0  0  0  0  0  0  0  0  0  0  0  0
    7.7762    9.0530   26.9089 H   0  0  0  0  0  0  0  0  0  0  0  0
    6.2155    9.2795   26.0962 H   0  0  0  0  0  0  0  0  0  0  0  0
    6.8205   10.5160   27.2156 H   0  0  0  0  0  0  0  0  0  0  0  0
   10.6224   15.1974   21.4127 H   0  0  0  0  0  0  0  0  0  0  0  0
    9.9900   13.9796   20.2615 H   0  0  0  0  0  0  0  0  0  0  0  0
   11.5507   13.7115   21.0816 H   0  0  0  0  0  0  0  0  0  0  0  0
  1  7  1  0  0  0  0
  1 11  2  0  0  0  0
  1 13  1  0  0  0  0
  2  4  1  0  0  0  0
  2  7  1  0  0  0  0
  3  5  1  0  0  0  0
  3  7  1  0  0  0  0
  4  8  1  0  0  0  0
  5  8  1  0  0  0  0
  6  7  1  0  0  0  0
  6 12  1  0  0  0  0
  8  9  1  0  0  0  0
  8 12  1  0  0  0  0
 10 13  1  0  0  0  0
  2 14  1  0  0  0  0
  2 15  1  0  0  0  0
  3 16  1  0  0  0  0
  3 17  1  0  0  0  0
  4 18  1  0  0  0  0
  4 19  1  0  0  0  0
  5 20  1  0  0  0  0
  5 21  1  0  0  0  0
  6 22  1  0  0  0  0
  6 23  1  0  0  0  0
  9 24  1  0  0  0  0
  9 25  1  0  0  0  0
  9 26  1  0  0  0  0
 10 27  1  0  0  0  0
 10 28  1  0  0  0  0
 10 29  1  0  0  0  0
M  END
> <id>
EN300-39659486

> <smiles>
COC(=O)C1(CCC2(C)CC1)CO2

> <IUPAC Name>
methyl 1-methyl-2-oxabicyclo[2.2.2]octane-4-carboxylate

> <Purity>
91

> <URL>
https://www.enaminestore.com/catalog/EN300-39659486

> <ROCS_ShapeQuery>
x0812_0A_x1140_0A_x1097_0A_x0365_0A_x1097_0A_x0310_0A

> <ROCS_TanimotoCombo>
0.709 

> <ROCS_ShapeTanimoto>
0.215 

> <ROCS_ColorTanimoto>
0.494 

> <ROCS_RefTversky>
0.196 

> <ROCS_RefColorTversky>
0.519 

> <ROCS_RefTverskyCombo>
0.714 

> <ROCS_FitTversky>
1.834 

> <ROCS_FitColorTversky>
0.913 

> <ROCS_FitTverskyCombo>
2.746 

> <ROCS_ColorScore>
-7.668

> <ROCS_Overlap>
1978.607

> <ROCS_Rank>
241                 

$$$$
untitled-dbase-581235_4
  -OEChem-02092408543D

 40 41  0     1  0  0  0  0  0999 V2000
    5.1388   11.0048   26.1588 C   0  0  0  0  0  0  0  0  0  0  0  0
    9.0459   12.6121   24.6542 C   0  0  0  0  0  0  0  0  0  0  0  0
    7.9290   12.0452   25.5379 C   0  0  0  0  0  0  0  0  0  0  0  0
    6.8673   10.8584   23.5368 C   0  0  0  0  0  0  0  0  0  0  0  0
    9.9832   11.5280   24.1209 C   0  0  0  0  0  0  0  0  0  0  0  0
    8.1105   10.5604   22.6800 C   0  0  0  0  0  0  0  0  0  0  0  0
    8.4615    9.6870   24.8754 C   0  0  0  0  0  0  0  0  0  0  0  0
    7.3397   10.7201   24.9995 C   0  0  1  0  0  0  0  0  0  0  0  0
    9.2329   10.2583   23.6863 C   0  0  2  0  0  0  0  0  0  0  0  0
    3.3566   12.2915   27.9802 C   0  0  0  0  0  0  0  0  0  0  0  0
    3.1553   10.0433   29.0820 C   0  0  0  0  0  0  0  0  0  0  0  0
    5.3821   11.2022   29.0025 C   0  0  0  0  0  0  0  0  0  0  0  0
    4.0613   10.9673   28.2711 C   0  0  0  0  0  0  0  0  0  0  0  0
    6.2774   10.2712   25.8893 N   0  0  0  0  0  0  0  0  0  0  0  0
    4.8743   12.1092   25.6952 O   0  0  0  0  0  0  0  0  0  0  0  0
   10.1456    9.3050   23.1764 O   0  0  0  0  0  0  0  0  0  0  0  0
    4.3389   10.3158   27.0264 O   0  0  0  0  0  0  0  0  0  0  0  0
    8.5938   13.1423   23.8066 H   0  0  0  0  0  0  0  0  0  0  0  0
    9.6187   13.3640   25.2093 H   0  0  0  0  0  0  0  0  0  0  0  0
    8.3348   11.8758   26.5442 H   0  0  0  0  0  0  0  0  0  0  0  0
    7.1411   12.8025   25.6377 H   0  0  0  0  0  0  0  0  0  0  0  0
    6.4493   11.8475   23.3212 H   0  0  0  0  0  0  0  0  0  0  0  0
    6.0932   10.1178   23.2990 H   0  0  0  0  0  0  0  0  0  0  0  0
   10.5731   11.9261   23.2859 H   0  0  0  0  0  0  0  0  0  0  0  0
   10.7156   11.2646   24.8957 H   0  0  0  0  0  0  0  0  0  0  0  0
    7.9170    9.6991   22.0289 H   0  0  0  0  0  0  0  0  0  0  0  0
    8.3594   11.3988   22.0203 H   0  0  0  0  0  0  0  0  0  0  0  0
    9.0794    9.5998   25.7763 H   0  0  0  0  0  0  0  0  0  0  0  0
    8.0795    8.6834   24.6456 H   0  0  0  0  0  0  0  0  0  0  0  0
    4.0036   12.9576   27.3982 H   0  0  0  0  0  0  0  0  0  0  0  0
    2.4251   12.1394   27.4252 H   0  0  0  0  0  0  0  0  0  0  0  0
    3.1227   12.8225   28.9100 H   0  0  0  0  0  0  0  0  0  0  0  0
    3.6569    9.0919   29.2931 H   0  0  0  0  0  0  0  0  0  0  0  0
    2.2474    9.7955   28.5204 H   0  0  0  0  0  0  0  0  0  0  0  0
    2.8612   10.4986   30.0332 H   0  0  0  0  0  0  0  0  0  0  0  0
    5.8878   10.2525   29.2113 H   0  0  0  0  0  0  0  0  0  0  0  0
    6.0598   11.8334   28.4186 H   0  0  0  0  0  0  0  0  0  0  0  0
    5.2102   11.6809   29.9733 H   0  0  0  0  0  0  0  0  0  0  0  0
    6.3801    9.3646   26.3384 H   0  0  0  0  0  0  0  0  0  0  0  0
   10.5894    9.7135   22.4134 H   0  0  0  0  0  0  0  0  0  0  0  0
  1 14  1  0  0  0  0
  1 15  2  0  0  0  0
  1 17  1  0  0  0  0
  2  3  1  0  0  0  0
  2  5  1  0  0  0  0
  3  8  1  0  0  0  0
  4  6  1  0  0  0  0
  4  8  1  0  0  0  0
  5  9  1  0  0  0  0
  6  9  1  0  0  0  0
  7  8  1  0  0  0  0
  7  9  1  0  0  0  0
  8 14  1  0  0  0  0
  9 16  1  0  0  0  0
 10 13  1  0  0  0  0
 11 13  1  0  0  0  0
 12 13  1  0  0  0  0
 13 17  1  0  0  0  0
  2 18  1  0  0  0  0
  2 19  1  0  0  0  0
  3 20  1  0  0  0  0
  3 21  1  0  0  0  0
  4 22  1  0  0  0  0
  4 23  1  0  0  0  0
  5 24  1  0  0  0  0
  5 25  1  0  0  0  0
  6 26  1  0  0  0  0
  6 27  1  0  0  0  0
  7 28  1  0  0  0  0
  7 29  1  0  0  0  0
 10 30  1  0  0  0  0
 10 31  1  0  0  0  0
 10 32  1  0  0  0  0
 11 33  1  0  0  0  0
 11 34  1  0  0  0  0
 11 35  1  0  0  0  0
 12 36  1  0  0  0  0
 12 37  1  0  0  0  0
 12 38  1  0  0  0  0
 14 39  1  0  0  0  0
 16 40  1  0  0  0  0
M  END
> <id>
EN300-45377375

> <smiles>
CC(C)(C)OC(=O)NC1(CCC2(O)C1)CCC2

> <IUPAC Name>
tert-butyl N-{5-hydroxybicyclo[3.2.1]octan-1-yl}carbamate

> <URL>
https://www.enaminestore.com/catalog/EN300-45377375

> <ROCS_ShapeQuery>
x0812_0A_x1140_0A_x1097_0A_x0365_0A_x1097_0A_x0310_0A

> <ROCS_TanimotoCombo>
0.709 

> <ROCS_ShapeTanimoto>
0.215 

> <ROCS_ColorTanimoto>
0.494 

> <ROCS_RefTversky>
0.199 

> <ROCS_RefColorTversky>
0.575 

> <ROCS_RefTverskyCombo>
0.773 

> <ROCS_FitTversky>
1.619 

> <ROCS_FitColorTversky>
0.779 

> <ROCS_FitTverskyCombo>
2.398 

> <ROCS_ColorScore>
-8.574

> <ROCS_Overlap>
2008.797

> <ROCS_Rank>
242                 

$$$$
untitled-dbase-560828_5
  -OEChem-02092408543D

 33 35  0     0  0  0  0  0  0999 V2000
    9.7632   12.1252   22.3638 C   0  0  0  0  0  0  0  0  0  0  0  0
    8.9822   11.9761   24.9305 C   0  0  0  0  0  0  0  0  0  0  0  0
    7.4466   11.5167   23.5824 C   0  0  0  0  0  0  0  0  0  0  0  0
    9.1377    8.9577   22.5329 C   0  0  0  0  0  0  0  0  0  0  0  0
   10.6706    9.4196   23.8805 C   0  0  0  0  0  0  0  0  0  0  0  0
    9.0183   11.3869   23.4631 C   0  0  0  0  0  0  0  0  0  0  0  0
    9.2082    9.8599   23.7682 C   0  0  0  0  0  0  0  0  0  0  0  0
    7.7881   10.9423   25.0161 C   0  0  0  0  0  0  0  0  0  0  0  0
   11.6036   15.2744   22.6544 C   0  0  0  0  0  0  0  0  0  0  0  0
    6.7820   11.0515   26.1258 C   0  0  0  0  0  0  0  0  0  0  0  0
   11.0548   14.0579   21.9397 C   0  0  0  0  0  0  0  0  0  0  0  0
   10.6113    8.9635   22.4796 N   0  0  0  0  0  0  0  0  0  0  0  0
    9.8378   11.7362   21.2061 O   0  0  0  0  0  0  0  0  0  0  0  0
    8.3165    9.5827   24.8775 O   0  0  0  0  0  0  0  0  0  0  0  0
    5.5897   10.3680   25.7542 O   0  0  0  0  0  0  0  0  0  0  0  0
   10.3184   13.2615   22.8732 O   0  0  0  0  0  0  0  0  0  0  0  0
    9.8458   11.7562   25.5651 H   0  0  0  0  0  0  0  0  0  0  0  0
    8.7275   13.0376   25.0271 H   0  0  0  0  0  0  0  0  0  0  0  0
    7.0332   12.5308   23.5396 H   0  0  0  0  0  0  0  0  0  0  0  0
    6.8536   10.8608   22.9381 H   0  0  0  0  0  0  0  0  0  0  0  0
    8.7087    7.9680   22.7293 H   0  0  0  0  0  0  0  0  0  0  0  0
    8.6536    9.3737   21.6446 H   0  0  0  0  0  0  0  0  0  0  0  0
   11.4097   10.2040   24.0675 H   0  0  0  0  0  0  0  0  0  0  0  0
   10.8367    8.6092   24.6001 H   0  0  0  0  0  0  0  0  0  0  0  0
   10.7940   15.8817   23.0688 H   0  0  0  0  0  0  0  0  0  0  0  0
   12.2729   14.9750   23.4676 H   0  0  0  0  0  0  0  0  0  0  0  0
   12.1927   15.8919   21.9683 H   0  0  0  0  0  0  0  0  0  0  0  0
    6.5284   12.1009   26.3281 H   0  0  0  0  0  0  0  0  0  0  0  0
    7.1632   10.6003   27.0518 H   0  0  0  0  0  0  0  0  0  0  0  0
   11.8695   13.4550   21.5276 H   0  0  0  0  0  0  0  0  0  0  0  0
   10.3857   14.3588   21.1281 H   0  0  0  0  0  0  0  0  0  0  0  0
   11.0379    8.0552   22.3056 H   0  0  0  0  0  0  0  0  0  0  0  0
    4.9717   10.4641   26.4959 H   0  0  0  0  0  0  0  0  0  0  0  0
  1  6  1  1  0  0  0
  1 13  2  0  0  0  0
  1 16  1  0  0  0  0
  2  6  1  0  0  0  0
  2  8  1  0  0  0  0
  3  6  1  0  0  0  0
  3  8  1  0  0  0  0
  4  7  1  0  0  0  0
  4 12  1  0  0  0  0
  5  7  1  0  0  0  0
  5 12  1  0  0  0  0
  6  7  1  0  0  0  0
  7 14  1  0  0  0  0
  8 10  1  1  0  0  0
  8 14  1  0  0  0  0
  9 11  1  0  0  0  0
 10 15  1  0  0  0  0
 11 16  1  0  0  0  0
  2 17  1  0  0  0  0
  2 18  1  0  0  0  0
  3 19  1  0  0  0  0
  3 20  1  0  0  0  0
  4 21  1  0  0  0  0
  4 22  1  0  0  0  0
  5 23  1  0  0  0  0
  5 24  1  0  0  0  0
  9 25  1  0  0  0  0
  9 26  1  0  0  0  0
  9 27  1  0  0  0  0
 10 28  1  0  0  0  0
 10 29  1  0  0  0  0
 11 30  1  0  0  0  0
 11 31  1  0  0  0  0
 12 32  1  0  0  0  0
 15 33  1  0  0  0  0
M  END
> <id>
EN300-37375282

> <smiles>
CCOC(=O)[C@]1(C[C@@]2(CO)C1)C3(CNC3)O2.OC(=O)C(F)(F)F

> <IUPAC Name>
ethyl 4'-(hydroxymethyl)-3'-oxaspiro[azetidine-3,2'-bicyclo[2.1.1]hexane]-1'-carboxylate; trifluoroacetic acid

> <CAS>
2490402-22-5

> <URL>
https://www.enaminestore.com/catalog/EN300-37375282

> <ROCS_ShapeQuery>
x0812_0A_x1140_0A_x1097_0A_x0365_0A_x1097_0A_x0310_0A

> <ROCS_TanimotoCombo>
0.709 

> <ROCS_ShapeTanimoto>
0.270 

> <ROCS_ColorTanimoto>
0.439 

> <ROCS_RefTversky>
0.238 

> <ROCS_RefColorTversky>
0.586 

> <ROCS_RefTverskyCombo>
0.823 

> <ROCS_FitTversky>
1.987 

> <ROCS_FitColorTversky>
0.637 

> <ROCS_FitTverskyCombo>
2.624 

> <ROCS_ColorScore>
-8.823

> <ROCS_Overlap>
2405.990

> <ROCS_Rank>
243                 

$$$$
untitled-dbase-469339_5
  -OEChem-02092408543D

 33 35  0     0  0  0  0  0  0999 V2000
    9.7632   12.1252   22.3638 C   0  0  0  0  0  0  0  0  0  0  0  0
    8.9822   11.9761   24.9305 C   0  0  0  0  0  0  0  0  0  0  0  0
    7.4466   11.5167   23.5824 C   0  0  0  0  0  0  0  0  0  0  0  0
    9.1377    8.9577   22.5329 C   0  0  0  0  0  0  0  0  0  0  0  0
   10.6706    9.4196   23.8805 C   0  0  0  0  0  0  0  0  0  0  0  0
    9.0183   11.3869   23.4631 C   0  0  0  0  0  0  0  0  0  0  0  0
    9.2082    9.8599   23.7682 C   0  0  0  0  0  0  0  0  0  0  0  0
    7.7881   10.9423   25.0161 C   0  0  0  0  0  0  0  0  0  0  0  0
   11.6036   15.2744   22.6544 C   0  0  0  0  0  0  0  0  0  0  0  0
    6.7820   11.0515   26.1258 C   0  0  0  0  0  0  0  0  0  0  0  0
   11.0548   14.0579   21.9397 C   0  0  0  0  0  0  0  0  0  0  0  0
   10.6113    8.9635   22.4796 N   0  0  0  0  0  0  0  0  0  0  0  0
    9.8378   11.7362   21.2061 O   0  0  0  0  0  0  0  0  0  0  0  0
    8.3165    9.5827   24.8775 O   0  0  0  0  0  0  0  0  0  0  0  0
    5.5897   10.3680   25.7542 O   0  0  0  0  0  0  0  0  0  0  0  0
   10.3184   13.2615   22.8732 O   0  0  0  0  0  0  0  0  0  0  0  0
    9.8458   11.7562   25.5651 H   0  0  0  0  0  0  0  0  0  0  0  0
    8.7275   13.0376   25.0271 H   0  0  0  0  0  0  0  0  0  0  0  0
    7.0332   12.5308   23.5396 H   0  0  0  0  0  0  0  0  0  0  0  0
    6.8536   10.8608   22.9381 H   0  0  0  0  0  0  0  0  0  0  0  0
    8.7087    7.9680   22.7293 H   0  0  0  0  0  0  0  0  0  0  0  0
    8.6536    9.3737   21.6446 H   0  0  0  0  0  0  0  0  0  0  0  0
   11.4097   10.2040   24.0675 H   0  0  0  0  0  0  0  0  0  0  0  0
   10.8367    8.6092   24.6001 H   0  0  0  0  0  0  0  0  0  0  0  0
   10.7940   15.8817   23.0688 H   0  0  0  0  0  0  0  0  0  0  0  0
   12.2729   14.9750   23.4676 H   0  0  0  0  0  0  0  0  0  0  0  0
   12.1927   15.8919   21.9683 H   0  0  0  0  0  0  0  0  0  0  0  0
    6.5284   12.1009   26.3281 H   0  0  0  0  0  0  0  0  0  0  0  0
    7.1632   10.6003   27.0518 H   0  0  0  0  0  0  0  0  0  0  0  0
   11.8695   13.4550   21.5276 H   0  0  0  0  0  0  0  0  0  0  0  0
   10.3857   14.3588   21.1281 H   0  0  0  0  0  0  0  0  0  0  0  0
   11.0379    8.0552   22.3056 H   0  0  0  0  0  0  0  0  0  0  0  0
    4.9717   10.4641   26.4959 H   0  0  0  0  0  0  0  0  0  0  0  0
  1  6  1  1  0  0  0
  1 13  2  0  0  0  0
  1 16  1  0  0  0  0
  2  6  1  0  0  0  0
  2  8  1  0  0  0  0
  3  6  1  0  0  0  0
  3  8  1  0  0  0  0
  4  7  1  0  0  0  0
  4 12  1  0  0  0  0
  5  7  1  0  0  0  0
  5 12  1  0  0  0  0
  6  7  1  0  0  0  0
  7 14  1  0  0  0  0
  8 10  1  1  0  0  0
  8 14  1  0  0  0  0
  9 11  1  0  0  0  0
 10 15  1  0  0  0  0
 11 16  1  0  0  0  0
  2 17  1  0  0  0  0
  2 18  1  0  0  0  0
  3 19  1  0  0  0  0
  3 20  1  0  0  0  0
  4 21  1  0  0  0  0
  4 22  1  0  0  0  0
  5 23  1  0  0  0  0
  5 24  1  0  0  0  0
  9 25  1  0  0  0  0
  9 26  1  0  0  0  0
  9 27  1  0  0  0  0
 10 28  1  0  0  0  0
 10 29  1  0  0  0  0
 11 30  1  0  0  0  0
 11 31  1  0  0  0  0
 12 32  1  0  0  0  0
 15 33  1  0  0  0  0
M  END
> <id>
EN300-39870158

> <smiles>
CCOC(=O)[C@]1(C[C@@]2(CO)C1)C3(CNC3)O2

> <IUPAC Name>
ethyl 4'-(hydroxymethyl)-3'-oxaspiro[azetidine-3,2'-bicyclo[2.1.1]hexane]-1'-carboxylate

> <URL>
https://www.enaminestore.com/catalog/EN300-39870158

> <ROCS_ShapeQuery>
x0812_0A_x1140_0A_x1097_0A_x0365_0A_x1097_0A_x0310_0A

> <ROCS_TanimotoCombo>
0.709 

> <ROCS_ShapeTanimoto>
0.270 

> <ROCS_ColorTanimoto>
0.439 

> <ROCS_RefTversky>
0.238 

> <ROCS_RefColorTversky>
0.586 

> <ROCS_RefTverskyCombo>
0.823 

> <ROCS_FitTversky>
1.987 

> <ROCS_FitColorTversky>
0.637 

> <ROCS_FitTverskyCombo>
2.624 

> <ROCS_ColorScore>
-8.823

> <ROCS_Overlap>
2405.990

> <ROCS_Rank>
244                 

$$$$
untitled-dbase-522247_3
  -OEChem-02092408543D

 25 26  0     0  0  0  0  0  0999 V2000
    9.1976   11.7642   25.0516 C   0  0  0  0  0  0  0  0  0  0  0  0
    7.5870   11.7738   23.7215 C   0  0  0  0  0  0  0  0  0  0  0  0
    9.1018    9.8519   23.5137 C   0  0  0  0  0  0  0  0  0  0  0  0
    9.0921   11.3887   23.5364 C   0  0  0  0  0  0  0  0  0  0  0  0
    7.8553   10.9325   25.0307 C   0  0  0  0  0  0  0  0  0  0  0  0
   11.7247   12.0332   22.9183 C   0  0  0  0  0  0  0  0  0  0  0  0
    6.9016   10.9599   26.1859 C   0  0  0  0  0  0  0  0  0  0  0  0
    5.7599   10.1319   25.9258 N   0  0  0  0  0  0  0  0  0  0  0  0
    9.7611   13.7227   22.5681 O   0  0  0  0  0  0  0  0  0  0  0  0
    9.9060   11.6952   21.0715 O   0  0  0  0  0  0  0  0  0  0  0  0
    8.2010    9.5851   24.6025 O   0  0  0  0  0  0  0  0  0  0  0  0
   10.0401   12.2993   22.3948 S   0  0  0  0  0  0  0  0  0  0  0  0
   10.0281   11.3152   25.6043 H   0  0  0  0  0  0  0  0  0  0  0  0
    9.1203   12.8256   25.3125 H   0  0  0  0  0  0  0  0  0  0  0  0
    7.3529   12.8361   23.8530 H   0  0  0  0  0  0  0  0  0  0  0  0
    6.8842   11.3340   23.0079 H   0  0  0  0  0  0  0  0  0  0  0  0
    8.6958    9.4385   22.5863 H   0  0  0  0  0  0  0  0  0  0  0  0
   10.0863    9.4303   23.7347 H   0  0  0  0  0  0  0  0  0  0  0  0
   12.3855   12.5790   22.2430 H   0  0  0  0  0  0  0  0  0  0  0  0
   11.8306   12.4036   23.9391 H   0  0  0  0  0  0  0  0  0  0  0  0
   11.9335   10.9632   22.8758 H   0  0  0  0  0  0  0  0  0  0  0  0
    7.4217   10.5928   27.0801 H   0  0  0  0  0  0  0  0  0  0  0  0
    6.5723   11.9948   26.3455 H   0  0  0  0  0  0  0  0  0  0  0  0
    4.9275   10.6873   25.9545 H   0  0  0  0  0  0  0  0  0  0  0  0
    5.8473    9.7133   25.0208 H   0  0  0  0  0  0  0  0  0  0  0  0
  1  4  1  0  0  0  0
  1  5  1  0  0  0  0
  2  4  1  0  0  0  0
  2  5  1  0  0  0  0
  3  4  1  0  0  0  0
  3 11  1  0  0  0  0
  4 12  1  1  0  0  0
  5  7  1  1  0  0  0
  5 11  1  0  0  0  0
  6 12  1  0  0  0  0
  7  8  1  0  0  0  0
  9 12  2  0  0  0  0
 10 12  2  0  0  0  0
  1 13  1  0  0  0  0
  1 14  1  0  0  0  0
  2 15  1  0  0  0  0
  2 16  1  0  0  0  0
  3 17  1  0  0  0  0
  3 18  1  0  0  0  0
  6 19  1  0  0  0  0
  6 20  1  0  0  0  0
  6 21  1  0  0  0  0
  7 22  1  0  0  0  0
  7 23  1  0  0  0  0
  8 24  1  0  0  0  0
  8 25  1  0  0  0  0
M  END
> <id>
EN300-37334812

> <smiles>
CS(=O)(=O)[C@]1(C[C@@]2(CN)C1)CO2

> <IUPAC Name>
1-{4-methanesulfonyl-2-oxabicyclo[2.1.1]hexan-1-yl}methanamine

> <URL>
https://www.enaminestore.com/catalog/EN300-37334812

> <ROCS_ShapeQuery>
x0812_0A_x1140_0A_x1097_0A_x0365_0A_x1097_0A_x0310_0A

> <ROCS_TanimotoCombo>
0.709 

> <ROCS_ShapeTanimoto>
0.221 

> <ROCS_ColorTanimoto>
0.488 

> <ROCS_RefTversky>
0.199 

> <ROCS_RefColorTversky>
0.590 

> <ROCS_RefTverskyCombo>
0.789 

> <ROCS_FitTversky>
1.989 

> <ROCS_FitColorTversky>
0.739 

> <ROCS_FitTverskyCombo>
2.727 

> <ROCS_ColorScore>
-8.829

> <ROCS_Overlap>
2008.791

> <ROCS_Rank>
245                 

$$$$
untitled-dbase-558540_3
  -OEChem-02092408543D

 25 26  0     0  0  0  0  0  0999 V2000
    9.1976   11.7642   25.0516 C   0  0  0  0  0  0  0  0  0  0  0  0
    7.5870   11.7738   23.7215 C   0  0  0  0  0  0  0  0  0  0  0  0
    9.1018    9.8519   23.5137 C   0  0  0  0  0  0  0  0  0  0  0  0
    9.0921   11.3887   23.5364 C   0  0  0  0  0  0  0  0  0  0  0  0
    7.8553   10.9325   25.0307 C   0  0  0  0  0  0  0  0  0  0  0  0
   11.7247   12.0332   22.9183 C   0  0  0  0  0  0  0  0  0  0  0  0
    6.9016   10.9599   26.1859 C   0  0  0  0  0  0  0  0  0  0  0  0
    5.7599   10.1319   25.9258 N   0  0  0  0  0  0  0  0  0  0  0  0
    9.7611   13.7227   22.5681 O   0  0  0  0  0  0  0  0  0  0  0  0
    9.9060   11.6952   21.0715 O   0  0  0  0  0  0  0  0  0  0  0  0
    8.2010    9.5851   24.6025 O   0  0  0  0  0  0  0  0  0  0  0  0
   10.0401   12.2993   22.3948 S   0  0  0  0  0  0  0  0  0  0  0  0
   10.0281   11.3152   25.6043 H   0  0  0  0  0  0  0  0  0  0  0  0
    9.1203   12.8256   25.3125 H   0  0  0  0  0  0  0  0  0  0  0  0
    7.3529   12.8361   23.8530 H   0  0  0  0  0  0  0  0  0  0  0  0
    6.8842   11.3340   23.0079 H   0  0  0  0  0  0  0  0  0  0  0  0
    8.6958    9.4385   22.5863 H   0  0  0  0  0  0  0  0  0  0  0  0
   10.0863    9.4303   23.7347 H   0  0  0  0  0  0  0  0  0  0  0  0
   12.3855   12.5790   22.2430 H   0  0  0  0  0  0  0  0  0  0  0  0
   11.8306   12.4036   23.9391 H   0  0  0  0  0  0  0  0  0  0  0  0
   11.9335   10.9632   22.8758 H   0  0  0  0  0  0  0  0  0  0  0  0
    7.4217   10.5928   27.0801 H   0  0  0  0  0  0  0  0  0  0  0  0
    6.5723   11.9948   26.3455 H   0  0  0  0  0  0  0  0  0  0  0  0
    4.9275   10.6873   25.9545 H   0  0  0  0  0  0  0  0  0  0  0  0
    5.8473    9.7133   25.0208 H   0  0  0  0  0  0  0  0  0  0  0  0
  1  4  1  0  0  0  0
  1  5  1  0  0  0  0
  2  4  1  0  0  0  0
  2  5  1  0  0  0  0
  3  4  1  0  0  0  0
  3 11  1  0  0  0  0
  4 12  1  1  0  0  0
  5  7  1  1  0  0  0
  5 11  1  0  0  0  0
  6 12  1  0  0  0  0
  7  8  1  0  0  0  0
  9 12  2  0  0  0  0
 10 12  2  0  0  0  0
  1 13  1  0  0  0  0
  1 14  1  0  0  0  0
  2 15  1  0  0  0  0
  2 16  1  0  0  0  0
  3 17  1  0  0  0  0
  3 18  1  0  0  0  0
  6 19  1  0  0  0  0
  6 20  1  0  0  0  0
  6 21  1  0  0  0  0
  7 22  1  0  0  0  0
  7 23  1  0  0  0  0
  8 24  1  0  0  0  0
  8 25  1  0  0  0  0
M  END
> <id>
EN300-37375528

> <smiles>
Cl.CS(=O)(=O)[C@]1(C[C@@]2(CN)C1)CO2

> <IUPAC Name>
1-{4-methanesulfonyl-2-oxabicyclo[2.1.1]hexan-1-yl}methanamine hydrochloride

> <CAS>
2751621-40-4

> <URL>
https://www.enaminestore.com/catalog/EN300-37375528

> <ROCS_ShapeQuery>
x0812_0A_x1140_0A_x1097_0A_x0365_0A_x1097_0A_x0310_0A

> <ROCS_TanimotoCombo>
0.709 

> <ROCS_ShapeTanimoto>
0.221 

> <ROCS_ColorTanimoto>
0.488 

> <ROCS_RefTversky>
0.199 

> <ROCS_RefColorTversky>
0.590 

> <ROCS_RefTverskyCombo>
0.789 

> <ROCS_FitTversky>
1.989 

> <ROCS_FitColorTversky>
0.739 

> <ROCS_FitTverskyCombo>
2.727 

> <ROCS_ColorScore>
-8.829

> <ROCS_Overlap>
2008.791

> <ROCS_Rank>
246                 

$$$$
untitled-dbase-212464_3
  -OEChem-02092408543D

 25 26  0     0  0  0  0  0  0999 V2000
    9.1976   11.7641   25.0514 C   0  0  0  0  0  0  0  0  0  0  0  0
    7.5870   11.7736   23.7215 C   0  0  0  0  0  0  0  0  0  0  0  0
    9.1018    9.8517   23.5137 C   0  0  0  0  0  0  0  0  0  0  0  0
    9.0920   11.3886   23.5364 C   0  0  0  0  0  0  0  0  0  0  0  0
    7.8554   10.9325   25.0308 C   0  0  0  0  0  0  0  0  0  0  0  0
   11.7245   12.0333   22.9183 C   0  0  0  0  0  0  0  0  0  0  0  0
    6.9017   10.9602   26.1856 C   0  0  0  0  0  0  0  0  0  0  0  0
    5.7598   10.1321   25.9257 N   0  0  0  0  0  0  0  0  0  0  0  0
    9.7608   13.7227   22.5683 O   0  0  0  0  0  0  0  0  0  0  0  0
    9.9059   11.6953   21.0715 O   0  0  0  0  0  0  0  0  0  0  0  0
    8.2011    9.5851   24.6026 O   0  0  0  0  0  0  0  0  0  0  0  0
   10.0399   12.2993   22.3948 S   0  0  0  0  0  0  0  0  0  0  0  0
   10.0280   11.3151   25.6040 H   0  0  0  0  0  0  0  0  0  0  0  0
    9.1206   12.8256   25.3121 H   0  0  0  0  0  0  0  0  0  0  0  0
    7.3530   12.8360   23.8530 H   0  0  0  0  0  0  0  0  0  0  0  0
    6.8839   11.3339   23.0081 H   0  0  0  0  0  0  0  0  0  0  0  0
    8.6958    9.4381   22.5865 H   0  0  0  0  0  0  0  0  0  0  0  0
   10.0864    9.4302   23.7348 H   0  0  0  0  0  0  0  0  0  0  0  0
   12.3853   12.5792   22.2430 H   0  0  0  0  0  0  0  0  0  0  0  0
   11.8305   12.4036   23.9391 H   0  0  0  0  0  0  0  0  0  0  0  0
   11.9334   10.9634   22.8757 H   0  0  0  0  0  0  0  0  0  0  0  0
    7.4214   10.5933   27.0801 H   0  0  0  0  0  0  0  0  0  0  0  0
    6.5721   11.9951   26.3450 H   0  0  0  0  0  0  0  0  0  0  0  0
    4.9276   10.6876   25.9540 H   0  0  0  0  0  0  0  0  0  0  0  0
    5.8474    9.7131   25.0209 H   0  0  0  0  0  0  0  0  0  0  0  0
  1  4  1  0  0  0  0
  1  5  1  0  0  0  0
  2  4  1  0  0  0  0
  2  5  1  0  0  0  0
  3  4  1  0  0  0  0
  3 11  1  0  0  0  0
  4 12  1  0  0  0  0
  5  7  1  0  0  0  0
  5 11  1  0  0  0  0
  6 12  1  0  0  0  0
  7  8  1  0  0  0  0
  9 12  2  0  0  0  0
 10 12  2  0  0  0  0
  1 13  1  0  0  0  0
  1 14  1  0  0  0  0
  2 15  1  0  0  0  0
  2 16  1  0  0  0  0
  3 17  1  0  0  0  0
  3 18  1  0  0  0  0
  6 19  1  0  0  0  0
  6 20  1  0  0  0  0
  6 21  1  0  0  0  0
  7 22  1  0  0  0  0
  7 23  1  0  0  0  0
  8 24  1  0  0  0  0
  8 25  1  0  0  0  0
M  END
> <id>
EN300-37297160

> <smiles>
CS(=O)(=O)C1(CC2(CN)C1)CO2

> <MDLNUMBER>
MFCD34594670

> <IUPAC Name>
1-{4-methanesulfonyl-2-oxabicyclo[2.1.1]hexan-1-yl}methanamine

> <CAS>
2751621-39-1

> <URL>
https://www.enaminestore.com/catalog/EN300-37297160

> <ROCS_ShapeQuery>
x0812_0A_x1140_0A_x1097_0A_x0365_0A_x1097_0A_x0310_0A

> <ROCS_TanimotoCombo>
0.709 

> <ROCS_ShapeTanimoto>
0.221 

> <ROCS_ColorTanimoto>
0.488 

> <ROCS_RefTversky>
0.199 

> <ROCS_RefColorTversky>
0.590 

> <ROCS_RefTverskyCombo>
0.789 

> <ROCS_FitTversky>
1.989 

> <ROCS_FitColorTversky>
0.739 

> <ROCS_FitTverskyCombo>
2.727 

> <ROCS_ColorScore>
-8.829

> <ROCS_Overlap>
2008.840

> <ROCS_Rank>
247                 

$$$$
untitled-dbase-212463_3
  -OEChem-02092408543D

 25 26  0     0  0  0  0  0  0999 V2000
    9.1976   11.7641   25.0514 C   0  0  0  0  0  0  0  0  0  0  0  0
    7.5870   11.7736   23.7215 C   0  0  0  0  0  0  0  0  0  0  0  0
    9.1018    9.8517   23.5137 C   0  0  0  0  0  0  0  0  0  0  0  0
    9.0920   11.3886   23.5364 C   0  0  0  0  0  0  0  0  0  0  0  0
    7.8554   10.9325   25.0308 C   0  0  0  0  0  0  0  0  0  0  0  0
   11.7245   12.0333   22.9183 C   0  0  0  0  0  0  0  0  0  0  0  0
    6.9017   10.9602   26.1856 C   0  0  0  0  0  0  0  0  0  0  0  0
    5.7598   10.1321   25.9257 N   0  0  0  0  0  0  0  0  0  0  0  0
    9.7608   13.7227   22.5683 O   0  0  0  0  0  0  0  0  0  0  0  0
    9.9059   11.6953   21.0715 O   0  0  0  0  0  0  0  0  0  0  0  0
    8.2011    9.5851   24.6026 O   0  0  0  0  0  0  0  0  0  0  0  0
   10.0399   12.2993   22.3948 S   0  0  0  0  0  0  0  0  0  0  0  0
   10.0280   11.3151   25.6040 H   0  0  0  0  0  0  0  0  0  0  0  0
    9.1206   12.8256   25.3121 H   0  0  0  0  0  0  0  0  0  0  0  0
    7.3530   12.8360   23.8530 H   0  0  0  0  0  0  0  0  0  0  0  0
    6.8839   11.3339   23.0081 H   0  0  0  0  0  0  0  0  0  0  0  0
    8.6958    9.4381   22.5865 H   0  0  0  0  0  0  0  0  0  0  0  0
   10.0864    9.4302   23.7348 H   0  0  0  0  0  0  0  0  0  0  0  0
   12.3853   12.5792   22.2430 H   0  0  0  0  0  0  0  0  0  0  0  0
   11.8305   12.4036   23.9391 H   0  0  0  0  0  0  0  0  0  0  0  0
   11.9334   10.9634   22.8757 H   0  0  0  0  0  0  0  0  0  0  0  0
    7.4214   10.5933   27.0801 H   0  0  0  0  0  0  0  0  0  0  0  0
    6.5721   11.9951   26.3450 H   0  0  0  0  0  0  0  0  0  0  0  0
    4.9276   10.6876   25.9540 H   0  0  0  0  0  0  0  0  0  0  0  0
    5.8474    9.7131   25.0209 H   0  0  0  0  0  0  0  0  0  0  0  0
  1  4  1  0  0  0  0
  1  5  1  0  0  0  0
  2  4  1  0  0  0  0
  2  5  1  0  0  0  0
  3  4  1  0  0  0  0
  3 11  1  0  0  0  0
  4 12  1  0  0  0  0
  5  7  1  0  0  0  0
  5 11  1  0  0  0  0
  6 12  1  0  0  0  0
  7  8  1  0  0  0  0
  9 12  2  0  0  0  0
 10 12  2  0  0  0  0
  1 13  1  0  0  0  0
  1 14  1  0  0  0  0
  2 15  1  0  0  0  0
  2 16  1  0  0  0  0
  3 17  1  0  0  0  0
  3 18  1  0  0  0  0
  6 19  1  0  0  0  0
  6 20  1  0  0  0  0
  6 21  1  0  0  0  0
  7 22  1  0  0  0  0
  7 23  1  0  0  0  0
  8 24  1  0  0  0  0
  8 25  1  0  0  0  0
M  END
> <id>
EN300-37297159

> <smiles>
Cl.CS(=O)(=O)C1(CC2(CN)C1)CO2

> <MDLNUMBER>
MFCD34594669

> <IUPAC Name>
1-{4-methanesulfonyl-2-oxabicyclo[2.1.1]hexan-1-yl}methanamine hydrochloride

> <CAS>
2751621-40-4

> <Purity>
95

> <URL>
https://www.enaminestore.com/catalog/EN300-37297159

> <ROCS_ShapeQuery>
x0812_0A_x1140_0A_x1097_0A_x0365_0A_x1097_0A_x0310_0A

> <ROCS_TanimotoCombo>
0.709 

> <ROCS_ShapeTanimoto>
0.221 

> <ROCS_ColorTanimoto>
0.488 

> <ROCS_RefTversky>
0.199 

> <ROCS_RefColorTversky>
0.590 

> <ROCS_RefTverskyCombo>
0.789 

> <ROCS_FitTversky>
1.989 

> <ROCS_FitColorTversky>
0.739 

> <ROCS_FitTverskyCombo>
2.727 

> <ROCS_ColorScore>
-8.829

> <ROCS_Overlap>
2008.840

> <ROCS_Rank>
248                 

$$$$
untitled-dbase-486015_3
  -OEChem-02092408543D

 36 38  0     0  0  0  0  0  0999 V2000
    9.7930   12.1117   22.3844 C   0  0  0  0  0  0  0  0  0  0  0  0
    8.6661    9.0836   22.3070 C   0  0  0  0  0  0  0  0  0  0  0  0
   10.6242    9.3616   23.8646 C   0  0  0  0  0  0  0  0  0  0  0  0
    9.1106   11.8507   24.9684 C   0  0  0  0  0  0  0  0  0  0  0  0
    7.4940   11.6215   23.6830 C   0  0  0  0  0  0  0  0  0  0  0  0
    8.8969    7.5789   22.4093 C   0  0  0  0  0  0  0  0  0  0  0  0
   10.7351    7.8398   23.8724 C   0  0  0  0  0  0  0  0  0  0  0  0
    9.0387   11.3539   23.4677 C   0  0  0  0  0  0  0  0  0  0  0  0
    9.1919    9.8063   23.5515 C   0  0  0  0  0  0  0  0  0  0  0  0
    7.8650   10.8870   25.0271 C   0  0  0  0  0  0  0  0  0  0  0  0
   11.2058   13.9722   22.0290 C   0  0  0  0  0  0  0  0  0  0  0  0
    6.9315   10.8982   26.1994 C   0  0  0  0  0  0  0  0  0  0  0  0
    5.6663   10.3207   25.8499 N   0  0  0  0  0  0  0  0  0  0  0  0
    9.7924   11.7978   21.2018 O   0  0  0  0  0  0  0  0  0  0  0  0
   10.2745    7.2921   22.6391 O   0  0  0  0  0  0  0  0  0  0  0  0
    8.3306    9.5494   24.6801 O   0  0  0  0  0  0  0  0  0  0  0  0
   10.4504   13.1686   22.9410 O   0  0  0  0  0  0  0  0  0  0  0  0
    9.1911    9.4602   21.4210 H   0  0  0  0  0  0  0  0  0  0  0  0
    7.5958    9.2552   22.1559 H   0  0  0  0  0  0  0  0  0  0  0  0
   10.9644    9.7330   24.8360 H   0  0  0  0  0  0  0  0  0  0  0  0
   11.3025    9.7599   23.1006 H   0  0  0  0  0  0  0  0  0  0  0  0
    9.9770   11.5472   25.5604 H   0  0  0  0  0  0  0  0  0  0  0  0
    8.9266   12.9168   25.1475 H   0  0  0  0  0  0  0  0  0  0  0  0
    7.1777   12.6690   23.7568 H   0  0  0  0  0  0  0  0  0  0  0  0
    6.7945   11.0959   23.0291 H   0  0  0  0  0  0  0  0  0  0  0  0
    8.2916    7.1334   23.2073 H   0  0  0  0  0  0  0  0  0  0  0  0
    8.6085    7.0957   21.4701 H   0  0  0  0  0  0  0  0  0  0  0  0
   11.7822    7.5459   23.9967 H   0  0  0  0  0  0  0  0  0  0  0  0
   10.1698    7.4003   24.7028 H   0  0  0  0  0  0  0  0  0  0  0  0
   11.6898   14.7862   22.5742 H   0  0  0  0  0  0  0  0  0  0  0  0
   10.5407   14.3777   21.2623 H   0  0  0  0  0  0  0  0  0  0  0  0
   11.9686   13.3501   21.5549 H   0  0  0  0  0  0  0  0  0  0  0  0
    7.3841   10.3188   27.0141 H   0  0  0  0  0  0  0  0  0  0  0  0
    6.7820   11.9372   26.5193 H   0  0  0  0  0  0  0  0  0  0  0  0
    4.9392   10.9957   25.9837 H   0  0  0  0  0  0  0  0  0  0  0  0
    5.6802   10.0354   24.8904 H   0  0  0  0  0  0  0  0  0  0  0  0
  1  8  1  0  0  0  0
  1 14  2  0  0  0  0
  1 17  1  0  0  0  0
  2  6  1  0  0  0  0
  2  9  1  0  0  0  0
  3  7  1  0  0  0  0
  3  9  1  0  0  0  0
  4  8  1  0  0  0  0
  4 10  1  0  0  0  0
  5  8  1  0  0  0  0
  5 10  1  0  0  0  0
  6 15  1  0  0  0  0
  7 15  1  0  0  0  0
  8  9  1  0  0  0  0
  9 16  1  0  0  0  0
 10 12  1  0  0  0  0
 10 16  1  0  0  0  0
 11 17  1  0  0  0  0
 12 13  1  0  0  0  0
  2 18  1  0  0  0  0
  2 19  1  0  0  0  0
  3 20  1  0  0  0  0
  3 21  1  0  0  0  0
  4 22  1  0  0  0  0
  4 23  1  0  0  0  0
  5 24  1  0  0  0  0
  5 25  1  0  0  0  0
  6 26  1  0  0  0  0
  6 27  1  0  0  0  0
  7 28  1  0  0  0  0
  7 29  1  0  0  0  0
 11 30  1  0  0  0  0
 11 31  1  0  0  0  0
 11 32  1  0  0  0  0
 12 33  1  0  0  0  0
 12 34  1  0  0  0  0
 13 35  1  0  0  0  0
 13 36  1  0  0  0  0
M  END
> <id>
EN300-27727208

> <smiles>
COC(=O)C1(CC2(CN)C1)C3(CCOCC3)O2

> <IUPAC Name>
methyl 4-(aminomethyl)-3-oxaspiro[bicyclo[2.1.1]hexane-2,4'-oxane]-1-carboxylate

> <CAS>
2639421-46-6

> <URL>
https://www.enaminestore.com/catalog/EN300-27727208

> <ROCS_ShapeQuery>
x0812_0A_x1140_0A_x1097_0A_x0365_0A_x1097_0A_x0310_0A

> <ROCS_TanimotoCombo>
0.708 

> <ROCS_ShapeTanimoto>
0.257 

> <ROCS_ColorTanimoto>
0.451 

> <ROCS_RefTversky>
0.230 

> <ROCS_RefColorTversky>
0.577 

> <ROCS_RefTverskyCombo>
0.807 

> <ROCS_FitTversky>
1.854 

> <ROCS_FitColorTversky>
0.674 

> <ROCS_FitTverskyCombo>
2.528 

> <ROCS_ColorScore>
-8.672

> <ROCS_Overlap>
2328.044

> <ROCS_Rank>
249                 

$$$$
untitled-dbase-291460_5
  -OEChem-02092408543D

 33 35  0     0  0  0  0  0  0999 V2000
    9.7621   12.1253   22.3632 C   0  0  0  0  0  0  0  0  0  0  0  0
    8.9814   11.9771   24.9303 C   0  0  0  0  0  0  0  0  0  0  0  0
    7.4465   11.5157   23.5822 C   0  0  0  0  0  0  0  0  0  0  0  0
    9.1368    8.9583   22.5334 C   0  0  0  0  0  0  0  0  0  0  0  0
   10.6711    9.4195   23.8801 C   0  0  0  0  0  0  0  0  0  0  0  0
    9.0183   11.3872   23.4632 C   0  0  0  0  0  0  0  0  0  0  0  0
    9.2088    9.8603   23.7688 C   0  0  0  0  0  0  0  0  0  0  0  0
    7.7881   10.9424   25.0163 C   0  0  0  0  0  0  0  0  0  0  0  0
   11.5987   15.2770   22.6503 C   0  0  0  0  0  0  0  0  0  0  0  0
    6.7811   11.0513   26.1253 C   0  0  0  0  0  0  0  0  0  0  0  0
   11.0513   14.0592   21.9368 C   0  0  0  0  0  0  0  0  0  0  0  0
   10.6102    8.9610   22.4801 N   0  0  0  0  0  0  0  0  0  0  0  0
    9.8369   11.7352   21.2058 O   0  0  0  0  0  0  0  0  0  0  0  0
    8.3177    9.5834   24.8786 O   0  0  0  0  0  0  0  0  0  0  0  0
    5.5899   10.3663   25.7534 O   0  0  0  0  0  0  0  0  0  0  0  0
   10.3160   13.2628   22.8713 O   0  0  0  0  0  0  0  0  0  0  0  0
    9.8452   11.7581   25.5650 H   0  0  0  0  0  0  0  0  0  0  0  0
    8.7259   13.0385   25.0262 H   0  0  0  0  0  0  0  0  0  0  0  0
    7.0323   12.5295   23.5388 H   0  0  0  0  0  0  0  0  0  0  0  0
    6.8540   10.8591   22.9382 H   0  0  0  0  0  0  0  0  0  0  0  0
    8.7057    7.9696   22.7297 H   0  0  0  0  0  0  0  0  0  0  0  0
    8.6536    9.3753   21.6450 H   0  0  0  0  0  0  0  0  0  0  0  0
   11.4107   10.2038   24.0650 H   0  0  0  0  0  0  0  0  0  0  0  0
   10.8375    8.6102   24.6009 H   0  0  0  0  0  0  0  0  0  0  0  0
   10.7885   15.8837   23.0642 H   0  0  0  0  0  0  0  0  0  0  0  0
   12.2686   14.9792   23.4636 H   0  0  0  0  0  0  0  0  0  0  0  0
   12.1870   15.8945   21.9634 H   0  0  0  0  0  0  0  0  0  0  0  0
    6.5263   12.1005   26.3268 H   0  0  0  0  0  0  0  0  0  0  0  0
    7.1622   10.6011   27.0518 H   0  0  0  0  0  0  0  0  0  0  0  0
   11.8666   13.4568   21.5252 H   0  0  0  0  0  0  0  0  0  0  0  0
   10.3816   14.3584   21.1251 H   0  0  0  0  0  0  0  0  0  0  0  0
   11.0349    8.0515   22.3076 H   0  0  0  0  0  0  0  0  0  0  0  0
    4.9713   10.4622   26.4946 H   0  0  0  0  0  0  0  0  0  0  0  0
  1  6  1  0  0  0  0
  1 13  2  0  0  0  0
  1 16  1  0  0  0  0
  2  6  1  0  0  0  0
  2  8  1  0  0  0  0
  3  6  1  0  0  0  0
  3  8  1  0  0  0  0
  4  7  1  0  0  0  0
  4 12  1  0  0  0  0
  5  7  1  0  0  0  0
  5 12  1  0  0  0  0
  6  7  1  0  0  0  0
  7 14  1  0  0  0  0
  8 10  1  0  0  0  0
  8 14  1  0  0  0  0
  9 11  1  0  0  0  0
 10 15  1  0  0  0  0
 11 16  1  0  0  0  0
  2 17  1  0  0  0  0
  2 18  1  0  0  0  0
  3 19  1  0  0  0  0
  3 20  1  0  0  0  0
  4 21  1  0  0  0  0
  4 22  1  0  0  0  0
  5 23  1  0  0  0  0
  5 24  1  0  0  0  0
  9 25  1  0  0  0  0
  9 26  1  0  0  0  0
  9 27  1  0  0  0  0
 10 28  1  0  0  0  0
 10 29  1  0  0  0  0
 11 30  1  0  0  0  0
 11 31  1  0  0  0  0
 12 32  1  0  0  0  0
 15 33  1  0  0  0  0
M  END
> <id>
EN300-6497644

> <smiles>
CCOC(=O)C1(CC2(CO)C1)C3(CNC3)O2.OC(=O)C(F)(F)F

> <MDLNUMBER>
MFCD31719064

> <IUPAC Name>
ethyl 4'-(hydroxymethyl)-3'-oxaspiro[azetidine-3,2'-bicyclo[2.1.1]hexane]-1'-carboxylate; trifluoroacetic acid

> <CAS>
2490402-22-5

> <Purity>
95

> <URL>
https://www.enaminestore.com/catalog/EN300-6497644

> <Saltdate>
OC(=O)C(F)(F)F

> <ROCS_ShapeQuery>
x0812_0A_x1140_0A_x1097_0A_x0365_0A_x1097_0A_x0310_0A

> <ROCS_TanimotoCombo>
0.708 

> <ROCS_ShapeTanimoto>
0.270 

> <ROCS_ColorTanimoto>
0.439 

> <ROCS_RefTversky>
0.238 

> <ROCS_RefColorTversky>
0.585 

> <ROCS_RefTverskyCombo>
0.823 

> <ROCS_FitTversky>
1.987 

> <ROCS_FitColorTversky>
0.637 

> <ROCS_FitTverskyCombo>
2.623 

> <ROCS_ColorScore>
-8.823

> <ROCS_Overlap>
2405.580

> <ROCS_Rank>
250                 

$$$$
untitled-dbase-291461_5
  -OEChem-02092408543D

 33 35  0     0  0  0  0  0  0999 V2000
    9.7621   12.1253   22.3632 C   0  0  0  0  0  0  0  0  0  0  0  0
    8.9814   11.9771   24.9303 C   0  0  0  0  0  0  0  0  0  0  0  0
    7.4465   11.5157   23.5822 C   0  0  0  0  0  0  0  0  0  0  0  0
    9.1368    8.9583   22.5334 C   0  0  0  0  0  0  0  0  0  0  0  0
   10.6711    9.4195   23.8801 C   0  0  0  0  0  0  0  0  0  0  0  0
    9.0183   11.3872   23.4632 C   0  0  0  0  0  0  0  0  0  0  0  0
    9.2088    9.8603   23.7688 C   0  0  0  0  0  0  0  0  0  0  0  0
    7.7881   10.9424   25.0163 C   0  0  0  0  0  0  0  0  0  0  0  0
   11.5987   15.2770   22.6503 C   0  0  0  0  0  0  0  0  0  0  0  0
    6.7811   11.0513   26.1253 C   0  0  0  0  0  0  0  0  0  0  0  0
   11.0513   14.0592   21.9368 C   0  0  0  0  0  0  0  0  0  0  0  0
   10.6102    8.9610   22.4801 N   0  0  0  0  0  0  0  0  0  0  0  0
    9.8369   11.7352   21.2058 O   0  0  0  0  0  0  0  0  0  0  0  0
    8.3177    9.5834   24.8786 O   0  0  0  0  0  0  0  0  0  0  0  0
    5.5899   10.3663   25.7534 O   0  0  0  0  0  0  0  0  0  0  0  0
   10.3160   13.2628   22.8713 O   0  0  0  0  0  0  0  0  0  0  0  0
    9.8452   11.7581   25.5650 H   0  0  0  0  0  0  0  0  0  0  0  0
    8.7259   13.0385   25.0262 H   0  0  0  0  0  0  0  0  0  0  0  0
    7.0323   12.5295   23.5388 H   0  0  0  0  0  0  0  0  0  0  0  0
    6.8540   10.8591   22.9382 H   0  0  0  0  0  0  0  0  0  0  0  0
    8.7057    7.9696   22.7297 H   0  0  0  0  0  0  0  0  0  0  0  0
    8.6536    9.3753   21.6450 H   0  0  0  0  0  0  0  0  0  0  0  0
   11.4107   10.2038   24.0650 H   0  0  0  0  0  0  0  0  0  0  0  0
   10.8375    8.6102   24.6009 H   0  0  0  0  0  0  0  0  0  0  0  0
   10.7885   15.8837   23.0642 H   0  0  0  0  0  0  0  0  0  0  0  0
   12.2686   14.9792   23.4636 H   0  0  0  0  0  0  0  0  0  0  0  0
   12.1870   15.8945   21.9634 H   0  0  0  0  0  0  0  0  0  0  0  0
    6.5263   12.1005   26.3268 H   0  0  0  0  0  0  0  0  0  0  0  0
    7.1622   10.6011   27.0518 H   0  0  0  0  0  0  0  0  0  0  0  0
   11.8666   13.4568   21.5252 H   0  0  0  0  0  0  0  0  0  0  0  0
   10.3816   14.3584   21.1251 H   0  0  0  0  0  0  0  0  0  0  0  0
   11.0349    8.0515   22.3076 H   0  0  0  0  0  0  0  0  0  0  0  0
    4.9713   10.4622   26.4946 H   0  0  0  0  0  0  0  0  0  0  0  0
  1  6  1  0  0  0  0
  1 13  2  0  0  0  0
  1 16  1  0  0  0  0
  2  6  1  0  0  0  0
  2  8  1  0  0  0  0
  3  6  1  0  0  0  0
  3  8  1  0  0  0  0
  4  7  1  0  0  0  0
  4 12  1  0  0  0  0
  5  7  1  0  0  0  0
  5 12  1  0  0  0  0
  6  7  1  0  0  0  0
  7 14  1  0  0  0  0
  8 10  1  0  0  0  0
  8 14  1  0  0  0  0
  9 11  1  0  0  0  0
 10 15  1  0  0  0  0
 11 16  1  0  0  0  0
  2 17  1  0  0  0  0
  2 18  1  0  0  0  0
  3 19  1  0  0  0  0
  3 20  1  0  0  0  0
  4 21  1  0  0  0  0
  4 22  1  0  0  0  0
  5 23  1  0  0  0  0
  5 24  1  0  0  0  0
  9 25  1  0  0  0  0
  9 26  1  0  0  0  0
  9 27  1  0  0  0  0
 10 28  1  0  0  0  0
 10 29  1  0  0  0  0
 11 30  1  0  0  0  0
 11 31  1  0  0  0  0
 12 32  1  0  0  0  0
 15 33  1  0  0  0  0
M  END
> <id>
EN300-6497645

> <smiles>
CCOC(=O)C1(CC2(CO)C1)C3(CNC3)O2

> <MDLNUMBER>
MFCD31719065

> <IUPAC Name>
ethyl 4'-(hydroxymethyl)-3'-oxaspiro[azetidine-3,2'-bicyclo[2.1.1]hexane]-1'-carboxylate

> <CAS>
2490402-21-4

> <URL>
https://www.enaminestore.com/catalog/EN300-6497645

> <ROCS_ShapeQuery>
x0812_0A_x1140_0A_x1097_0A_x0365_0A_x1097_0A_x0310_0A

> <ROCS_TanimotoCombo>
0.708 

> <ROCS_ShapeTanimoto>
0.270 

> <ROCS_ColorTanimoto>
0.439 

> <ROCS_RefTversky>
0.238 

> <ROCS_RefColorTversky>
0.585 

> <ROCS_RefTverskyCombo>
0.823 

> <ROCS_FitTversky>
1.987 

> <ROCS_FitColorTversky>
0.637 

> <ROCS_FitTverskyCombo>
2.623 

> <ROCS_ColorScore>
-8.823

> <ROCS_Overlap>
2405.580

> <ROCS_Rank>
251                 

$$$$
untitled-dbase-565078_2
  -OEChem-02092408543D

 36 37  0     0  0  0  0  0  0999 V2000
   10.7247   12.2269   21.9243 C   0  0  0  0  0  0  0  0  0  0  0  0
    8.5786   11.8433   25.1432 C   0  0  0  0  0  0  0  0  0  0  0  0
    7.6576   11.7453   23.2686 C   0  0  0  0  0  0  0  0  0  0  0  0
    9.3838   10.0376   23.6758 C   0  0  0  0  0  0  0  0  0  0  0  0
    9.1374   11.5471   23.7185 C   0  0  0  0  0  0  0  0  0  0  0  0
    7.4871   10.8526   24.5650 C   0  0  0  0  0  0  0  0  0  0  0  0
   11.2870   13.2709   19.3275 C   0  0  0  0  0  0  0  0  0  0  0  0
   13.3230   14.2952   20.3831 C   0  0  0  0  0  0  0  0  0  0  0  0
   13.0629   11.7977   20.3326 C   0  0  0  0  0  0  0  0  0  0  0  0
    6.1548   10.6822   25.2281 C   0  0  0  0  0  0  0  0  0  0  0  0
   12.3312   13.1352   20.4347 C   0  0  0  0  0  0  0  0  0  0  0  0
    6.3098   10.2059   26.5721 N   0  0  0  0  0  0  0  0  0  0  0  0
   10.1578   12.3968   23.1764 N   0  0  0  0  0  0  0  0  0  0  0  0
   10.4333   11.3415   21.1270 O   0  0  0  0  0  0  0  0  0  0  0  0
    8.1643    9.5883   24.2980 O   0  0  0  0  0  0  0  0  0  0  0  0
   11.6637   13.1942   21.7003 O   0  0  0  0  0  0  0  0  0  0  0  0
    9.1671   11.4644   25.9839 H   0  0  0  0  0  0  0  0  0  0  0  0
    8.2582   12.8692   25.3557 H   0  0  0  0  0  0  0  0  0  0  0  0
    7.2512   12.7620   23.3064 H   0  0  0  0  0  0  0  0  0  0  0  0
    7.3700   11.2731   22.3247 H   0  0  0  0  0  0  0  0  0  0  0  0
    9.4468    9.6401   22.6588 H   0  0  0  0  0  0  0  0  0  0  0  0
   10.2418    9.7237   24.2768 H   0  0  0  0  0  0  0  0  0  0  0  0
   10.5732   12.4400   19.3611 H   0  0  0  0  0  0  0  0  0  0  0  0
   10.7311   14.2105   19.4102 H   0  0  0  0  0  0  0  0  0  0  0  0
   11.7584   13.2336   18.3387 H   0  0  0  0  0  0  0  0  0  0  0  0
   14.0741   14.2019   21.1759 H   0  0  0  0  0  0  0  0  0  0  0  0
   12.8143   15.2514   20.5509 H   0  0  0  0  0  0  0  0  0  0  0  0
   13.8402   14.3421   19.4194 H   0  0  0  0  0  0  0  0  0  0  0  0
   13.8120   11.7001   21.1267 H   0  0  0  0  0  0  0  0  0  0  0  0
   12.3706   10.9526   20.4048 H   0  0  0  0  0  0  0  0  0  0  0  0
   13.6065   11.7224   19.3839 H   0  0  0  0  0  0  0  0  0  0  0  0
    5.6422   11.6528   25.2428 H   0  0  0  0  0  0  0  0  0  0  0  0
    5.5645    9.9585   24.6513 H   0  0  0  0  0  0  0  0  0  0  0  0
    5.8412    9.3272   26.6741 H   0  0  0  0  0  0  0  0  0  0  0  0
    7.2825   10.0879   26.7768 H   0  0  0  0  0  0  0  0  0  0  0  0
   10.4865   13.1748   23.7488 H   0  0  0  0  0  0  0  0  0  0  0  0
  1 13  1  0  0  0  0
  1 14  2  0  0  0  0
  1 16  1  0  0  0  0
  2  5  1  0  0  0  0
  2  6  1  0  0  0  0
  3  5  1  0  0  0  0
  3  6  1  0  0  0  0
  4  5  1  0  0  0  0
  4 15  1  0  0  0  0
  5 13  1  0  0  0  0
  6 10  1  0  0  0  0
  6 15  1  0  0  0  0
  7 11  1  0  0  0  0
  8 11  1  0  0  0  0
  9 11  1  0  0  0  0
 10 12  1  0  0  0  0
 11 16  1  0  0  0  0
  2 17  1  0  0  0  0
  2 18  1  0  0  0  0
  3 19  1  0  0  0  0
  3 20  1  0  0  0  0
  4 21  1  0  0  0  0
  4 22  1  0  0  0  0
  7 23  1  0  0  0  0
  7 24  1  0  0  0  0
  7 25  1  0  0  0  0
  8 26  1  0  0  0  0
  8 27  1  0  0  0  0
  8 28  1  0  0  0  0
  9 29  1  0  0  0  0
  9 30  1  0  0  0  0
  9 31  1  0  0  0  0
 10 32  1  0  0  0  0
 10 33  1  0  0  0  0
 12 34  1  0  0  0  0
 12 35  1  0  0  0  0
 13 36  1  0  0  0  0
M  END
> <id>
EN300-39854524

> <smiles>
Cl.CC(C)(C)OC(=O)NC1(CC2(CN)C1)CO2

> <IUPAC Name>
tert-butyl N-[1-(aminomethyl)-2-oxabicyclo[2.1.1]hexan-4-yl]carbamate hydrochloride

> <Purity>
95

> <URL>
https://www.enaminestore.com/catalog/EN300-39854524

> <ROCS_ShapeQuery>
x0812_0A_x1140_0A_x1097_0A_x0365_0A_x1097_0A_x0310_0A

> <ROCS_TanimotoCombo>
0.708 

> <ROCS_ShapeTanimoto>
0.223 

> <ROCS_ColorTanimoto>
0.485 

> <ROCS_RefTversky>
0.204 

> <ROCS_RefColorTversky>
0.607 

> <ROCS_RefTverskyCombo>
0.811 

> <ROCS_FitTversky>
1.716 

> <ROCS_FitColorTversky>
0.708 

> <ROCS_FitTverskyCombo>
2.424 

> <ROCS_ColorScore>
-9.122

> <ROCS_Overlap>
2062.422

> <ROCS_Rank>
252                 

$$$$
untitled-dbase-569802_2
  -OEChem-02092408543D

 36 37  0     0  0  0  0  0  0999 V2000
   10.7247   12.2269   21.9243 C   0  0  0  0  0  0  0  0  0  0  0  0
    8.5786   11.8433   25.1432 C   0  0  0  0  0  0  0  0  0  0  0  0
    7.6576   11.7453   23.2686 C   0  0  0  0  0  0  0  0  0  0  0  0
    9.3838   10.0376   23.6758 C   0  0  0  0  0  0  0  0  0  0  0  0
    9.1374   11.5471   23.7185 C   0  0  0  0  0  0  0  0  0  0  0  0
    7.4871   10.8526   24.5650 C   0  0  0  0  0  0  0  0  0  0  0  0
   11.2870   13.2709   19.3275 C   0  0  0  0  0  0  0  0  0  0  0  0
   13.3230   14.2952   20.3831 C   0  0  0  0  0  0  0  0  0  0  0  0
   13.0629   11.7977   20.3326 C   0  0  0  0  0  0  0  0  0  0  0  0
    6.1548   10.6822   25.2281 C   0  0  0  0  0  0  0  0  0  0  0  0
   12.3312   13.1352   20.4347 C   0  0  0  0  0  0  0  0  0  0  0  0
    6.3098   10.2059   26.5721 N   0  0  0  0  0  0  0  0  0  0  0  0
   10.1578   12.3968   23.1764 N   0  0  0  0  0  0  0  0  0  0  0  0
   10.4333   11.3415   21.1270 O   0  0  0  0  0  0  0  0  0  0  0  0
    8.1643    9.5883   24.2980 O   0  0  0  0  0  0  0  0  0  0  0  0
   11.6637   13.1942   21.7003 O   0  0  0  0  0  0  0  0  0  0  0  0
    9.1671   11.4644   25.9839 H   0  0  0  0  0  0  0  0  0  0  0  0
    8.2582   12.8692   25.3557 H   0  0  0  0  0  0  0  0  0  0  0  0
    7.2512   12.7620   23.3064 H   0  0  0  0  0  0  0  0  0  0  0  0
    7.3700   11.2731   22.3247 H   0  0  0  0  0  0  0  0  0  0  0  0
    9.4468    9.6401   22.6588 H   0  0  0  0  0  0  0  0  0  0  0  0
   10.2418    9.7237   24.2768 H   0  0  0  0  0  0  0  0  0  0  0  0
   10.5732   12.4400   19.3611 H   0  0  0  0  0  0  0  0  0  0  0  0
   10.7311   14.2105   19.4102 H   0  0  0  0  0  0  0  0  0  0  0  0
   11.7584   13.2336   18.3387 H   0  0  0  0  0  0  0  0  0  0  0  0
   14.0741   14.2019   21.1759 H   0  0  0  0  0  0  0  0  0  0  0  0
   12.8143   15.2514   20.5509 H   0  0  0  0  0  0  0  0  0  0  0  0
   13.8402   14.3421   19.4194 H   0  0  0  0  0  0  0  0  0  0  0  0
   13.8120   11.7001   21.1267 H   0  0  0  0  0  0  0  0  0  0  0  0
   12.3706   10.9526   20.4048 H   0  0  0  0  0  0  0  0  0  0  0  0
   13.6065   11.7224   19.3839 H   0  0  0  0  0  0  0  0  0  0  0  0
    5.6422   11.6528   25.2428 H   0  0  0  0  0  0  0  0  0  0  0  0
    5.5645    9.9585   24.6513 H   0  0  0  0  0  0  0  0  0  0  0  0
    5.8412    9.3272   26.6741 H   0  0  0  0  0  0  0  0  0  0  0  0
    7.2825   10.0879   26.7768 H   0  0  0  0  0  0  0  0  0  0  0  0
   10.4865   13.1748   23.7488 H   0  0  0  0  0  0  0  0  0  0  0  0
  1 13  1  0  0  0  0
  1 14  2  0  0  0  0
  1 16  1  0  0  0  0
  2  5  1  0  0  0  0
  2  6  1  0  0  0  0
  3  5  1  0  0  0  0
  3  6  1  0  0  0  0
  4  5  1  0  0  0  0
  4 15  1  0  0  0  0
  5 13  1  0  0  0  0
  6 10  1  0  0  0  0
  6 15  1  0  0  0  0
  7 11  1  0  0  0  0
  8 11  1  0  0  0  0
  9 11  1  0  0  0  0
 10 12  1  0  0  0  0
 11 16  1  0  0  0  0
  2 17  1  0  0  0  0
  2 18  1  0  0  0  0
  3 19  1  0  0  0  0
  3 20  1  0  0  0  0
  4 21  1  0  0  0  0
  4 22  1  0  0  0  0
  7 23  1  0  0  0  0
  7 24  1  0  0  0  0
  7 25  1  0  0  0  0
  8 26  1  0  0  0  0
  8 27  1  0  0  0  0
  8 28  1  0  0  0  0
  9 29  1  0  0  0  0
  9 30  1  0  0  0  0
  9 31  1  0  0  0  0
 10 32  1  0  0  0  0
 10 33  1  0  0  0  0
 12 34  1  0  0  0  0
 12 35  1  0  0  0  0
 13 36  1  0  0  0  0
M  END
> <id>
EN300-6942267

> <smiles>
CC(C)(C)OC(=O)NC1(CC2(CN)C1)CO2

> <MDLNUMBER>
MFCD32767670

> <IUPAC Name>
tert-butyl N-[1-(aminomethyl)-2-oxabicyclo[2.1.1]hexan-4-yl]carbamate

> <URL>
https://www.enaminestore.com/catalog/EN300-6942267

> <ROCS_ShapeQuery>
x0812_0A_x1140_0A_x1097_0A_x0365_0A_x1097_0A_x0310_0A

> <ROCS_TanimotoCombo>
0.708 

> <ROCS_ShapeTanimoto>
0.223 

> <ROCS_ColorTanimoto>
0.485 

> <ROCS_RefTversky>
0.204 

> <ROCS_RefColorTversky>
0.607 

> <ROCS_RefTverskyCombo>
0.811 

> <ROCS_FitTversky>
1.716 

> <ROCS_FitColorTversky>
0.708 

> <ROCS_FitTverskyCombo>
2.424 

> <ROCS_ColorScore>
-9.122

> <ROCS_Overlap>
2062.422

> <ROCS_Rank>
253                 

$$$$
untitled-dbase-492204_3
  -OEChem-02092408543D

 35 36  0     1  0  0  0  0  0999 V2000
    7.8120   10.4346   26.9249 C   0  0  0  0  0  0  0  0  0  0  0  0
    7.4830   10.6900   23.3422 C   0  0  0  0  0  0  0  0  0  0  0  0
    7.7884   12.2235   25.1211 C   0  0  0  0  0  0  0  0  0  0  0  0
    8.1522   12.0408   23.6372 C   0  0  1  0  0  0  0  0  0  0  0  0
    8.2201    9.9791   24.4800 C   0  0  1  0  0  0  0  0  0  0  0  0
    9.6511   11.6682   23.5272 C   0  0  1  0  0  0  0  0  0  0  0  0
    9.6943   10.2296   24.1037 C   0  0  2  0  0  0  0  0  0  0  0  0
    6.3999   10.1447   29.3919 C   0  0  0  0  0  0  0  0  0  0  0  0
    6.2923   12.6542   29.4125 C   0  0  0  0  0  0  0  0  0  0  0  0
    5.1816   11.3699   27.5618 C   0  0  0  0  0  0  0  0  0  0  0  0
    6.3608   11.4077   28.5327 C   0  0  0  0  0  0  0  0  0  0  0  0
    7.9112   10.8526   25.6148 N   0  0  0  0  0  0  0  0  0  0  0  0
    7.9233    9.2665   27.2887 O   0  0  0  0  0  0  0  0  0  0  0  0
   10.0575   11.7223   22.1696 O   0  0  0  0  0  0  0  0  0  0  0  0
   10.1130    9.2672   23.1501 O   0  0  0  0  0  0  0  0  0  0  0  0
    7.5734   11.4809   27.7747 O   0  0  0  0  0  0  0  0  0  0  0  0
    6.3964   10.7081   23.4814 H   0  0  0  0  0  0  0  0  0  0  0  0
    7.7164   10.2934   22.3487 H   0  0  0  0  0  0  0  0  0  0  0  0
    8.4626   12.8907   25.6661 H   0  0  0  0  0  0  0  0  0  0  0  0
    6.7523   12.5491   25.2605 H   0  0  0  0  0  0  0  0  0  0  0  0
    7.8345   12.8556   22.9836 H   0  0  0  0  0  0  0  0  0  0  0  0
    7.9510    8.9331   24.6413 H   0  0  0  0  0  0  0  0  0  0  0  0
   10.2710   12.3595   24.1082 H   0  0  0  0  0  0  0  0  0  0  0  0
   10.3458   10.1580   24.9817 H   0  0  0  0  0  0  0  0  0  0  0  0
    6.4491    9.2478   28.7641 H   0  0  0  0  0  0  0  0  0  0  0  0
    7.2609   10.1434   30.0682 H   0  0  0  0  0  0  0  0  0  0  0  0
    5.4878   10.0520   29.9925 H   0  0  0  0  0  0  0  0  0  0  0  0
    6.2641   13.5627   28.8002 H   0  0  0  0  0  0  0  0  0  0  0  0
    7.1841   12.7354   30.0444 H   0  0  0  0  0  0  0  0  0  0  0  0
    5.4089   12.6442   30.0591 H   0  0  0  0  0  0  0  0  0  0  0  0
    5.1533   12.2757   26.9454 H   0  0  0  0  0  0  0  0  0  0  0  0
    5.2340   10.5013   26.8973 H   0  0  0  0  0  0  0  0  0  0  0  0
    4.2303   11.3358   28.1051 H   0  0  0  0  0  0  0  0  0  0  0  0
    9.9078   12.6330   21.8652 H   0  0  0  0  0  0  0  0  0  0  0  0
   10.0088    8.3942   23.5640 H   0  0  0  0  0  0  0  0  0  0  0  0
  1 12  1  0  0  0  0
  1 13  2  0  0  0  0
  1 16  1  0  0  0  0
  2  4  1  1  0  0  0
  2  5  1  1  0  0  0
  3  4  1  0  0  0  0
  3 12  1  0  0  0  0
  4  6  1  0  0  0  0
  5  7  1  0  0  0  0
  5 12  1  0  0  0  0
  6  7  1  0  0  0  0
  6 14  1  1  0  0  0
  7 15  1  1  0  0  0
  8 11  1  0  0  0  0
  9 11  1  0  0  0  0
 10 11  1  0  0  0  0
 11 16  1  0  0  0  0
  2 17  1  0  0  0  0
  2 18  1  0  0  0  0
  3 19  1  0  0  0  0
  3 20  1  0  0  0  0
  4 21  1  0  0  0  0
  5 22  1  0  0  0  0
  6 23  1  0  0  0  0
  7 24  1  0  0  0  0
  8 25  1  0  0  0  0
  8 26  1  0  0  0  0
  8 27  1  0  0  0  0
  9 28  1  0  0  0  0
  9 29  1  0  0  0  0
  9 30  1  0  0  0  0
 10 31  1  0  0  0  0
 10 32  1  0  0  0  0
 10 33  1  0  0  0  0
 14 34  1  0  0  0  0
 15 35  1  0  0  0  0
M  END
> <id>
EN300-7254121

> <smiles>
CC(C)(C)OC(=O)N1C[C@@H]2C[C@H]1[C@@H](O)[C@H]2O |&1:9,11,12,14,r|

> <IUPAC Name>
rac-tert-butyl (1R,4R,5R,6S)-5,6-dihydroxy-2-azabicyclo[2.2.1]heptane-2-carboxylate

> <CAS>
2639390-14-8

> <URL>
https://www.enaminestore.com/catalog/EN300-7254121

> <ROCS_ShapeQuery>
x0812_0A_x1140_0A_x1097_0A_x0365_0A_x1097_0A_x0310_0A

> <ROCS_TanimotoCombo>
0.708 

> <ROCS_ShapeTanimoto>
0.212 

> <ROCS_ColorTanimoto>
0.496 

> <ROCS_RefTversky>
0.196 

> <ROCS_RefColorTversky>
0.608 

> <ROCS_RefTverskyCombo>
0.804 

> <ROCS_FitTversky>
1.636 

> <ROCS_FitColorTversky>
0.729 

> <ROCS_FitTverskyCombo>
2.365 

> <ROCS_ColorScore>
-9.121

> <ROCS_Overlap>
1981.380

> <ROCS_Rank>
254                 

$$$$
untitled-dbase-260924_0
  -OEChem-02092408543D

 18 20  0     1  0  0  0  0  0999 V2000
    9.0378   10.8535   25.9000 C   0  0  0  0  0  0  0  0  0  0  0  0
    7.7055   10.9958   25.8499 C   0  0  0  0  0  0  0  0  0  0  0  0
    9.3004   11.5499   22.1238 C   0  0  0  0  0  0  0  0  0  0  0  0
    7.7841   11.8017   22.0417 C   0  0  0  0  0  0  0  0  0  0  0  0
    9.4601   10.4868   24.5067 C   0  0  2  0  0  0  0  0  0  0  0  0
    7.3195   10.7169   24.4250 C   0  0  1  0  0  0  0  0  0  0  0  0
    9.3281   11.7493   23.6506 C   0  0  2  0  0  0  0  0  0  0  0  0
    7.7728   11.9266   23.5894 C   0  0  1  0  0  0  0  0  0  0  0  0
   10.1489   11.2793   21.2999 O   0  0  0  0  0  0  0  0  0  0  0  0
    8.3086    9.7166   24.0922 O   0  0  0  0  0  0  0  0  0  0  0  0
    9.6765   11.0173   26.7521 H   0  0  0  0  0  0  0  0  0  0  0  0
    7.0542   11.2990   26.6527 H   0  0  0  0  0  0  0  0  0  0  0  0
    7.5322   12.7221   21.5078 H   0  0  0  0  0  0  0  0  0  0  0  0
    7.2121   10.9656   21.6326 H   0  0  0  0  0  0  0  0  0  0  0  0
   10.3879    9.9206   24.4144 H   0  0  0  0  0  0  0  0  0  0  0  0
    6.3016   10.3608   24.2611 H   0  0  0  0  0  0  0  0  0  0  0  0
    9.9038   12.6260   23.9619 H   0  0  0  0  0  0  0  0  0  0  0  0
    7.3928   12.8931   23.9403 H   0  0  0  0  0  0  0  0  0  0  0  0
  1  2  2  0  0  0  0
  1  5  1  0  0  0  0
  2  6  1  0  0  0  0
  3  4  1  0  0  0  0
  3  7  1  1  0  0  0
  3  9  2  0  0  0  0
  4  8  1  1  0  0  0
  5  7  1  0  0  0  0
  5 10  1  1  0  0  0
  6  8  1  0  0  0  0
  6 10  1  1  0  0  0
  7  8  1  0  0  0  0
  1 11  1  0  0  0  0
  2 12  1  0  0  0  0
  4 13  1  0  0  0  0
  4 14  1  0  0  0  0
  5 15  1  0  0  0  0
  6 16  1  0  0  0  0
  7 17  1  0  0  0  0
  8 18  1  0  0  0  0
M  END
> <id>
EN300-7539725

> <smiles>
O=C1C[C@@H]2[C@H]1[C@@H]3O[C@H]2C=C3 |&1:3,4,5,7,r|

> <IUPAC Name>
rac-(1R,2S,5R,6S)-9-oxatricyclo[4.2.1.0,2,5]non-7-en-3-one

> <CAS>
1932207-89-0

> <Purity>
95

> <URL>
https://www.enaminestore.com/catalog/EN300-7539725

> <ROCS_ShapeQuery>
x0812_0A_x1140_0A_x1097_0A_x0365_0A_x1097_0A_x0310_0A

> <ROCS_TanimotoCombo>
0.708 

> <ROCS_ShapeTanimoto>
0.177 

> <ROCS_ColorTanimoto>
0.531 

> <ROCS_RefTversky>
0.165 

> <ROCS_RefColorTversky>
0.664 

> <ROCS_RefTverskyCombo>
0.828 

> <ROCS_FitTversky>
1.702 

> <ROCS_FitColorTversky>
0.727 

> <ROCS_FitTverskyCombo>
2.429 

> <ROCS_ColorScore>
-9.999

> <ROCS_Overlap>
1664.375

> <ROCS_Rank>
255                 

$$$$
untitled-dbase-304876_5
  -OEChem-02092408543D

 37 38  0     1  0  0  0  0  0999 V2000
    9.8934   12.1360   22.3966 C   0  0  0  0  0  0  0  0  0  0  0  0
    7.7968   12.3482   25.2882 C   0  0  0  0  0  0  0  0  0  0  0  0
    6.7927   11.9000   24.2149 C   0  0  0  0  0  0  0  0  0  0  0  0
    9.4487   10.4250   25.2761 C   0  0  0  0  0  0  0  0  0  0  0  0
    7.7646    9.6935   23.4272 C   0  0  0  0  0  0  0  0  0  0  0  0
    9.1591   11.8604   24.7809 C   0  0  1  0  0  0  0  0  0  0  0  0
    7.6427   11.2069   23.1404 C   0  0  2  0  0  0  0  0  0  0  0  0
    8.9935    9.3281   24.2893 C   0  0  0  0  0  0  0  0  0  0  0  0
   11.6491   14.0502   21.2048 C   0  0  0  0  0  0  0  0  0  0  0  0
   13.3458   13.2627   22.8812 C   0  0  0  0  0  0  0  0  0  0  0  0
   12.4387   11.6606   21.1728 C   0  0  0  0  0  0  0  0  0  0  0  0
   12.1250   12.8707   22.0515 C   0  0  0  0  0  0  0  0  0  0  0  0
    8.9459   11.8161   23.3474 N   0  0  0  0  0  0  0  0  0  0  0  0
    9.6971   12.0935   21.1844 O   0  0  0  0  0  0  0  0  0  0  0  0
   10.0972    9.0618   23.4132 O   0  0  0  0  0  0  0  0  0  0  0  0
   11.0805   12.5135   22.9633 O   0  0  0  0  0  0  0  0  0  0  0  0
    7.7892   13.4429   25.3565 H   0  0  0  0  0  0  0  0  0  0  0  0
    7.5448   11.9526   26.2778 H   0  0  0  0  0  0  0  0  0  0  0  0
    6.0145   11.2477   24.6261 H   0  0  0  0  0  0  0  0  0  0  0  0
    6.2964   12.7819   23.7912 H   0  0  0  0  0  0  0  0  0  0  0  0
   10.5289   10.3179   25.4753 H   0  0  0  0  0  0  0  0  0  0  0  0
    8.9626   10.2566   26.2510 H   0  0  0  0  0  0  0  0  0  0  0  0
    6.8532    9.3287   23.9268 H   0  0  0  0  0  0  0  0  0  0  0  0
    7.8078    9.1420   22.4731 H   0  0  0  0  0  0  0  0  0  0  0  0
    9.9729   12.5393   25.0678 H   0  0  0  0  0  0  0  0  0  0  0  0
    7.2613   11.3807   22.1276 H   0  0  0  0  0  0  0  0  0  0  0  0
    8.8032    8.4064   24.8346 H   0  0  0  0  0  0  0  0  0  0  0  0
   10.7729   13.7728   20.6078 H   0  0  0  0  0  0  0  0  0  0  0  0
   11.3876   14.9131   21.8259 H   0  0  0  0  0  0  0  0  0  0  0  0
   12.4234   14.3581   20.4928 H   0  0  0  0  0  0  0  0  0  0  0  0
   13.6907   12.4194   23.4903 H   0  0  0  0  0  0  0  0  0  0  0  0
   13.0992   14.0689   23.5816 H   0  0  0  0  0  0  0  0  0  0  0  0
   14.1748   13.5951   22.2480 H   0  0  0  0  0  0  0  0  0  0  0  0
   12.7801   10.8144   21.7799 H   0  0  0  0  0  0  0  0  0  0  0  0
   11.5633   11.3422   20.5975 H   0  0  0  0  0  0  0  0  0  0  0  0
   13.2514   11.8872   20.4733 H   0  0  0  0  0  0  0  0  0  0  0  0
   10.8312    8.7628   23.9731 H   0  0  0  0  0  0  0  0  0  0  0  0
  1 13  1  0  0  0  0
  1 14  2  0  0  0  0
  1 16  1  0  0  0  0
  2  3  1  0  0  0  0
  2  6  1  0  0  0  0
  3  7  1  0  0  0  0
  4  6  1  0  0  0  0
  4  8  1  0  0  0  0
  5  7  1  0  0  0  0
  5  8  1  0  0  0  0
  6 13  1  6  0  0  0
  7 13  1  6  0  0  0
  8 15  1  6  0  0  0
  9 12  1  0  0  0  0
 10 12  1  0  0  0  0
 11 12  1  0  0  0  0
 12 16  1  0  0  0  0
  2 17  1  0  0  0  0
  2 18  1  0  0  0  0
  3 19  1  0  0  0  0
  3 20  1  0  0  0  0
  4 21  1  0  0  0  0
  4 22  1  0  0  0  0
  5 23  1  0  0  0  0
  5 24  1  0  0  0  0
  6 25  1  0  0  0  0
  7 26  1  0  0  0  0
  8 27  1  0  0  0  0
  9 28  1  0  0  0  0
  9 29  1  0  0  0  0
  9 30  1  0  0  0  0
 10 31  1  0  0  0  0
 10 32  1  0  0  0  0
 10 33  1  0  0  0  0
 11 34  1  0  0  0  0
 11 35  1  0  0  0  0
 11 36  1  0  0  0  0
 15 37  1  0  0  0  0
M  END
> <id>
EN300-6488756

> <smiles>
CC(C)(C)OC(=O)N1[C@H]2CC[C@@H]1C[C@@H](O)C2

> <MDLNUMBER>
MFCD16294321

> <IUPAC Name>
tert-butyl (1R,3S,5S)-3-hydroxy-8-azabicyclo[3.2.1]octane-8-carboxylate

> <CAS>
194222-05-4

> <Purity>
95

> <URL>
https://www.enaminestore.com/catalog/EN300-6488756

> <MP>
139-141

> <ROCS_ShapeQuery>
x0812_0A_x1140_0A_x1097_0A_x0365_0A_x1097_0A_x0310_0A

> <ROCS_TanimotoCombo>
0.708 

> <ROCS_ShapeTanimoto>
0.228 

> <ROCS_ColorTanimoto>
0.479 

> <ROCS_RefTversky>
0.208 

> <ROCS_RefColorTversky>
0.544 

> <ROCS_RefTverskyCombo>
0.752 

> <ROCS_FitTversky>
1.753 

> <ROCS_FitColorTversky>
0.800 

> <ROCS_FitTverskyCombo>
2.553 

> <ROCS_ColorScore>
-8.097

> <ROCS_Overlap>
2105.268

> <ROCS_Rank>
256                 

$$$$
untitled-dbase-568745_5
  -OEChem-02092408543D

 23 24  0     0  0  0  0  0  0999 V2000
    8.4412   11.9317   25.1666 C   0  0  0  0  0  0  0  0  0  0  0  0
    7.9770   11.6780   23.1396 C   0  0  0  0  0  0  0  0  0  0  0  0
    9.4517    9.9600   24.0992 C   0  0  0  0  0  0  0  0  0  0  0  0
    9.3206   11.4903   23.9379 C   0  0  0  0  0  0  0  0  0  0  0  0
    7.4611   10.9349   24.4332 C   0  0  0  0  0  0  0  0  0  0  0  0
    6.0024   10.8862   24.7726 C   0  0  0  0  0  0  0  0  0  0  0  0
   10.5611   12.2416   23.5590 C   0  0  0  0  0  0  0  0  0  0  0  0
    5.9331   11.6305   27.2833 O   0  0  0  0  0  0  0  0  0  0  0  0
    6.4208    9.2057   26.7381 O   0  0  0  0  0  0  0  0  0  0  0  0
    8.0979    9.6275   24.4510 O   0  0  0  0  0  0  0  0  0  0  0  0
   10.2226   13.5096   23.2371 F   0  0  0  0  0  0  0  0  0  0  0  0
   11.0966   11.6730   22.4563 F   0  0  0  0  0  0  0  0  0  0  0  0
    4.1856   10.1140   26.5818 F   0  0  0  0  0  0  0  0  0  0  0  0
    5.7322   10.4513   26.4654 S   0  0  0  0  0  0  0  0  0  0  0  0
    8.7965   11.6167   26.1520 H   0  0  0  0  0  0  0  0  0  0  0  0
    8.1401   12.9843   25.2087 H   0  0  0  0  0  0  0  0  0  0  0  0
    7.6308   12.7059   22.9847 H   0  0  0  0  0  0  0  0  0  0  0  0
    7.8919   11.1219   22.2015 H   0  0  0  0  0  0  0  0  0  0  0  0
    9.7260    9.4582   23.1669 H   0  0  0  0  0  0  0  0  0  0  0  0
   10.1261    9.6764   24.9123 H   0  0  0  0  0  0  0  0  0  0  0  0
    5.4705   10.1386   24.1685 H   0  0  0  0  0  0  0  0  0  0  0  0
    5.5175   11.8596   24.6181 H   0  0  0  0  0  0  0  0  0  0  0  0
   11.2913   12.2467   24.3643 H   0  0  0  0  0  0  0  0  0  0  0  0
  1  4  1  0  0  0  0
  1  5  1  0  0  0  0
  2  4  1  0  0  0  0
  2  5  1  0  0  0  0
  3  4  1  0  0  0  0
  3 10  1  0  0  0  0
  4  7  1  0  0  0  0
  5  6  1  0  0  0  0
  5 10  1  0  0  0  0
  6 14  1  0  0  0  0
  7 11  1  0  0  0  0
  7 12  1  0  0  0  0
  8 14  2  0  0  0  0
  9 14  2  0  0  0  0
 13 14  1  0  0  0  0
  1 15  1  0  0  0  0
  1 16  1  0  0  0  0
  2 17  1  0  0  0  0
  2 18  1  0  0  0  0
  3 19  1  0  0  0  0
  3 20  1  0  0  0  0
  6 21  1  0  0  0  0
  6 22  1  0  0  0  0
  7 23  1  0  0  0  0
M  END
> <id>
EN300-27780822

> <smiles>
FC(F)C1(CC2(CS(=O)(=O)F)C1)CO2

> <IUPAC Name>
[4-(difluoromethyl)-2-oxabicyclo[2.1.1]hexan-1-yl]methanesulfonyl fluoride

> <CAS>
2757928-45-1

> <URL>
https://www.enaminestore.com/catalog/EN300-27780822

> <ROCS_ShapeQuery>
x0812_0A_x1140_0A_x1097_0A_x0365_0A_x1097_0A_x0310_0A

> <ROCS_TanimotoCombo>
0.708 

> <ROCS_ShapeTanimoto>
0.234 

> <ROCS_ColorTanimoto>
0.474 

> <ROCS_RefTversky>
0.210 

> <ROCS_RefColorTversky>
0.499 

> <ROCS_RefTverskyCombo>
0.709 

> <ROCS_FitTversky>
1.921 

> <ROCS_FitColorTversky>
0.905 

> <ROCS_FitTverskyCombo>
2.827 

> <ROCS_ColorScore>
-7.372

> <ROCS_Overlap>
2123.594

> <ROCS_Rank>
257                 

$$$$
untitled-dbase-257329_1
  -OEChem-02092408543D

 31 32  0     1  0  0  0  0  0999 V2000
   10.4268   11.9127   22.4974 C   0  0  0  0  0  0  0  0  0  0  0  0
    7.7882   12.1145   25.2552 C   0  0  0  0  0  0  0  0  0  0  0  0
    7.6686   10.6252   25.6111 C   0  0  0  0  0  0  0  0  0  0  0  0
    7.5361   10.8644   23.2520 C   0  0  0  0  0  0  0  0  0  0  0  0
    9.7593   11.5978   23.8052 C   0  0  1  0  0  0  0  0  0  0  0  0
    8.2900   12.0792   23.8014 C   0  0  2  0  0  0  0  0  0  0  0  0
    8.1016    9.9178   24.3113 C   0  0  1  0  0  0  0  0  0  0  0  0
    9.6329   10.0859   24.1368 C   0  0  1  0  0  0  0  0  0  0  0  0
   12.6446   12.6151   21.5840 C   0  0  0  0  0  0  0  0  0  0  0  0
   11.7463   13.7385   23.5866 C   0  0  0  0  0  0  0  0  0  0  0  0
   10.1606    9.1951   23.1064 N   0  0  0  0  0  0  0  0  0  0  0  0
   11.5614   12.7230   22.5530 N   0  0  0  0  0  0  0  0  0  0  0  0
    9.9546   11.4525   21.4544 O   0  0  0  0  0  0  0  0  0  0  0  0
    6.8058   12.5962   25.3167 H   0  0  0  0  0  0  0  0  0  0  0  0
    8.4706   12.6458   25.9260 H   0  0  0  0  0  0  0  0  0  0  0  0
    8.2959   10.3545   26.4663 H   0  0  0  0  0  0  0  0  0  0  0  0
    6.6296   10.3806   25.8595 H   0  0  0  0  0  0  0  0  0  0  0  0
    6.4476   10.9734   23.3107 H   0  0  0  0  0  0  0  0  0  0  0  0
    7.8146   10.6017   22.2274 H   0  0  0  0  0  0  0  0  0  0  0  0
   10.3471   12.1074   24.5784 H   0  0  0  0  0  0  0  0  0  0  0  0
    8.1178   13.0103   23.2564 H   0  0  0  0  0  0  0  0  0  0  0  0
    7.7512    8.8844   24.2529 H   0  0  0  0  0  0  0  0  0  0  0  0
   10.1533    9.8624   25.0753 H   0  0  0  0  0  0  0  0  0  0  0  0
   12.4473   13.2878   20.7363 H   0  0  0  0  0  0  0  0  0  0  0  0
   13.5940   12.8973   22.0626 H   0  0  0  0  0  0  0  0  0  0  0  0
   12.7104   11.5786   21.2218 H   0  0  0  0  0  0  0  0  0  0  0  0
   12.2630   13.2939   24.4499 H   0  0  0  0  0  0  0  0  0  0  0  0
   12.3499   14.5654   23.1842 H   0  0  0  0  0  0  0  0  0  0  0  0
   10.7652   14.1214   23.9039 H   0  0  0  0  0  0  0  0  0  0  0  0
    9.4109    8.6476   22.7558 H   0  0  0  0  0  0  0  0  0  0  0  0
   10.5543    9.7533   22.3864 H   0  0  0  0  0  0  0  0  0  0  0  0
  1  5  1  1  0  0  0
  1 12  1  0  0  0  0
  1 13  2  0  0  0  0
  2  3  1  0  0  0  0
  2  6  1  0  0  0  0
  3  7  1  0  0  0  0
  4  6  1  1  0  0  0
  4  7  1  1  0  0  0
  5  6  1  0  0  0  0
  5  8  1  0  0  0  0
  7  8  1  0  0  0  0
  8 11  1  1  0  0  0
  9 12  1  0  0  0  0
 10 12  1  0  0  0  0
  2 14  1  0  0  0  0
  2 15  1  0  0  0  0
  3 16  1  0  0  0  0
  3 17  1  0  0  0  0
  4 18  1  0  0  0  0
  4 19  1  0  0  0  0
  5 20  1  0  0  0  0
  6 21  1  0  0  0  0
  7 22  1  0  0  0  0
  8 23  1  0  0  0  0
  9 24  1  0  0  0  0
  9 25  1  0  0  0  0
  9 26  1  0  0  0  0
 10 27  1  0  0  0  0
 10 28  1  0  0  0  0
 10 29  1  0  0  0  0
 11 30  1  0  0  0  0
 11 31  1  0  0  0  0
M  END
> <id>
EN300-37152244

> <smiles>
CN(C)C(=O)[C@@H]1[C@H](N)[C@H]2CC[C@@H]1C2 |&1:5,6,8,11,r|

> <IUPAC Name>
rac-(1R,2S,3R,4S)-3-amino-N,N-dimethylbicyclo[2.2.1]heptane-2-carboxamide

> <CAS>
2763583-87-3

> <URL>
https://www.enaminestore.com/catalog/EN300-37152244

> <ROCS_ShapeQuery>
x0812_0A_x1140_0A_x1097_0A_x0365_0A_x1097_0A_x0310_0A

> <ROCS_TanimotoCombo>
0.708 

> <ROCS_ShapeTanimoto>
0.232 

> <ROCS_ColorTanimoto>
0.475 

> <ROCS_RefTversky>
0.209 

> <ROCS_RefColorTversky>
0.531 

> <ROCS_RefTverskyCombo>
0.739 

> <ROCS_FitTversky>
1.966 

> <ROCS_FitColorTversky>
0.820 

> <ROCS_FitTverskyCombo>
2.787 

> <ROCS_ColorScore>
-7.879

> <ROCS_Overlap>
2108.263

> <ROCS_Rank>
258                 

$$$$
untitled-dbase-275603_1
  -OEChem-02092408543D

 31 32  0     1  0  0  0  0  0999 V2000
   10.4268   11.9127   22.4974 C   0  0  0  0  0  0  0  0  0  0  0  0
    7.7882   12.1145   25.2552 C   0  0  0  0  0  0  0  0  0  0  0  0
    7.6686   10.6252   25.6111 C   0  0  0  0  0  0  0  0  0  0  0  0
    7.5361   10.8644   23.2520 C   0  0  0  0  0  0  0  0  0  0  0  0
    9.7593   11.5978   23.8052 C   0  0  1  0  0  0  0  0  0  0  0  0
    8.2900   12.0792   23.8014 C   0  0  2  0  0  0  0  0  0  0  0  0
    8.1016    9.9178   24.3113 C   0  0  1  0  0  0  0  0  0  0  0  0
    9.6329   10.0859   24.1368 C   0  0  1  0  0  0  0  0  0  0  0  0
   12.6446   12.6151   21.5840 C   0  0  0  0  0  0  0  0  0  0  0  0
   11.7463   13.7385   23.5866 C   0  0  0  0  0  0  0  0  0  0  0  0
   10.1606    9.1951   23.1064 N   0  0  0  0  0  0  0  0  0  0  0  0
   11.5614   12.7230   22.5530 N   0  0  0  0  0  0  0  0  0  0  0  0
    9.9546   11.4525   21.4544 O   0  0  0  0  0  0  0  0  0  0  0  0
    6.8058   12.5962   25.3167 H   0  0  0  0  0  0  0  0  0  0  0  0
    8.4706   12.6458   25.9260 H   0  0  0  0  0  0  0  0  0  0  0  0
    8.2959   10.3545   26.4663 H   0  0  0  0  0  0  0  0  0  0  0  0
    6.6296   10.3806   25.8595 H   0  0  0  0  0  0  0  0  0  0  0  0
    6.4476   10.9734   23.3107 H   0  0  0  0  0  0  0  0  0  0  0  0
    7.8146   10.6017   22.2274 H   0  0  0  0  0  0  0  0  0  0  0  0
   10.3471   12.1074   24.5784 H   0  0  0  0  0  0  0  0  0  0  0  0
    8.1178   13.0103   23.2564 H   0  0  0  0  0  0  0  0  0  0  0  0
    7.7512    8.8844   24.2529 H   0  0  0  0  0  0  0  0  0  0  0  0
   10.1533    9.8624   25.0753 H   0  0  0  0  0  0  0  0  0  0  0  0
   12.4473   13.2878   20.7363 H   0  0  0  0  0  0  0  0  0  0  0  0
   13.5940   12.8973   22.0626 H   0  0  0  0  0  0  0  0  0  0  0  0
   12.7104   11.5786   21.2218 H   0  0  0  0  0  0  0  0  0  0  0  0
   12.2630   13.2939   24.4499 H   0  0  0  0  0  0  0  0  0  0  0  0
   12.3499   14.5654   23.1842 H   0  0  0  0  0  0  0  0  0  0  0  0
   10.7652   14.1214   23.9039 H   0  0  0  0  0  0  0  0  0  0  0  0
    9.4109    8.6476   22.7558 H   0  0  0  0  0  0  0  0  0  0  0  0
   10.5543    9.7533   22.3864 H   0  0  0  0  0  0  0  0  0  0  0  0
  1  5  1  1  0  0  0
  1 12  1  0  0  0  0
  1 13  2  0  0  0  0
  2  3  1  0  0  0  0
  2  6  1  0  0  0  0
  3  7  1  0  0  0  0
  4  6  1  1  0  0  0
  4  7  1  1  0  0  0
  5  6  1  0  0  0  0
  5  8  1  0  0  0  0
  7  8  1  0  0  0  0
  8 11  1  1  0  0  0
  9 12  1  0  0  0  0
 10 12  1  0  0  0  0
  2 14  1  0  0  0  0
  2 15  1  0  0  0  0
  3 16  1  0  0  0  0
  3 17  1  0  0  0  0
  4 18  1  0  0  0  0
  4 19  1  0  0  0  0
  5 20  1  0  0  0  0
  6 21  1  0  0  0  0
  7 22  1  0  0  0  0
  8 23  1  0  0  0  0
  9 24  1  0  0  0  0
  9 25  1  0  0  0  0
  9 26  1  0  0  0  0
 10 27  1  0  0  0  0
 10 28  1  0  0  0  0
 10 29  1  0  0  0  0
 11 30  1  0  0  0  0
 11 31  1  0  0  0  0
M  END
> <id>
EN300-37152243

> <smiles>
Cl.CN(C)C(=O)[C@@H]1[C@H](N)[C@H]2CC[C@@H]1C2 |&1:6,7,9,12,r|

> <IUPAC Name>
rac-(1R,2S,3R,4S)-3-amino-N,N-dimethylbicyclo[2.2.1]heptane-2-carboxamide hydrochloride

> <CAS>
2763583-88-4

> <Purity>
95

> <URL>
https://www.enaminestore.com/catalog/EN300-37152243

> <ROCS_ShapeQuery>
x0812_0A_x1140_0A_x1097_0A_x0365_0A_x1097_0A_x0310_0A

> <ROCS_TanimotoCombo>
0.708 

> <ROCS_ShapeTanimoto>
0.232 

> <ROCS_ColorTanimoto>
0.475 

> <ROCS_RefTversky>
0.209 

> <ROCS_RefColorTversky>
0.531 

> <ROCS_RefTverskyCombo>
0.739 

> <ROCS_FitTversky>
1.966 

> <ROCS_FitColorTversky>
0.820 

> <ROCS_FitTverskyCombo>
2.787 

> <ROCS_ColorScore>
-7.879

> <ROCS_Overlap>
2108.263

> <ROCS_Rank>
259                 

$$$$
untitled-dbase-464832_3
  -OEChem-02092408543D

 22 23  0     0  0  0  0  0  0999 V2000
    9.3176   11.6824   25.0027 C   0  0  0  0  0  0  0  0  0  0  0  0
    7.5530   11.9172   23.8983 C   0  0  0  0  0  0  0  0  0  0  0  0
    8.9509   10.0027   23.2442 C   0  0  0  0  0  0  0  0  0  0  0  0
    9.0160   11.5298   23.4652 C   0  0  0  0  0  0  0  0  0  0  0  0
    7.9479   10.8984   25.0376 C   0  0  0  0  0  0  0  0  0  0  0  0
    7.1442   10.7907   26.2976 C   0  0  0  0  0  0  0  0  0  0  0  0
    9.7620   12.3325   22.4425 C   0  0  0  0  0  0  0  0  0  0  0  0
    5.9436   10.0386   26.0750 N   0  0  0  0  0  0  0  0  0  0  0  0
    8.1799    9.6150   24.3941 O   0  0  0  0  0  0  0  0  0  0  0  0
   11.0829   12.0740   22.5631 F   0  0  0  0  0  0  0  0  0  0  0  0
    9.5812   13.6464   22.7016 F   0  0  0  0  0  0  0  0  0  0  0  0
   10.1901   11.1405   25.3791 H   0  0  0  0  0  0  0  0  0  0  0  0
    9.3188   12.6997   25.4096 H   0  0  0  0  0  0  0  0  0  0  0  0
    7.3828   12.9572   24.1978 H   0  0  0  0  0  0  0  0  0  0  0  0
    6.7509   11.5977   23.2266 H   0  0  0  0  0  0  0  0  0  0  0  0
    8.4157    9.7300   22.3302 H   0  0  0  0  0  0  0  0  0  0  0  0
    9.9354    9.5276   23.2808 H   0  0  0  0  0  0  0  0  0  0  0  0
    7.7525   10.2885   27.0607 H   0  0  0  0  0  0  0  0  0  0  0  0
    6.8832   11.8019   26.6355 H   0  0  0  0  0  0  0  0  0  0  0  0
    9.4313   12.1057   21.4322 H   0  0  0  0  0  0  0  0  0  0  0  0
    5.1464   10.6069   26.2837 H   0  0  0  0  0  0  0  0  0  0  0  0
    5.9013    9.7480   25.1180 H   0  0  0  0  0  0  0  0  0  0  0  0
  1  4  1  0  0  0  0
  1  5  1  0  0  0  0
  2  4  1  0  0  0  0
  2  5  1  0  0  0  0
  3  4  1  0  0  0  0
  3  9  1  0  0  0  0
  4  7  1  0  0  0  0
  5  6  1  0  0  0  0
  5  9  1  0  0  0  0
  6  8  1  0  0  0  0
  7 10  1  0  0  0  0
  7 11  1  0  0  0  0
  1 12  1  0  0  0  0
  1 13  1  0  0  0  0
  2 14  1  0  0  0  0
  2 15  1  0  0  0  0
  3 16  1  0  0  0  0
  3 17  1  0  0  0  0
  6 18  1  0  0  0  0
  6 19  1  0  0  0  0
  7 20  1  0  0  0  0
  8 21  1  0  0  0  0
  8 22  1  0  0  0  0
M  END
> <id>
EN300-27150315

> <smiles>
NCC1(CC2(C1)C(F)F)OC2

> <MDLNUMBER>
MFCD32859436

> <IUPAC Name>
1-[4-(difluoromethyl)-2-oxabicyclo[2.1.1]hexan-1-yl]methanamine

> <CAS>
2503203-71-0

> <URL>
https://www.enaminestore.com/catalog/EN300-27150315

> <ROCS_ShapeQuery>
x0812_0A_x1140_0A_x1097_0A_x0365_0A_x1097_0A_x0310_0A

> <ROCS_TanimotoCombo>
0.708 

> <ROCS_ShapeTanimoto>
0.216 

> <ROCS_ColorTanimoto>
0.492 

> <ROCS_RefTversky>
0.195 

> <ROCS_RefColorTversky>
0.553 

> <ROCS_RefTverskyCombo>
0.747 

> <ROCS_FitTversky>
1.983 

> <ROCS_FitColorTversky>
0.818 

> <ROCS_FitTverskyCombo>
2.801 

> <ROCS_ColorScore>
-8.218

> <ROCS_Overlap>
1968.296

> <ROCS_Rank>
260                 

$$$$
untitled-dbase-464795_3
  -OEChem-02092408543D

 22 23  0     0  0  0  0  0  0999 V2000
    9.3176   11.6824   25.0027 C   0  0  0  0  0  0  0  0  0  0  0  0
    7.5530   11.9172   23.8983 C   0  0  0  0  0  0  0  0  0  0  0  0
    8.9509   10.0027   23.2442 C   0  0  0  0  0  0  0  0  0  0  0  0
    9.0160   11.5298   23.4652 C   0  0  0  0  0  0  0  0  0  0  0  0
    7.9479   10.8984   25.0376 C   0  0  0  0  0  0  0  0  0  0  0  0
    7.1442   10.7907   26.2976 C   0  0  0  0  0  0  0  0  0  0  0  0
    9.7620   12.3325   22.4425 C   0  0  0  0  0  0  0  0  0  0  0  0
    5.9436   10.0386   26.0750 N   0  0  0  0  0  0  0  0  0  0  0  0
    8.1799    9.6150   24.3941 O   0  0  0  0  0  0  0  0  0  0  0  0
   11.0829   12.0740   22.5631 F   0  0  0  0  0  0  0  0  0  0  0  0
    9.5812   13.6464   22.7016 F   0  0  0  0  0  0  0  0  0  0  0  0
   10.1901   11.1405   25.3791 H   0  0  0  0  0  0  0  0  0  0  0  0
    9.3188   12.6997   25.4096 H   0  0  0  0  0  0  0  0  0  0  0  0
    7.3828   12.9572   24.1978 H   0  0  0  0  0  0  0  0  0  0  0  0
    6.7509   11.5977   23.2266 H   0  0  0  0  0  0  0  0  0  0  0  0
    8.4157    9.7300   22.3302 H   0  0  0  0  0  0  0  0  0  0  0  0
    9.9354    9.5276   23.2808 H   0  0  0  0  0  0  0  0  0  0  0  0
    7.7525   10.2885   27.0607 H   0  0  0  0  0  0  0  0  0  0  0  0
    6.8832   11.8019   26.6355 H   0  0  0  0  0  0  0  0  0  0  0  0
    9.4313   12.1057   21.4322 H   0  0  0  0  0  0  0  0  0  0  0  0
    5.1464   10.6069   26.2837 H   0  0  0  0  0  0  0  0  0  0  0  0
    5.9013    9.7480   25.1180 H   0  0  0  0  0  0  0  0  0  0  0  0
  1  4  1  0  0  0  0
  1  5  1  0  0  0  0
  2  4  1  0  0  0  0
  2  5  1  0  0  0  0
  3  4  1  0  0  0  0
  3  9  1  0  0  0  0
  4  7  1  0  0  0  0
  5  6  1  0  0  0  0
  5  9  1  0  0  0  0
  6  8  1  0  0  0  0
  7 10  1  0  0  0  0
  7 11  1  0  0  0  0
  1 12  1  0  0  0  0
  1 13  1  0  0  0  0
  2 14  1  0  0  0  0
  2 15  1  0  0  0  0
  3 16  1  0  0  0  0
  3 17  1  0  0  0  0
  6 18  1  0  0  0  0
  6 19  1  0  0  0  0
  7 20  1  0  0  0  0
  8 21  1  0  0  0  0
  8 22  1  0  0  0  0
M  END
> <id>
EN300-27150314

> <smiles>
Cl.NCC1(CC2(C1)C(F)F)OC2

> <MDLNUMBER>
MFCD32860021

> <IUPAC Name>
1-[4-(difluoromethyl)-2-oxabicyclo[2.1.1]hexan-1-yl]methanamine hydrochloride

> <CAS>
2503207-19-8

> <Purity>
95

> <URL>
https://www.enaminestore.com/catalog/EN300-27150314

> <Saltdate>
Cl

> <ROCS_ShapeQuery>
x0812_0A_x1140_0A_x1097_0A_x0365_0A_x1097_0A_x0310_0A

> <ROCS_TanimotoCombo>
0.708 

> <ROCS_ShapeTanimoto>
0.216 

> <ROCS_ColorTanimoto>
0.492 

> <ROCS_RefTversky>
0.195 

> <ROCS_RefColorTversky>
0.553 

> <ROCS_RefTverskyCombo>
0.747 

> <ROCS_FitTversky>
1.983 

> <ROCS_FitColorTversky>
0.818 

> <ROCS_FitTverskyCombo>
2.801 

> <ROCS_ColorScore>
-8.218

> <ROCS_Overlap>
1968.296

> <ROCS_Rank>
261                 

$$$$
untitled-dbase-505279_4
  -OEChem-02092408543D

 34 36  0     0  0  0  0  0  0999 V2000
    9.7680   12.1259   22.3650 C   0  0  0  0  0  0  0  0  0  0  0  0
    8.9798   11.9771   24.9298 C   0  0  0  0  0  0  0  0  0  0  0  0
    7.4483   11.5178   23.5770 C   0  0  0  0  0  0  0  0  0  0  0  0
    9.1394    8.9595   22.5318 C   0  0  0  0  0  0  0  0  0  0  0  0
   10.6702    9.4185   23.8832 C   0  0  0  0  0  0  0  0  0  0  0  0
    9.0204   11.3879   23.4625 C   0  0  0  0  0  0  0  0  0  0  0  0
    9.2086    9.8608   23.7679 C   0  0  0  0  0  0  0  0  0  0  0  0
    7.7853   10.9435   25.0118 C   0  0  0  0  0  0  0  0  0  0  0  0
   11.6066   15.2758   22.6590 C   0  0  0  0  0  0  0  0  0  0  0  0
    6.7752   11.0527   26.1180 C   0  0  0  0  0  0  0  0  0  0  0  0
   11.0602   14.0589   21.9434 C   0  0  0  0  0  0  0  0  0  0  0  0
   10.6130    8.9608   22.4827 N   0  0  0  0  0  0  0  0  0  0  0  0
    5.5655   10.3682   25.7698 N   0  0  0  0  0  0  0  0  0  0  0  0
    9.8458   11.7364   21.2077 O   0  0  0  0  0  0  0  0  0  0  0  0
    8.3141    9.5841   24.8749 O   0  0  0  0  0  0  0  0  0  0  0  0
   10.3215   13.2627   22.8753 O   0  0  0  0  0  0  0  0  0  0  0  0
    9.8415   11.7571   25.5668 H   0  0  0  0  0  0  0  0  0  0  0  0
    8.7250   13.0387   25.0255 H   0  0  0  0  0  0  0  0  0  0  0  0
    7.0352   12.5320   23.5329 H   0  0  0  0  0  0  0  0  0  0  0  0
    6.8572   10.8621   22.9310 H   0  0  0  0  0  0  0  0  0  0  0  0
    8.7068    7.9710   22.7263 H   0  0  0  0  0  0  0  0  0  0  0  0
    8.6592    9.3773   21.6423 H   0  0  0  0  0  0  0  0  0  0  0  0
   11.4100   10.2021   24.0706 H   0  0  0  0  0  0  0  0  0  0  0  0
   10.8338    8.6087   24.6040 H   0  0  0  0  0  0  0  0  0  0  0  0
   10.7958   15.8831   23.0709 H   0  0  0  0  0  0  0  0  0  0  0  0
   12.2738   14.9771   23.4741 H   0  0  0  0  0  0  0  0  0  0  0  0
   12.1974   15.8932   21.9742 H   0  0  0  0  0  0  0  0  0  0  0  0
    7.2016   10.6060   27.0239 H   0  0  0  0  0  0  0  0  0  0  0  0
    6.5598   12.1141   26.2889 H   0  0  0  0  0  0  0  0  0  0  0  0
   11.8761   13.4560   21.5338 H   0  0  0  0  0  0  0  0  0  0  0  0
   10.3931   14.3591   21.1298 H   0  0  0  0  0  0  0  0  0  0  0  0
   11.0374    8.0510   22.3110 H   0  0  0  0  0  0  0  0  0  0  0  0
    4.7991   11.0129   25.7735 H   0  0  0  0  0  0  0  0  0  0  0  0
    5.6552    9.9677   24.8563 H   0  0  0  0  0  0  0  0  0  0  0  0
  1  6  1  0  0  0  0
  1 14  2  0  0  0  0
  1 16  1  0  0  0  0
  2  6  1  0  0  0  0
  2  8  1  0  0  0  0
  3  6  1  0  0  0  0
  3  8  1  0  0  0  0
  4  7  1  0  0  0  0
  4 12  1  0  0  0  0
  5  7  1  0  0  0  0
  5 12  1  0  0  0  0
  6  7  1  0  0  0  0
  7 15  1  0  0  0  0
  8 10  1  0  0  0  0
  8 15  1  0  0  0  0
  9 11  1  0  0  0  0
 10 13  1  0  0  0  0
 11 16  1  0  0  0  0
  2 17  1  0  0  0  0
  2 18  1  0  0  0  0
  3 19  1  0  0  0  0
  3 20  1  0  0  0  0
  4 21  1  0  0  0  0
  4 22  1  0  0  0  0
  5 23  1  0  0  0  0
  5 24  1  0  0  0  0
  9 25  1  0  0  0  0
  9 26  1  0  0  0  0
  9 27  1  0  0  0  0
 10 28  1  0  0  0  0
 10 29  1  0  0  0  0
 11 30  1  0  0  0  0
 11 31  1  0  0  0  0
 12 32  1  0  0  0  0
 13 33  1  0  0  0  0
 13 34  1  0  0  0  0
M  END
> <id>
EN300-28274767

> <smiles>
CCOC(=O)C1(CC2(CN)C1)C3(CNC3)O2

> <IUPAC Name>
ethyl 4'-(aminomethyl)-3'-oxaspiro[azetidine-3,2'-bicyclo[2.1.1]hexane]-1'-carboxylate

> <CAS>
2680784-83-0

> <URL>
https://www.enaminestore.com/catalog/EN300-28274767

> <ROCS_ShapeQuery>
x0812_0A_x1140_0A_x1097_0A_x0365_0A_x1097_0A_x0310_0A

> <ROCS_TanimotoCombo>
0.708 

> <ROCS_ShapeTanimoto>
0.270 

> <ROCS_ColorTanimoto>
0.438 

> <ROCS_RefTversky>
0.238 

> <ROCS_RefColorTversky>
0.585 

> <ROCS_RefTverskyCombo>
0.822 

> <ROCS_FitTversky>
1.987 

> <ROCS_FitColorTversky>
0.636 

> <ROCS_FitTverskyCombo>
2.623 

> <ROCS_ColorScore>
-8.812

> <ROCS_Overlap>
2405.437

> <ROCS_Rank>
262                 

$$$$
untitled-dbase-345060_0
  -OEChem-02092408543D

 23 24  0     1  0  0  0  0  0999 V2000
   10.1062   11.8462   22.4048 C   0  0  0  0  0  0  0  0  0  0  0  0
    7.6139   12.0741   25.1847 C   0  0  0  0  0  0  0  0  0  0  0  0
    8.9272   12.5232   24.5278 C   0  0  0  0  0  0  0  0  0  0  0  0
    8.3201    9.6819   24.9329 C   0  0  0  0  0  0  0  0  0  0  0  0
    7.7823   11.0448   23.0479 C   0  0  0  0  0  0  0  0  0  0  0  0
    7.3064   10.7476   24.4689 C   0  0  2  0  0  0  0  0  0  0  0  0
    9.6305   10.1311   24.2574 C   0  0  2  0  0  0  0  0  0  0  0  0
    9.1984   11.4049   23.5047 C   0  0  1  0  0  0  0  0  0  0  0  0
    9.8169   11.8566   21.2176 O   0  0  0  0  0  0  0  0  0  0  0  0
   11.3060   12.2350   22.9014 O   0  0  0  0  0  0  0  0  0  0  0  0
   10.0526    9.1072   23.3648 O   0  0  0  0  0  0  0  0  0  0  0  0
    7.7142   11.9561   26.2682 H   0  0  0  0  0  0  0  0  0  0  0  0
    6.8256   12.8109   24.9927 H   0  0  0  0  0  0  0  0  0  0  0  0
    8.7999   13.4988   24.0436 H   0  0  0  0  0  0  0  0  0  0  0  0
    9.7352   12.6222   25.2609 H   0  0  0  0  0  0  0  0  0  0  0  0
    8.4121    9.6675   26.0239 H   0  0  0  0  0  0  0  0  0  0  0  0
    8.0156    8.6835   24.5990 H   0  0  0  0  0  0  0  0  0  0  0  0
    7.7424   10.1758   22.3820 H   0  0  0  0  0  0  0  0  0  0  0  0
    7.2508   11.8795   22.5770 H   0  0  0  0  0  0  0  0  0  0  0  0
    6.2655   10.4323   24.5632 H   0  0  0  0  0  0  0  0  0  0  0  0
   10.4277   10.3073   24.9871 H   0  0  0  0  0  0  0  0  0  0  0  0
   11.9184   12.5273   22.1930 H   0  0  0  0  0  0  0  0  0  0  0  0
   10.1880    8.3089   23.8999 H   0  0  0  0  0  0  0  0  0  0  0  0
  1  8  1  1  0  0  0
  1  9  2  0  0  0  0
  1 10  1  0  0  0  0
  2  3  1  0  0  0  0
  2  6  1  0  0  0  0
  3  8  1  0  0  0  0
  4  6  1  0  0  0  0
  4  7  1  0  0  0  0
  5  6  1  1  0  0  0
  5  8  1  0  0  0  0
  7  8  1  0  0  0  0
  7 11  1  1  0  0  0
  2 12  1  0  0  0  0
  2 13  1  0  0  0  0
  3 14  1  0  0  0  0
  3 15  1  0  0  0  0
  4 16  1  0  0  0  0
  4 17  1  0  0  0  0
  5 18  1  0  0  0  0
  5 19  1  0  0  0  0
  6 20  1  0  0  0  0
  7 21  1  0  0  0  0
 10 22  1  0  0  0  0
 11 23  1  0  0  0  0
M  END
> <id>
EN300-7543946

> <smiles>
O[C@@H]1C[C@H]2CC[C@@]1(C2)C(=O)O |&1:1,3,6,r|

> <IUPAC Name>
rac-(1R,2S,4R)-2-hydroxybicyclo[2.2.1]heptane-1-carboxylic acid

> <CAS>
1932286-17-3

> <Purity>
95

> <URL>
https://www.enaminestore.com/catalog/EN300-7543946

> <ROCS_ShapeQuery>
x0812_0A_x1140_0A_x1097_0A_x0365_0A_x1097_0A_x0310_0A

> <ROCS_TanimotoCombo>
0.708 

> <ROCS_ShapeTanimoto>
0.218 

> <ROCS_ColorTanimoto>
0.490 

> <ROCS_RefTversky>
0.197 

> <ROCS_RefColorTversky>
0.582 

> <ROCS_RefTverskyCombo>
0.779 

> <ROCS_FitTversky>
1.993 

> <ROCS_FitColorTversky>
0.755 

> <ROCS_FitTverskyCombo>
2.748 

> <ROCS_ColorScore>
-8.697

> <ROCS_Overlap>
1987.586

> <ROCS_Rank>
263                 

$$$$
untitled-dbase-10329_4
  -OEChem-02092408543D

 37 38  0     1  0  0  0  0  0999 V2000
    9.9061   12.1375   22.4061 C   0  0  0  0  0  0  0  0  0  0  0  0
    7.7470   12.3173   25.2839 C   0  0  0  0  0  0  0  0  0  0  0  0
    6.7906   11.9130   24.1513 C   0  0  0  0  0  0  0  0  0  0  0  0
    9.4279   10.4178   25.2998 C   0  0  0  0  0  0  0  0  0  0  0  0
    7.7867    9.7039   23.4060 C   0  0  0  0  0  0  0  0  0  0  0  0
    9.1345   11.8556   24.8159 C   0  0  1  0  0  0  0  0  0  0  0  0
    7.6805   11.2180   23.1138 C   0  0  2  0  0  0  0  0  0  0  0  0
    8.9941    9.3295   24.2926 C   0  0  0  0  0  0  0  0  0  0  0  0
   11.6703   14.0189   21.1753 C   0  0  0  0  0  0  0  0  0  0  0  0
   13.3794   13.2219   22.8344 C   0  0  0  0  0  0  0  0  0  0  0  0
   12.4278   11.6189   21.1514 C   0  0  0  0  0  0  0  0  0  0  0  0
   12.1423   12.8398   22.0247 C   0  0  0  0  0  0  0  0  0  0  0  0
    8.9713   11.8259   23.3721 N   0  0  0  0  0  0  0  0  0  0  0  0
    9.6926   12.0882   21.1971 O   0  0  0  0  0  0  0  0  0  0  0  0
   10.0964    9.0601   23.4157 O   0  0  0  0  0  0  0  0  0  0  0  0
   11.1058   12.5035   22.9535 O   0  0  0  0  0  0  0  0  0  0  0  0
    7.7327   13.4083   25.3984 H   0  0  0  0  0  0  0  0  0  0  0  0
    7.4554   11.8800   26.2450 H   0  0  0  0  0  0  0  0  0  0  0  0
    5.9766   11.2737   24.5092 H   0  0  0  0  0  0  0  0  0  0  0  0
    6.3392   12.8145   23.7188 H   0  0  0  0  0  0  0  0  0  0  0  0
   10.5056   10.3156   25.5127 H   0  0  0  0  0  0  0  0  0  0  0  0
    8.9284   10.2341   26.2646 H   0  0  0  0  0  0  0  0  0  0  0  0
    6.8618    9.3465   23.8872 H   0  0  0  0  0  0  0  0  0  0  0  0
    7.8437    9.1503   22.4534 H   0  0  0  0  0  0  0  0  0  0  0  0
    9.9278   12.5418   25.1378 H   0  0  0  0  0  0  0  0  0  0  0  0
    7.3388   11.3913   22.0861 H   0  0  0  0  0  0  0  0  0  0  0  0
    8.7861    8.4015   24.8205 H   0  0  0  0  0  0  0  0  0  0  0  0
   10.7824   13.7486   20.5925 H   0  0  0  0  0  0  0  0  0  0  0  0
   11.4288   14.8900   21.7931 H   0  0  0  0  0  0  0  0  0  0  0  0
   12.4386   14.3111   20.4504 H   0  0  0  0  0  0  0  0  0  0  0  0
   13.7216   12.3788   23.4454 H   0  0  0  0  0  0  0  0  0  0  0  0
   13.1531   14.0366   23.5318 H   0  0  0  0  0  0  0  0  0  0  0  0
   14.2039   13.5383   22.1874 H   0  0  0  0  0  0  0  0  0  0  0  0
   12.7664   10.7729   21.7604 H   0  0  0  0  0  0  0  0  0  0  0  0
   11.5404   11.3077   20.5906 H   0  0  0  0  0  0  0  0  0  0  0  0
   13.2338   11.8293   20.4390 H   0  0  0  0  0  0  0  0  0  0  0  0
   10.8280    8.7531   23.9744 H   0  0  0  0  0  0  0  0  0  0  0  0
  1 13  1  0  0  0  0
  1 14  2  0  0  0  0
  1 16  1  0  0  0  0
  2  3  1  0  0  0  0
  2  6  1  0  0  0  0
  3  7  1  0  0  0  0
  4  6  1  0  0  0  0
  4  8  1  0  0  0  0
  5  7  1  0  0  0  0
  5  8  1  0  0  0  0
  6 13  1  0  0  0  0
  7 13  1  0  0  0  0
  8 15  1  0  0  0  0
  9 12  1  0  0  0  0
 10 12  1  0  0  0  0
 11 12  1  0  0  0  0
 12 16  1  0  0  0  0
  2 17  1  0  0  0  0
  2 18  1  0  0  0  0
  3 19  1  0  0  0  0
  3 20  1  0  0  0  0
  4 21  1  0  0  0  0
  4 22  1  0  0  0  0
  5 23  1  0  0  0  0
  5 24  1  0  0  0  0
  6 25  1  0  0  0  0
  7 26  1  0  0  0  0
  8 27  1  0  0  0  0
  9 28  1  0  0  0  0
  9 29  1  0  0  0  0
  9 30  1  0  0  0  0
 10 31  1  0  0  0  0
 10 32  1  0  0  0  0
 10 33  1  0  0  0  0
 11 34  1  0  0  0  0
 11 35  1  0  0  0  0
 11 36  1  0  0  0  0
 15 37  1  0  0  0  0
M  END
> <id>
EN300-53136

> <smiles>
CC(C)(C)OC(=O)N1C2CCC1CC(O)C2

> <MDLNUMBER>
MFCD13568915

> <IUPAC Name>
tert-butyl 3-hydroxy-8-azabicyclo[3.2.1]octane-8-carboxylate

> <CAS>
478837-18-2

> <URL>
https://www.enaminestore.com/catalog/EN300-53136

> <ROCS_ShapeQuery>
x0812_0A_x1140_0A_x1097_0A_x0365_0A_x1097_0A_x0310_0A

> <ROCS_TanimotoCombo>
0.707 

> <ROCS_ShapeTanimoto>
0.228 

> <ROCS_ColorTanimoto>
0.480 

> <ROCS_RefTversky>
0.207 

> <ROCS_RefColorTversky>
0.545 

> <ROCS_RefTverskyCombo>
0.752 

> <ROCS_FitTversky>
1.747 

> <ROCS_FitColorTversky>
0.801 

> <ROCS_FitTverskyCombo>
2.548 

> <ROCS_ColorScore>
-8.103

> <ROCS_Overlap>
2097.930

> <ROCS_Rank>
264                 

$$$$
untitled-dbase-512858_1
  -OEChem-02092408543D

 26 27  0     0  0  0  0  0  0999 V2000
    9.5160    9.0988   23.0484 C   0  0  0  0  0  0  0  0  0  0  0  0
    9.9084   12.0765   22.2853 C   0  0  0  0  0  0  0  0  0  0  0  0
    8.9319   10.3472   25.3491 C   0  0  0  0  0  0  0  0  0  0  0  0
    7.2977   10.2272   24.0465 C   0  0  0  0  0  0  0  0  0  0  0  0
    8.3158   12.4828   24.2432 C   0  0  0  0  0  0  0  0  0  0  0  0
    8.8517   10.2539   23.7764 C   0  0  0  0  0  0  0  0  0  0  0  0
    7.7322   11.3294   25.0819 C   0  0  0  0  0  0  0  0  0  0  0  0
   10.5328   13.4352   22.4775 C   0  0  0  0  0  0  0  0  0  0  0  0
    6.8115   11.7225   26.2010 C   0  0  0  0  0  0  0  0  0  0  0  0
    9.1084   11.6528   23.3257 N   0  0  0  0  0  0  0  0  0  0  0  0
   10.6668    9.0972   22.6373 O   0  0  0  0  0  0  0  0  0  0  0  0
   10.1253   11.4309   21.2601 O   0  0  0  0  0  0  0  0  0  0  0  0
    8.6551    8.0609   22.9111 O   0  0  0  0  0  0  0  0  0  0  0  0
   10.1652   13.9611   23.6596 F   0  0  0  0  0  0  0  0  0  0  0  0
   11.8748   13.3479   22.4538 F   0  0  0  0  0  0  0  0  0  0  0  0
   10.1483   14.2787   21.5028 F   0  0  0  0  0  0  0  0  0  0  0  0
    7.4889   12.3405   27.1927 F   0  0  0  0  0  0  0  0  0  0  0  0
    5.8521   12.5679   25.7660 F   0  0  0  0  0  0  0  0  0  0  0  0
    6.2004   10.6401   26.7296 F   0  0  0  0  0  0  0  0  0  0  0  0
    8.7030    9.4307   25.9056 H   0  0  0  0  0  0  0  0  0  0  0  0
    9.8395   10.7967   25.7643 H   0  0  0  0  0  0  0  0  0  0  0  0
    6.6553   10.5631   23.2263 H   0  0  0  0  0  0  0  0  0  0  0  0
    6.8892    9.2976   24.4597 H   0  0  0  0  0  0  0  0  0  0  0  0
    7.5597   13.0436   23.6870 H   0  0  0  0  0  0  0  0  0  0  0  0
    8.9713   13.1477   24.8122 H   0  0  0  0  0  0  0  0  0  0  0  0
    9.0655    7.3042   22.4408 H   0  0  0  0  0  0  0  0  0  0  0  0
  1  6  1  0  0  0  0
  1 11  2  0  0  0  0
  1 13  1  0  0  0  0
  2  8  1  0  0  0  0
  2 10  1  0  0  0  0
  2 12  2  0  0  0  0
  3  6  1  0  0  0  0
  3  7  1  0  0  0  0
  4  6  1  0  0  0  0
  4  7  1  0  0  0  0
  5  7  1  0  0  0  0
  5 10  1  0  0  0  0
  6 10  1  0  0  0  0
  7  9  1  0  0  0  0
  8 14  1  0  0  0  0
  8 15  1  0  0  0  0
  8 16  1  0  0  0  0
  9 17  1  0  0  0  0
  9 18  1  0  0  0  0
  9 19  1  0  0  0  0
  3 20  1  0  0  0  0
  3 21  1  0  0  0  0
  4 22  1  0  0  0  0
  4 23  1  0  0  0  0
  5 24  1  0  0  0  0
  5 25  1  0  0  0  0
 13 26  1  0  0  0  0
M  END
> <id>
EN300-28288242

> <smiles>
OC(=O)C1(CC2(C1)C(F)(F)F)N(C2)C(=O)C(F)(F)F

> <IUPAC Name>
2-(2,2,2-trifluoroacetyl)-4-(trifluoromethyl)-2-azabicyclo[2.1.1]hexane-1-carboxylic acid

> <CAS>
2680792-13-4

> <URL>
https://www.enaminestore.com/catalog/EN300-28288242

> <ROCS_ShapeQuery>
x0812_0A_x1140_0A_x1097_0A_x0365_0A_x1097_0A_x0310_0A

> <ROCS_TanimotoCombo>
0.707 

> <ROCS_ShapeTanimoto>
0.302 

> <ROCS_ColorTanimoto>
0.406 

> <ROCS_RefTversky>
0.263 

> <ROCS_RefColorTversky>
0.501 

> <ROCS_RefTverskyCombo>
0.765 

> <ROCS_FitTversky>
1.942 

> <ROCS_FitColorTversky>
0.680 

> <ROCS_FitTverskyCombo>
2.622 

> <ROCS_ColorScore>
-7.482

> <ROCS_Overlap>
2665.239

> <ROCS_Rank>
265                 

$$$$
untitled-dbase-312946_8
  -OEChem-02092408543D

 26 28  0     1  0  0  0  0  0999 V2000
    8.7261   10.9280   21.5237 C   0  0  0  0  0  0  0  0  0  0  0  0
    7.1268   10.4581   25.0019 C   0  0  0  0  0  0  0  0  0  0  0  0
    8.0407   11.5000   25.6734 C   0  0  0  0  0  0  0  0  0  0  0  0
    9.3689   10.0271   24.3693 C   0  0  0  0  0  0  0  0  0  0  0  0
    7.9775   11.1795   22.7799 C   0  0  1  0  0  0  0  0  0  0  0  0
    7.9544   10.0117   23.7813 C   0  0  2  0  0  0  0  0  0  0  0  0
    9.2845   11.5031   24.7671 C   0  0  1  0  0  0  0  0  0  0  0  0
    8.9174   12.1816   23.4319 C   0  0  1  0  0  0  0  0  0  0  0  0
    8.1901   10.0188   20.4689 C   0  0  0  0  0  0  0  0  0  0  0  0
   10.2067   10.7107   17.9498 N   0  5  0  0  0  0  0  0  0  0  0  0
    9.8576   11.5405   21.4076 N   0  0  0  0  0  0  0  0  0  0  0  0
    9.3498    9.4564   19.7932 N   0  0  0  0  0  0  0  0  0  0  0  0
    9.7973   10.1120   18.8301 N   0  3  0  0  0  0  0  0  0  0  0  0
   10.0644   12.2983   22.5853 O   0  0  0  0  0  0  0  0  0  0  0  0
    6.9510    9.6172   25.6825 H   0  0  0  0  0  0  0  0  0  0  0  0
    6.1564   10.8809   24.7229 H   0  0  0  0  0  0  0  0  0  0  0  0
    7.5651   12.4839   25.7374 H   0  0  0  0  0  0  0  0  0  0  0  0
    8.2970   11.1768   26.6886 H   0  0  0  0  0  0  0  0  0  0  0  0
    9.4859    9.3562   25.2275 H   0  0  0  0  0  0  0  0  0  0  0  0
   10.1534    9.8103   23.6383 H   0  0  0  0  0  0  0  0  0  0  0  0
    6.9852   11.5860   22.5646 H   0  0  0  0  0  0  0  0  0  0  0  0
    7.6422    9.0547   23.3589 H   0  0  0  0  0  0  0  0  0  0  0  0
   10.1888   11.8972   25.2354 H   0  0  0  0  0  0  0  0  0  0  0  0
    8.4703   13.1716   23.5676 H   0  0  0  0  0  0  0  0  0  0  0  0
    7.5837   10.5969   19.7713 H   0  0  0  0  0  0  0  0  0  0  0  0
    7.5920    9.2359   20.9366 H   0  0  0  0  0  0  0  0  0  0  0  0
  1  5  1  1  0  0  0
  1  9  1  0  0  0  0
  1 11  2  0  0  0  0
  2  3  1  0  0  0  0
  2  6  1  0  0  0  0
  3  7  1  0  0  0  0
  4  6  1  1  0  0  0
  4  7  1  1  0  0  0
  5  6  1  0  0  0  0
  5  8  1  0  0  0  0
  7  8  1  0  0  0  0
  8 14  1  1  0  0  0
  9 12  1  0  0  0  0
 10 13  2  0  0  0  0
 11 14  1  0  0  0  0
 12 13  2  0  0  0  0
  2 15  1  0  0  0  0
  2 16  1  0  0  0  0
  3 17  1  0  0  0  0
  3 18  1  0  0  0  0
  4 19  1  0  0  0  0
  4 20  1  0  0  0  0
  5 21  1  0  0  0  0
  6 22  1  0  0  0  0
  7 23  1  0  0  0  0
  8 24  1  0  0  0  0
  9 25  1  0  0  0  0
  9 26  1  0  0  0  0
M  CHG  2  10  -1  13   1
M  END
> <id>
EN300-7465069

> <smiles>
[N-]=[N+]=NCC1=NO[C@@H]2[C@H]3CC[C@H](C3)[C@@H]21 |&1:7,8,11,13,r|

> <IUPAC Name>
rac-(1R,2S,6S,7S)-5-(azidomethyl)-3-oxa-4-azatricyclo[5.2.1.0,2,6]dec-4-ene

> <CAS>
2648862-79-5

> <Purity>
95

> <URL>
https://www.enaminestore.com/catalog/EN300-7465069

> <ROCS_ShapeQuery>
x0812_0A_x1140_0A_x1097_0A_x0365_0A_x1097_0A_x0310_0A

> <ROCS_TanimotoCombo>
0.707 

> <ROCS_ShapeTanimoto>
0.185 

> <ROCS_ColorTanimoto>
0.522 

> <ROCS_RefTversky>
0.174 

> <ROCS_RefColorTversky>
0.547 

> <ROCS_RefTverskyCombo>
0.721 

> <ROCS_FitTversky>
1.542 

> <ROCS_FitColorTversky>
0.920 

> <ROCS_FitTverskyCombo>
2.461 

> <ROCS_ColorScore>
-8.097

> <ROCS_Overlap>
1760.243

> <ROCS_Rank>
266                 

$$$$
untitled-dbase-561583_8
  -OEChem-02092408543D

 37 38  0     0  0  0  0  0  0999 V2000
    9.6708   12.1238   22.1865 C   0  0  0  0  0  0  0  0  0  0  0  0
    8.8965   10.2980   25.2672 C   0  0  0  0  0  0  0  0  0  0  0  0
    7.0941   10.4815   24.2072 C   0  0  0  0  0  0  0  0  0  0  0  0
    8.4379   12.5654   24.3614 C   0  0  0  0  0  0  0  0  0  0  0  0
    7.8187   11.4466   25.2205 C   0  0  0  0  0  0  0  0  0  0  0  0
    8.5876   10.3239   23.7186 C   0  0  0  0  0  0  0  0  0  0  0  0
    7.1240   11.8833   26.4780 C   0  0  0  0  0  0  0  0  0  0  0  0
   11.8715   13.4468   20.9276 C   0  0  0  0  0  0  0  0  0  0  0  0
   11.0983   15.5002   22.1503 C   0  0  0  0  0  0  0  0  0  0  0  0
   11.8566   13.4855   23.4441 C   0  0  0  0  0  0  0  0  0  0  0  0
    8.9909    9.1831   22.8359 C   0  0  0  0  0  0  0  0  0  0  0  0
   11.1623   13.9746   22.1739 C   0  0  0  0  0  0  0  0  0  0  0  0
    8.9734   11.7019   23.3012 N   0  0  0  0  0  0  0  0  0  0  0  0
   10.1119   11.3873   21.3090 O   0  0  0  0  0  0  0  0  0  0  0  0
   10.4059    9.0211   22.8800 O   0  0  0  0  0  0  0  0  0  0  0  0
    9.8160   13.4862   22.1733 O   0  0  0  0  0  0  0  0  0  0  0  0
    9.9075   10.5920   25.5661 H   0  0  0  0  0  0  0  0  0  0  0  0
    8.6170    9.3854   25.8061 H   0  0  0  0  0  0  0  0  0  0  0  0
    6.6221    9.5883   24.6327 H   0  0  0  0  0  0  0  0  0  0  0  0
    6.3988   10.9489   23.5029 H   0  0  0  0  0  0  0  0  0  0  0  0
    7.7013   13.2581   23.9446 H   0  0  0  0  0  0  0  0  0  0  0  0
    9.2535   13.0999   24.8568 H   0  0  0  0  0  0  0  0  0  0  0  0
    6.4067   12.6887   26.2734 H   0  0  0  0  0  0  0  0  0  0  0  0
    7.8443   12.2552   27.2181 H   0  0  0  0  0  0  0  0  0  0  0  0
    6.5730   11.0506   26.9341 H   0  0  0  0  0  0  0  0  0  0  0  0
   11.9194   12.3520   20.9407 H   0  0  0  0  0  0  0  0  0  0  0  0
   11.3630   13.7616   20.0104 H   0  0  0  0  0  0  0  0  0  0  0  0
   12.9078   13.8012   20.8878 H   0  0  0  0  0  0  0  0  0  0  0  0
   10.5902   15.8832   23.0427 H   0  0  0  0  0  0  0  0  0  0  0  0
   10.5186   15.8533   21.2897 H   0  0  0  0  0  0  0  0  0  0  0  0
   12.0971   15.9458   22.1019 H   0  0  0  0  0  0  0  0  0  0  0  0
   11.3481   13.8639   24.3382 H   0  0  0  0  0  0  0  0  0  0  0  0
   11.8790   12.3921   23.4960 H   0  0  0  0  0  0  0  0  0  0  0  0
   12.8863   13.8576   23.4932 H   0  0  0  0  0  0  0  0  0  0  0  0
    8.7004    9.3641   21.7907 H   0  0  0  0  0  0  0  0  0  0  0  0
    8.5289    8.2405   23.1642 H   0  0  0  0  0  0  0  0  0  0  0  0
   10.6171    8.2756   22.2967 H   0  0  0  0  0  0  0  0  0  0  0  0
  1 13  1  0  0  0  0
  1 14  2  0  0  0  0
  1 16  1  0  0  0  0
  2  5  1  0  0  0  0
  2  6  1  0  0  0  0
  3  5  1  0  0  0  0
  3  6  1  0  0  0  0
  4  5  1  0  0  0  0
  4 13  1  0  0  0  0
  5  7  1  1  0  0  0
  6 11  1  1  0  0  0
  6 13  1  0  0  0  0
  8 12  1  0  0  0  0
  9 12  1  0  0  0  0
 10 12  1  0  0  0  0
 11 15  1  0  0  0  0
 12 16  1  0  0  0  0
  2 17  1  0  0  0  0
  2 18  1  0  0  0  0
  3 19  1  0  0  0  0
  3 20  1  0  0  0  0
  4 21  1  0  0  0  0
  4 22  1  0  0  0  0
  7 23  1  0  0  0  0
  7 24  1  0  0  0  0
  7 25  1  0  0  0  0
  8 26  1  0  0  0  0
  8 27  1  0  0  0  0
  8 28  1  0  0  0  0
  9 29  1  0  0  0  0
  9 30  1  0  0  0  0
  9 31  1  0  0  0  0
 10 32  1  0  0  0  0
 10 33  1  0  0  0  0
 10 34  1  0  0  0  0
 11 35  1  0  0  0  0
 11 36  1  0  0  0  0
 15 37  1  0  0  0  0
M  END
> <id>
EN300-28246780

> <smiles>
CC(C)(C)OC(=O)N1C[C@]2(C)C[C@@]1(CO)C2

> <IUPAC Name>
tert-butyl 1-(hydroxymethyl)-4-methyl-2-azabicyclo[2.1.1]hexane-2-carboxylate

> <CAS>
2580223-92-1

> <URL>
https://www.enaminestore.com/catalog/EN300-28246780

> <ROCS_ShapeQuery>
x0812_0A_x1140_0A_x1097_0A_x0365_0A_x1097_0A_x0310_0A

> <ROCS_TanimotoCombo>
0.707 

> <ROCS_ShapeTanimoto>
0.253 

> <ROCS_ColorTanimoto>
0.454 

> <ROCS_RefTversky>
0.226 

> <ROCS_RefColorTversky>
0.543 

> <ROCS_RefTverskyCombo>
0.768 

> <ROCS_FitTversky>
1.900 

> <ROCS_FitColorTversky>
0.737 

> <ROCS_FitTverskyCombo>
2.637 

> <ROCS_ColorScore>
-8.096

> <ROCS_Overlap>
2284.144

> <ROCS_Rank>
267                 

$$$$
untitled-dbase-481611_8
  -OEChem-02092408543D

 37 38  0     0  0  0  0  0  0999 V2000
    9.6708   12.1236   22.1864 C   0  0  0  0  0  0  0  0  0  0  0  0
    8.8970   10.2985   25.2674 C   0  0  0  0  0  0  0  0  0  0  0  0
    7.0943   10.4811   24.2076 C   0  0  0  0  0  0  0  0  0  0  0  0
    8.4373   12.5656   24.3609 C   0  0  0  0  0  0  0  0  0  0  0  0
    7.8187   11.4468   25.2205 C   0  0  0  0  0  0  0  0  0  0  0  0
    8.5877   10.3237   23.7188 C   0  0  0  0  0  0  0  0  0  0  0  0
    7.1232   11.8839   26.4775 C   0  0  0  0  0  0  0  0  0  0  0  0
   11.8726   13.4466   20.9290 C   0  0  0  0  0  0  0  0  0  0  0  0
   11.0991   15.4998   22.1519 C   0  0  0  0  0  0  0  0  0  0  0  0
   11.8564   13.4846   23.4455 C   0  0  0  0  0  0  0  0  0  0  0  0
    8.9909    9.1828   22.8362 C   0  0  0  0  0  0  0  0  0  0  0  0
   11.1628   13.9742   22.1751 C   0  0  0  0  0  0  0  0  0  0  0  0
    8.9729   11.7018   23.3008 N   0  0  0  0  0  0  0  0  0  0  0  0
   10.1120   11.3872   21.3089 O   0  0  0  0  0  0  0  0  0  0  0  0
   10.4060    9.0210   22.8798 O   0  0  0  0  0  0  0  0  0  0  0  0
    9.8165   13.4861   22.1736 O   0  0  0  0  0  0  0  0  0  0  0  0
    9.9077   10.5927   25.5661 H   0  0  0  0  0  0  0  0  0  0  0  0
    8.6178    9.3858   25.8067 H   0  0  0  0  0  0  0  0  0  0  0  0
    6.6229    9.5880   24.6338 H   0  0  0  0  0  0  0  0  0  0  0  0
    6.3988   10.9482   23.5032 H   0  0  0  0  0  0  0  0  0  0  0  0
    7.7005   13.2579   23.9436 H   0  0  0  0  0  0  0  0  0  0  0  0
    9.2528   13.1007   24.8560 H   0  0  0  0  0  0  0  0  0  0  0  0
    6.4058   12.6890   26.2723 H   0  0  0  0  0  0  0  0  0  0  0  0
    7.8431   12.2562   27.2179 H   0  0  0  0  0  0  0  0  0  0  0  0
    6.5723   11.0512   26.9338 H   0  0  0  0  0  0  0  0  0  0  0  0
   11.9204   12.3519   20.9419 H   0  0  0  0  0  0  0  0  0  0  0  0
   11.3647   13.7618   20.0117 H   0  0  0  0  0  0  0  0  0  0  0  0
   12.9090   13.8008   20.8899 H   0  0  0  0  0  0  0  0  0  0  0  0
   10.5906   15.8827   23.0441 H   0  0  0  0  0  0  0  0  0  0  0  0
   10.5200   15.8532   21.2911 H   0  0  0  0  0  0  0  0  0  0  0  0
   12.0980   15.9452   22.1042 H   0  0  0  0  0  0  0  0  0  0  0  0
   11.3475   13.8629   24.3395 H   0  0  0  0  0  0  0  0  0  0  0  0
   11.8786   12.3912   23.4972 H   0  0  0  0  0  0  0  0  0  0  0  0
   12.8862   13.8566   23.4953 H   0  0  0  0  0  0  0  0  0  0  0  0
    8.7000    9.3637   21.7911 H   0  0  0  0  0  0  0  0  0  0  0  0
    8.5292    8.2403   23.1648 H   0  0  0  0  0  0  0  0  0  0  0  0
   10.6172    8.2755   22.2966 H   0  0  0  0  0  0  0  0  0  0  0  0
  1 13  1  0  0  0  0
  1 14  2  0  0  0  0
  1 16  1  0  0  0  0
  2  5  1  0  0  0  0
  2  6  1  0  0  0  0
  3  5  1  0  0  0  0
  3  6  1  0  0  0  0
  4  5  1  0  0  0  0
  4 13  1  0  0  0  0
  5  7  1  0  0  0  0
  6 11  1  0  0  0  0
  6 13  1  0  0  0  0
  8 12  1  0  0  0  0
  9 12  1  0  0  0  0
 10 12  1  0  0  0  0
 11 15  1  0  0  0  0
 12 16  1  0  0  0  0
  2 17  1  0  0  0  0
  2 18  1  0  0  0  0
  3 19  1  0  0  0  0
  3 20  1  0  0  0  0
  4 21  1  0  0  0  0
  4 22  1  0  0  0  0
  7 23  1  0  0  0  0
  7 24  1  0  0  0  0
  7 25  1  0  0  0  0
  8 26  1  0  0  0  0
  8 27  1  0  0  0  0
  8 28  1  0  0  0  0
  9 29  1  0  0  0  0
  9 30  1  0  0  0  0
  9 31  1  0  0  0  0
 10 32  1  0  0  0  0
 10 33  1  0  0  0  0
 10 34  1  0  0  0  0
 11 35  1  0  0  0  0
 11 36  1  0  0  0  0
 15 37  1  0  0  0  0
M  END
> <id>
EN300-5928945

> <smiles>
CC(C)(C)OC(=O)N1CC2(C)CC1(CO)C2

> <MDLNUMBER>
MFCD32805938

> <IUPAC Name>
tert-butyl 1-(hydroxymethyl)-4-methyl-2-azabicyclo[2.1.1]hexane-2-carboxylate

> <CAS>
2580223-92-1

> <Purity>
95

> <URL>
https://www.enaminestore.com/catalog/EN300-5928945

> <ROCS_ShapeQuery>
x0812_0A_x1140_0A_x1097_0A_x0365_0A_x1097_0A_x0310_0A

> <ROCS_TanimotoCombo>
0.707 

> <ROCS_ShapeTanimoto>
0.253 

> <ROCS_ColorTanimoto>
0.454 

> <ROCS_RefTversky>
0.226 

> <ROCS_RefColorTversky>
0.543 

> <ROCS_RefTverskyCombo>
0.768 

> <ROCS_FitTversky>
1.900 

> <ROCS_FitColorTversky>
0.737 

> <ROCS_FitTverskyCombo>
2.637 

> <ROCS_ColorScore>
-8.096

> <ROCS_Overlap>
2284.199

> <ROCS_Rank>
268                 

$$$$
untitled-dbase-367817_7
  -OEChem-02092408543D

 38 39  0     1  0  0  0  0  0999 V2000
    9.3262    9.8957   23.7267 C   0  0  0  0  0  0  0  0  0  0  0  0
   10.7330   12.0161   21.6587 C   0  0  0  0  0  0  0  0  0  0  0  0
    9.2789   10.0488   25.2350 C   0  0  0  0  0  0  0  0  0  0  0  0
    7.0206   10.6562   23.4716 C   0  0  0  0  0  0  0  0  0  0  0  0
    6.9383   10.9205   24.9842 C   0  0  0  0  0  0  0  0  0  0  0  0
    8.8774   12.4964   24.8669 C   0  0  0  0  0  0  0  0  0  0  0  0
    8.4532   10.8832   22.9661 C   0  0  1  0  0  0  0  0  0  0  0  0
    8.3369   11.2252   25.5518 C   0  0  2  0  0  0  0  0  0  0  0  0
    8.9149   12.3037   23.3358 C   0  0  2  0  0  0  0  0  0  0  0  0
   11.8028   12.3319   19.0308 C   0  0  0  0  0  0  0  0  0  0  0  0
   14.0208   12.6329   20.1707 C   0  0  0  0  0  0  0  0  0  0  0  0
   12.7800   10.4615   20.4025 C   0  0  0  0  0  0  0  0  0  0  0  0
   12.6446   11.9764   20.2555 C   0  0  0  0  0  0  0  0  0  0  0  0
   10.2272   12.5919   22.8052 N   0  0  0  0  0  0  0  0  0  0  0  0
   10.0119    9.0444   23.1690 O   0  0  0  0  0  0  0  0  0  0  0  0
   10.1517   11.2007   20.9502 O   0  0  0  0  0  0  0  0  0  0  0  0
   11.9922   12.4911   21.4218 O   0  0  0  0  0  0  0  0  0  0  0  0
    8.9031    9.1196   25.6747 H   0  0  0  0  0  0  0  0  0  0  0  0
   10.2898   10.2490   25.6037 H   0  0  0  0  0  0  0  0  0  0  0  0
    6.7070    9.6250   23.2656 H   0  0  0  0  0  0  0  0  0  0  0  0
    6.3203   11.3125   22.9414 H   0  0  0  0  0  0  0  0  0  0  0  0
    6.2622   11.7623   25.1766 H   0  0  0  0  0  0  0  0  0  0  0  0
    6.5054   10.0484   25.4885 H   0  0  0  0  0  0  0  0  0  0  0  0
    8.2383   13.3542   25.1107 H   0  0  0  0  0  0  0  0  0  0  0  0
    9.8724   12.7311   25.2659 H   0  0  0  0  0  0  0  0  0  0  0  0
    8.5174   10.6962   21.8895 H   0  0  0  0  0  0  0  0  0  0  0  0
    8.2788   11.3789   26.6348 H   0  0  0  0  0  0  0  0  0  0  0  0
    8.2453   13.0349   22.8671 H   0  0  0  0  0  0  0  0  0  0  0  0
   10.8142   11.8625   19.0880 H   0  0  0  0  0  0  0  0  0  0  0  0
   11.6688   13.4142   18.9338 H   0  0  0  0  0  0  0  0  0  0  0  0
   12.2703   11.9573   18.1130 H   0  0  0  0  0  0  0  0  0  0  0  0
   14.6281   12.3806   21.0474 H   0  0  0  0  0  0  0  0  0  0  0  0
   13.9322   13.7253   20.1607 H   0  0  0  0  0  0  0  0  0  0  0  0
   14.5626   12.3208   19.2721 H   0  0  0  0  0  0  0  0  0  0  0  0
   13.3838   10.2063   21.2809 H   0  0  0  0  0  0  0  0  0  0  0  0
   11.8033    9.9770   20.5019 H   0  0  0  0  0  0  0  0  0  0  0  0
   13.2960   10.0307   19.5369 H   0  0  0  0  0  0  0  0  0  0  0  0
   10.8104   13.2562   23.3049 H   0  0  0  0  0  0  0  0  0  0  0  0
  1  3  1  0  0  0  0
  1  7  1  0  0  0  0
  1 15  2  0  0  0  0
  2 14  1  0  0  0  0
  2 16  2  0  0  0  0
  2 17  1  0  0  0  0
  3  8  1  0  0  0  0
  4  5  1  0  0  0  0
  4  7  1  1  0  0  0
  5  8  1  0  0  0  0
  6  8  1  6  0  0  0
  6  9  1  0  0  0  0
  7  9  1  0  0  0  0
  9 14  1  6  0  0  0
 10 13  1  0  0  0  0
 11 13  1  0  0  0  0
 12 13  1  0  0  0  0
 13 17  1  0  0  0  0
  3 18  1  0  0  0  0
  3 19  1  0  0  0  0
  4 20  1  0  0  0  0
  4 21  1  0  0  0  0
  5 22  1  0  0  0  0
  5 23  1  0  0  0  0
  6 24  1  0  0  0  0
  6 25  1  0  0  0  0
  7 26  1  0  0  0  0
  8 27  1  0  0  0  0
  9 28  1  0  0  0  0
 10 29  1  0  0  0  0
 10 30  1  0  0  0  0
 10 31  1  0  0  0  0
 11 32  1  0  0  0  0
 11 33  1  0  0  0  0
 11 34  1  0  0  0  0
 12 35  1  0  0  0  0
 12 36  1  0  0  0  0
 12 37  1  0  0  0  0
 14 38  1  0  0  0  0
M  END
> <id>
EN300-26866253

> <smiles>
CC(C)(C)OC(=O)N[C@@H]1C[C@H]2CC[C@@H]1C(=O)C2 |&1:8,10,13,r|

> <IUPAC Name>
rac-tert-butyl N-[(1R,2S,4S)-6-oxobicyclo[2.2.2]octan-2-yl]carbamate

> <CAS>
2445750-15-0

> <Purity>
95

> <URL>
https://www.enaminestore.com/catalog/EN300-26866253

> <ROCS_ShapeQuery>
x0812_0A_x1140_0A_x1097_0A_x0365_0A_x1097_0A_x0310_0A

> <ROCS_TanimotoCombo>
0.707 

> <ROCS_ShapeTanimoto>
0.216 

> <ROCS_ColorTanimoto>
0.491 

> <ROCS_RefTversky>
0.200 

> <ROCS_RefColorTversky>
0.556 

> <ROCS_RefTverskyCombo>
0.756 

> <ROCS_FitTversky>
1.630 

> <ROCS_FitColorTversky>
0.807 

> <ROCS_FitTverskyCombo>
2.437 

> <ROCS_ColorScore>
-8.280

> <ROCS_Overlap>
2019.742

> <ROCS_Rank>
269                 

$$$$
untitled-dbase-333694_0
  -OEChem-02092408543D

 22 23  0     1  0  0  0  0  0999 V2000
   10.3309   11.3833   22.4592 C   0  0  0  0  0  0  0  0  0  0  0  0
    9.3748   12.1103   24.7001 C   0  0  0  0  0  0  0  0  0  0  0  0
    8.0029   11.9084   25.3651 C   0  0  0  0  0  0  0  0  0  0  0  0
    7.8688   11.2608   23.0631 C   0  0  0  0  0  0  0  0  0  0  0  0
    9.2954    9.7050   24.0651 C   0  0  0  0  0  0  0  0  0  0  0  0
    9.3151   11.1306   23.5188 C   0  0  1  0  0  0  0  0  0  0  0  0
    7.3446   10.8723   24.4367 C   0  0  2  0  0  0  0  0  0  0  0  0
    5.8465   10.7541   24.5743 C   0  0  0  0  0  0  0  0  0  0  0  0
   10.0436   11.6377   21.2942 O   0  0  0  0  0  0  0  0  0  0  0  0
    7.9926    9.6000   24.6882 O   0  0  0  0  0  0  0  0  0  0  0  0
   11.3833   11.3277   22.7849 H   0  0  0  0  0  0  0  0  0  0  0  0
    9.4917   13.1468   24.3623 H   0  0  0  0  0  0  0  0  0  0  0  0
   10.1983   11.8892   25.3881 H   0  0  0  0  0  0  0  0  0  0  0  0
    8.1170   11.5318   26.3869 H   0  0  0  0  0  0  0  0  0  0  0  0
    7.4494   12.8535   25.3895 H   0  0  0  0  0  0  0  0  0  0  0  0
    7.5873   12.2705   22.7451 H   0  0  0  0  0  0  0  0  0  0  0  0
    7.6109   10.5428   22.2761 H   0  0  0  0  0  0  0  0  0  0  0  0
    9.3639    8.9462   23.2781 H   0  0  0  0  0  0  0  0  0  0  0  0
   10.0716    9.5108   24.8118 H   0  0  0  0  0  0  0  0  0  0  0  0
    5.4524   10.0003   23.8845 H   0  0  0  0  0  0  0  0  0  0  0  0
    5.3604   11.7096   24.3508 H   0  0  0  0  0  0  0  0  0  0  0  0
    5.5731   10.4612   25.5935 H   0  0  0  0  0  0  0  0  0  0  0  0
  1  6  1  0  0  0  0
  1  9  2  0  0  0  0
  2  3  1  0  0  0  0
  2  6  1  0  0  0  0
  3  7  1  0  0  0  0
  4  6  1  0  0  0  0
  4  7  1  0  0  0  0
  5  6  1  0  0  0  0
  5 10  1  0  0  0  0
  7  8  1  0  0  0  0
  7 10  1  0  0  0  0
  1 11  1  0  0  0  0
  2 12  1  0  0  0  0
  2 13  1  0  0  0  0
  3 14  1  0  0  0  0
  3 15  1  0  0  0  0
  4 16  1  0  0  0  0
  4 17  1  0  0  0  0
  5 18  1  0  0  0  0
  5 19  1  0  0  0  0
  8 20  1  0  0  0  0
  8 21  1  0  0  0  0
  8 22  1  0  0  0  0
M  END
> <id>
EN300-37345411

> <smiles>
CC1(CCC2(CO1)C=O)C2

> <MDLNUMBER>
MFCD34600556

> <IUPAC Name>
1-methyl-2-oxabicyclo[2.2.1]heptane-4-carbaldehyde

> <CAS>
2758001-03-3

> <Purity>
95

> <URL>
https://www.enaminestore.com/catalog/EN300-37345411

> <ROCS_ShapeQuery>
x0812_0A_x1140_0A_x1097_0A_x0365_0A_x1097_0A_x0310_0A

> <ROCS_TanimotoCombo>
0.707 

> <ROCS_ShapeTanimoto>
0.194 

> <ROCS_ColorTanimoto>
0.513 

> <ROCS_RefTversky>
0.178 

> <ROCS_RefColorTversky>
0.539 

> <ROCS_RefTverskyCombo>
0.717 

> <ROCS_FitTversky>
1.881 

> <ROCS_FitColorTversky>
0.914 

> <ROCS_FitTverskyCombo>
2.795 

> <ROCS_ColorScore>
-7.976

> <ROCS_Overlap>
1796.523

> <ROCS_Rank>
270                 

$$$$
untitled-dbase-478575_2
  -OEChem-02092408543D

 28 29  0     1  0  0  0  0  0999 V2000
    7.7874   12.0004   25.2467 C   0  0  0  0  0  0  0  0  0  0  0  0
    7.6913   10.7012   25.5682 C   0  0  0  0  0  0  0  0  0  0  0  0
   10.3855   11.9088   22.4747 C   0  0  0  0  0  0  0  0  0  0  0  0
    7.5412   10.8362   23.2711 C   0  0  0  0  0  0  0  0  0  0  0  0
    8.2696   12.0724   23.8147 C   0  0  2  0  0  0  0  0  0  0  0  0
    8.1063    9.9068   24.3500 C   0  0  1  0  0  0  0  0  0  0  0  0
    9.7480   11.6104   23.8010 C   0  0  1  0  0  0  0  0  0  0  0  0
    9.6339   10.0987   24.1623 C   0  0  2  0  0  0  0  0  0  0  0  0
   11.5820   14.3602   20.9178 C   0  0  0  0  0  0  0  0  0  0  0  0
   12.1746   13.0817   21.4709 C   0  0  0  0  0  0  0  0  0  0  0  0
   10.1447    9.1989   23.1324 N   0  0  0  0  0  0  0  0  0  0  0  0
    9.9755   11.4787   21.4051 O   0  0  0  0  0  0  0  0  0  0  0  0
   11.4679   12.7169   22.6607 O   0  0  0  0  0  0  0  0  0  0  0  0
    7.6113   12.8379   25.9024 H   0  0  0  0  0  0  0  0  0  0  0  0
    7.4226   10.2975   26.5311 H   0  0  0  0  0  0  0  0  0  0  0  0
    6.4474   10.9260   23.3029 H   0  0  0  0  0  0  0  0  0  0  0  0
    7.8385   10.5609   22.2538 H   0  0  0  0  0  0  0  0  0  0  0  0
    8.0357   13.0019   23.2933 H   0  0  0  0  0  0  0  0  0  0  0  0
    7.7282    8.8833   24.3283 H   0  0  0  0  0  0  0  0  0  0  0  0
   10.3436   12.1365   24.5580 H   0  0  0  0  0  0  0  0  0  0  0  0
   10.1663    9.8926   25.0996 H   0  0  0  0  0  0  0  0  0  0  0  0
   10.5258   14.2250   20.6687 H   0  0  0  0  0  0  0  0  0  0  0  0
   11.6723   15.1738   21.6451 H   0  0  0  0  0  0  0  0  0  0  0  0
   12.1194   14.6768   20.0178 H   0  0  0  0  0  0  0  0  0  0  0  0
   13.2309   13.2238   21.7179 H   0  0  0  0  0  0  0  0  0  0  0  0
   12.0827   12.2697   20.7434 H   0  0  0  0  0  0  0  0  0  0  0  0
    9.3902    8.6461   22.8000 H   0  0  0  0  0  0  0  0  0  0  0  0
   10.5249    9.7499   22.3994 H   0  0  0  0  0  0  0  0  0  0  0  0
  1  2  2  0  0  0  0
  1  5  1  0  0  0  0
  2  6  1  0  0  0  0
  3  7  1  1  0  0  0
  3 12  2  0  0  0  0
  3 13  1  0  0  0  0
  4  5  1  1  0  0  0
  4  6  1  1  0  0  0
  5  7  1  0  0  0  0
  6  8  1  0  0  0  0
  7  8  1  0  0  0  0
  8 11  1  1  0  0  0
  9 10  1  0  0  0  0
 10 13  1  0  0  0  0
  1 14  1  0  0  0  0
  2 15  1  0  0  0  0
  4 16  1  0  0  0  0
  4 17  1  0  0  0  0
  5 18  1  0  0  0  0
  6 19  1  0  0  0  0
  7 20  1  0  0  0  0
  8 21  1  0  0  0  0
  9 22  1  0  0  0  0
  9 23  1  0  0  0  0
  9 24  1  0  0  0  0
 10 25  1  0  0  0  0
 10 26  1  0  0  0  0
 11 27  1  0  0  0  0
 11 28  1  0  0  0  0
M  END
> <id>
EN300-27728221

> <smiles>
CCOC(=O)[C@@H]1[C@H](N)[C@@H]2C[C@H]1C=C2 |&1:5,6,8,10,r|

> <IUPAC Name>
rac-ethyl (1R,2R,3S,4S)-3-aminobicyclo[2.2.1]hept-5-ene-2-carboxylate

> <CAS>
342419-21-0

> <URL>
https://www.enaminestore.com/catalog/EN300-27728221

> <ROCS_ShapeQuery>
x0812_0A_x1140_0A_x1097_0A_x0365_0A_x1097_0A_x0310_0A

> <ROCS_TanimotoCombo>
0.707 

> <ROCS_ShapeTanimoto>
0.231 

> <ROCS_ColorTanimoto>
0.476 

> <ROCS_RefTversky>
0.208 

> <ROCS_RefColorTversky>
0.532 

> <ROCS_RefTverskyCombo>
0.740 

> <ROCS_FitTversky>
1.950 

> <ROCS_FitColorTversky>
0.818 

> <ROCS_FitTverskyCombo>
2.768 

> <ROCS_ColorScore>
-7.900

> <ROCS_Overlap>
2101.203

> <ROCS_Rank>
271                 

$$$$
untitled-dbase-258878_0
  -OEChem-02092408543D

 20 22  0     1  0  0  0  0  0999 V2000
    9.3103   11.5554   22.1157 C   0  0  0  0  0  0  0  0  0  0  0  0
    7.7974   11.8214   22.0340 C   0  0  0  0  0  0  0  0  0  0  0  0
    9.1307   10.8178   25.9397 C   0  0  0  0  0  0  0  0  0  0  0  0
    7.6072   10.9924   25.8820 C   0  0  0  0  0  0  0  0  0  0  0  0
    9.3307   11.7434   23.6435 C   0  0  1  0  0  0  0  0  0  0  0  0
    7.7940   11.9346   23.5829 C   0  0  2  0  0  0  0  0  0  0  0  0
    9.4581   10.4775   24.4858 C   0  0  2  0  0  0  0  0  0  0  0  0
    7.3207   10.7285   24.4027 C   0  0  1  0  0  0  0  0  0  0  0  0
   10.1590   11.2840   21.2928 O   0  0  0  0  0  0  0  0  0  0  0  0
    8.2979    9.7131   24.1087 O   0  0  0  0  0  0  0  0  0  0  0  0
    7.5539   12.7484   21.5079 H   0  0  0  0  0  0  0  0  0  0  0  0
    7.2198   10.9925   21.6182 H   0  0  0  0  0  0  0  0  0  0  0  0
    9.6460   11.7131   26.3001 H   0  0  0  0  0  0  0  0  0  0  0  0
    9.3774    9.9796   26.6006 H   0  0  0  0  0  0  0  0  0  0  0  0
    7.1291   10.2333   26.5112 H   0  0  0  0  0  0  0  0  0  0  0  0
    7.2810   11.9817   26.2160 H   0  0  0  0  0  0  0  0  0  0  0  0
    9.9137   12.6112   23.9636 H   0  0  0  0  0  0  0  0  0  0  0  0
    7.4232   12.9004   23.9434 H   0  0  0  0  0  0  0  0  0  0  0  0
   10.3898    9.9260   24.3411 H   0  0  0  0  0  0  0  0  0  0  0  0
    6.3001   10.4059   24.1846 H   0  0  0  0  0  0  0  0  0  0  0  0
  1  2  1  0  0  0  0
  1  5  1  1  0  0  0
  1  9  2  0  0  0  0
  2  6  1  1  0  0  0
  3  4  1  0  0  0  0
  3  7  1  0  0  0  0
  4  8  1  0  0  0  0
  5  6  1  0  0  0  0
  5  7  1  0  0  0  0
  6  8  1  0  0  0  0
  7 10  1  1  0  0  0
  8 10  1  1  0  0  0
  2 11  1  0  0  0  0
  2 12  1  0  0  0  0
  3 13  1  0  0  0  0
  3 14  1  0  0  0  0
  4 15  1  0  0  0  0
  4 16  1  0  0  0  0
  5 17  1  0  0  0  0
  6 18  1  0  0  0  0
  7 19  1  0  0  0  0
  8 20  1  0  0  0  0
M  END
> <id>
EN300-7541407

> <smiles>
O=C1C[C@@H]2[C@H]1[C@H]3CC[C@@H]2O3 |&1:3,4,5,8,r|

> <IUPAC Name>
rac-(1R,2S,5R,6S)-9-oxatricyclo[4.2.1.0,2,5]nonan-3-one

> <CAS>
2408937-41-5

> <Purity>
95

> <URL>
https://www.enaminestore.com/catalog/EN300-7541407

> <ROCS_ShapeQuery>
x0812_0A_x1140_0A_x1097_0A_x0365_0A_x1097_0A_x0310_0A

> <ROCS_TanimotoCombo>
0.707 

> <ROCS_ShapeTanimoto>
0.176 

> <ROCS_ColorTanimoto>
0.531 

> <ROCS_RefTversky>
0.164 

> <ROCS_RefColorTversky>
0.662 

> <ROCS_RefTverskyCombo>
0.826 

> <ROCS_FitTversky>
1.707 

> <ROCS_FitColorTversky>
0.729 

> <ROCS_FitTverskyCombo>
2.436 

> <ROCS_ColorScore>
-9.966

> <ROCS_Overlap>
1656.287

> <ROCS_Rank>
272                 

$$$$
untitled-dbase-585937_0
  -OEChem-02092408543D

 33 34  0     1  0  0  0  0  0999 V2000
   10.4285   11.7720   22.5763 C   0  0  0  0  0  0  0  0  0  0  0  0
    7.1410   11.0272   23.0514 C   0  0  0  0  0  0  0  0  0  0  0  0
    7.3559   12.2864   23.9001 C   0  0  0  0  0  0  0  0  0  0  0  0
    9.2991    9.7469   23.4915 C   0  0  0  0  0  0  0  0  0  0  0  0
    9.6308   11.8616   24.9618 C   0  0  0  0  0  0  0  0  0  0  0  0
   10.1640   10.9755   23.8227 C   0  0  2  0  0  0  0  0  0  0  0  0
    7.8044    9.8896   23.8419 C   0  0  1  0  0  0  0  0  0  0  0  0
    8.1040   11.8092   25.1555 C   0  0  2  0  0  0  0  0  0  0  0  0
    7.6769   10.3465   25.2975 C   0  0  0  0  0  0  0  0  0  0  0  0
   12.5817   14.7103   22.2317 C   0  0  0  0  0  0  0  0  0  0  0  0
   11.6278   13.6355   21.7559 C   0  0  0  0  0  0  0  0  0  0  0  0
    6.3120   10.2034   25.8052 N   0  0  0  0  0  0  0  0  0  0  0  0
    9.9350   11.5210   21.4852 O   0  0  0  0  0  0  0  0  0  0  0  0
   11.2875   12.7919   22.8608 O   0  0  0  0  0  0  0  0  0  0  0  0
    6.0670   10.8394   22.9351 H   0  0  0  0  0  0  0  0  0  0  0  0
    7.5564   11.1364   22.0446 H   0  0  0  0  0  0  0  0  0  0  0  0
    7.8846   13.0759   23.3596 H   0  0  0  0  0  0  0  0  0  0  0  0
    6.3801   12.7023   24.1800 H   0  0  0  0  0  0  0  0  0  0  0  0
    9.4014    9.4700   22.4345 H   0  0  0  0  0  0  0  0  0  0  0  0
    9.6905    8.8965   24.0663 H   0  0  0  0  0  0  0  0  0  0  0  0
   10.0961   11.5248   25.8982 H   0  0  0  0  0  0  0  0  0  0  0  0
    9.9471   12.9030   24.8229 H   0  0  0  0  0  0  0  0  0  0  0  0
   11.1599   10.6136   24.1138 H   0  0  0  0  0  0  0  0  0  0  0  0
    7.3014    8.9341   23.6540 H   0  0  0  0  0  0  0  0  0  0  0  0
    7.8352   12.4142   26.0288 H   0  0  0  0  0  0  0  0  0  0  0  0
    8.3424    9.7839   25.9620 H   0  0  0  0  0  0  0  0  0  0  0  0
   12.1208   15.3243   23.0104 H   0  0  0  0  0  0  0  0  0  0  0  0
   13.4988   14.2638   22.6300 H   0  0  0  0  0  0  0  0  0  0  0  0
   12.8784   15.3584   21.4003 H   0  0  0  0  0  0  0  0  0  0  0  0
   12.0949   13.0251   20.9773 H   0  0  0  0  0  0  0  0  0  0  0  0
   10.7118   14.0832   21.3590 H   0  0  0  0  0  0  0  0  0  0  0  0
    5.9672   11.1079   26.0202 H   0  0  0  0  0  0  0  0  0  0  0  0
    5.7643    9.7760   25.0976 H   0  0  0  0  0  0  0  0  0  0  0  0
  1  6  1  1  0  0  0
  1 13  2  0  0  0  0
  1 14  1  0  0  0  0
  2  3  1  0  0  0  0
  2  7  1  1  0  0  0
  3  8  1  1  0  0  0
  4  6  1  0  0  0  0
  4  7  1  0  0  0  0
  5  6  1  0  0  0  0
  5  8  1  0  0  0  0
  7  9  1  0  0  0  0
  8  9  1  0  0  0  0
  9 12  1  0  0  0  0
 10 11  1  0  0  0  0
 11 14  1  0  0  0  0
  2 15  1  0  0  0  0
  2 16  1  0  0  0  0
  3 17  1  0  0  0  0
  3 18  1  0  0  0  0
  4 19  1  0  0  0  0
  4 20  1  0  0  0  0
  5 21  1  0  0  0  0
  5 22  1  0  0  0  0
  6 23  1  0  0  0  0
  7 24  1  0  0  0  0
  8 25  1  0  0  0  0
  9 26  1  0  0  0  0
 10 27  1  0  0  0  0
 10 28  1  0  0  0  0
 10 29  1  0  0  0  0
 11 30  1  0  0  0  0
 11 31  1  0  0  0  0
 12 32  1  0  0  0  0
 12 33  1  0  0  0  0
M  END
> <id>
EN300-8650090

> <smiles>
CCOC(=O)[C@@H]1C[C@@H]2CC[C@H](C1)C2N

> <IUPAC Name>
ethyl (1R,3S,5S)-8-aminobicyclo[3.2.1]octane-3-carboxylate

> <URL>
https://www.enaminestore.com/catalog/EN300-8650090

> <ROCS_ShapeQuery>
x0812_0A_x1140_0A_x1097_0A_x0365_0A_x1097_0A_x0310_0A

> <ROCS_TanimotoCombo>
0.707 

> <ROCS_ShapeTanimoto>
0.237 

> <ROCS_ColorTanimoto>
0.470 

> <ROCS_RefTversky>
0.213 

> <ROCS_RefColorTversky>
0.516 

> <ROCS_RefTverskyCombo>
0.728 

> <ROCS_FitTversky>
1.946 

> <ROCS_FitColorTversky>
0.841 

> <ROCS_FitTverskyCombo>
2.787 

> <ROCS_ColorScore>
-7.640

> <ROCS_Overlap>
2149.139

> <ROCS_Rank>
273                 

$$$$
untitled-dbase-479932_3
  -OEChem-02092408543D

 44 46  0     1  0  0  0  0  0999 V2000
    9.6837   10.8252   20.0352 C   0  0  0  0  0  0  0  0  0  0  0  0
    7.2503   11.4000   25.3790 C   0  0  0  0  0  0  0  0  0  0  0  0
    8.7280   11.5100   25.7929 C   0  0  0  0  0  0  0  0  0  0  0  0
    7.8175    9.5906   23.7525 C   0  0  0  0  0  0  0  0  0  0  0  0
    7.8684   11.7215   21.5401 C   0  0  0  0  0  0  0  0  0  0  0  0
   10.1636   11.9589   22.1948 C   0  0  0  0  0  0  0  0  0  0  0  0
    7.1370   10.9659   23.9022 C   0  0  2  0  0  0  0  0  0  0  0  0
    9.6364   11.1229   24.6063 C   0  0  2  0  0  0  0  0  0  0  0  0
    7.8569   12.0267   23.0376 C   0  0  1  0  0  0  0  0  0  0  0  0
    9.3424   12.1330   23.4672 C   0  0  2  0  0  0  0  0  0  0  0  0
    9.2748    9.6698   24.2261 C   0  0  2  0  0  0  0  0  0  0  0  0
    8.9859    8.2996   20.0293 C   0  0  0  0  0  0  0  0  0  0  0  0
    6.9988    8.8985   18.6143 C   0  0  0  0  0  0  0  0  0  0  0  0
    9.2933    8.8551   17.5938 C   0  0  0  0  0  0  0  0  0  0  0  0
    8.4861    9.1447   18.8584 C   0  0  0  0  0  0  0  0  0  0  0  0
    9.2501   11.4267   21.2059 N   0  0  0  0  0  0  0  0  0  0  0  0
   10.8612   10.5865   19.7767 O   0  0  0  0  0  0  0  0  0  0  0  0
   10.1322    9.1499   23.2204 O   0  0  0  0  0  0  0  0  0  0  0  0
    8.6451   10.5276   19.1941 O   0  0  0  0  0  0  0  0  0  0  0  0
    6.7378   10.6775   26.0255 H   0  0  0  0  0  0  0  0  0  0  0  0
    6.7503   12.3641   25.5310 H   0  0  0  0  0  0  0  0  0  0  0  0
    8.9461   12.5324   26.1241 H   0  0  0  0  0  0  0  0  0  0  0  0
    8.9229   10.8569   26.6521 H   0  0  0  0  0  0  0  0  0  0  0  0
    7.2804    8.8580   24.3684 H   0  0  0  0  0  0  0  0  0  0  0  0
    7.7506    9.2235   22.7225 H   0  0  0  0  0  0  0  0  0  0  0  0
    7.2024   10.9076   21.2395 H   0  0  0  0  0  0  0  0  0  0  0  0
    7.5848   12.6115   20.9660 H   0  0  0  0  0  0  0  0  0  0  0  0
   10.4948   12.9354   21.8212 H   0  0  0  0  0  0  0  0  0  0  0  0
   11.0543   11.3340   22.3025 H   0  0  0  0  0  0  0  0  0  0  0  0
    6.0825   10.8935   23.6130 H   0  0  0  0  0  0  0  0  0  0  0  0
   10.6923   11.1909   24.8917 H   0  0  0  0  0  0  0  0  0  0  0  0
    7.3653   12.9966   23.1918 H   0  0  0  0  0  0  0  0  0  0  0  0
    9.5310   13.1442   23.8534 H   0  0  0  0  0  0  0  0  0  0  0  0
    9.3991    9.0205   25.1015 H   0  0  0  0  0  0  0  0  0  0  0  0
   10.0531    8.4734   20.2077 H   0  0  0  0  0  0  0  0  0  0  0  0
    8.4383    8.5230   20.9507 H   0  0  0  0  0  0  0  0  0  0  0  0
    8.8787    7.2304   19.8136 H   0  0  0  0  0  0  0  0  0  0  0  0
    6.6360    9.5029   17.7750 H   0  0  0  0  0  0  0  0  0  0  0  0
    6.4058    9.1947   19.4871 H   0  0  0  0  0  0  0  0  0  0  0  0
    6.7939    7.8452   18.3972 H   0  0  0  0  0  0  0  0  0  0  0  0
    8.9350    9.4611   16.7538 H   0  0  0  0  0  0  0  0  0  0  0  0
   10.3586    9.0615   17.7392 H   0  0  0  0  0  0  0  0  0  0  0  0
    9.1798    7.8081   17.2902 H   0  0  0  0  0  0  0  0  0  0  0  0
    9.8680    8.2267   23.0754 H   0  0  0  0  0  0  0  0  0  0  0  0
  1 16  1  0  0  0  0
  1 17  2  0  0  0  0
  1 19  1  0  0  0  0
  2  3  1  0  0  0  0
  2  7  1  1  0  0  0
  3  8  1  1  0  0  0
  4  7  1  0  0  0  0
  4 11  1  0  0  0  0
  5  9  1  6  0  0  0
  5 16  1  0  0  0  0
  6 10  1  6  0  0  0
  6 16  1  0  0  0  0
  7  9  1  0  0  0  0
  8 10  1  0  0  0  0
  8 11  1  0  0  0  0
  9 10  1  0  0  0  0
 11 18  1  6  0  0  0
 12 15  1  0  0  0  0
 13 15  1  0  0  0  0
 14 15  1  0  0  0  0
 15 19  1  0  0  0  0
  2 20  1  0  0  0  0
  2 21  1  0  0  0  0
  3 22  1  0  0  0  0
  3 23  1  0  0  0  0
  4 24  1  0  0  0  0
  4 25  1  0  0  0  0
  5 26  1  0  0  0  0
  5 27  1  0  0  0  0
  6 28  1  0  0  0  0
  6 29  1  0  0  0  0
  7 30  1  0  0  0  0
  8 31  1  0  0  0  0
  9 32  1  0  0  0  0
 10 33  1  0  0  0  0
 11 34  1  0  0  0  0
 12 35  1  0  0  0  0
 12 36  1  0  0  0  0
 12 37  1  0  0  0  0
 13 38  1  0  0  0  0
 13 39  1  0  0  0  0
 13 40  1  0  0  0  0
 14 41  1  0  0  0  0
 14 42  1  0  0  0  0
 14 43  1  0  0  0  0
 18 44  1  0  0  0  0
M  END
> <id>
EN300-27718363

> <smiles>
CC(C)(C)OC(=O)N1C[C@@H]2[C@H](C1)[C@H]3CC[C@@H]2C[C@H]3O |&1:9,10,12,15,17,r|

> <IUPAC Name>
rac-tert-butyl (1R,2S,6S,7R,8R)-8-hydroxy-4-azatricyclo[5.2.2.0,2,6]undecane-4-carboxylate

> <CAS>
2580101-90-0

> <URL>
https://www.enaminestore.com/catalog/EN300-27718363

> <ROCS_ShapeQuery>
x0812_0A_x1140_0A_x1097_0A_x0365_0A_x1097_0A_x0310_0A

> <ROCS_TanimotoCombo>
0.707 

> <ROCS_ShapeTanimoto>
0.201 

> <ROCS_ColorTanimoto>
0.506 

> <ROCS_RefTversky>
0.189 

> <ROCS_RefColorTversky>
0.590 

> <ROCS_RefTverskyCombo>
0.779 

> <ROCS_FitTversky>
1.431 

> <ROCS_FitColorTversky>
0.782 

> <ROCS_FitTverskyCombo>
2.212 

> <ROCS_ColorScore>
-8.804

> <ROCS_Overlap>
1915.455

> <ROCS_Rank>
274                 

$$$$
untitled-dbase-478064_8
  -OEChem-02092408543D

 24 25  0     0  0  0  0  0  0999 V2000
   10.1550   11.5149   22.7035 C   0  0  0  0  0  0  0  0  0  0  0  0
    9.1281   11.0211   25.2033 C   0  0  0  0  0  0  0  0  0  0  0  0
    8.2436    9.8147   23.7043 C   0  0  0  0  0  0  0  0  0  0  0  0
    9.0686   11.1447   23.6429 C   0  0  0  0  0  0  0  0  0  0  0  0
    7.6670   10.6641   24.8570 C   0  0  0  0  0  0  0  0  0  0  0  0
    7.6941   11.8576   23.8802 C   0  0  0  0  0  0  0  0  0  0  0  0
   11.4727   14.0380   22.6924 C   0  0  0  0  0  0  0  0  0  0  0  0
   12.1899   12.7108   22.8181 C   0  0  0  0  0  0  0  0  0  0  0  0
    6.6429   10.3083   25.7463 N   0  0  0  0  0  0  0  0  0  0  0  0
   10.0166   11.5867   21.4899 O   0  0  0  0  0  0  0  0  0  0  0  0
   11.3007   11.7540   23.4030 O   0  0  0  0  0  0  0  0  0  0  0  0
    7.7192   13.1039   24.4005 F   0  0  0  0  0  0  0  0  0  0  0  0
    6.8096   11.8630   22.8594 F   0  0  0  0  0  0  0  0  0  0  0  0
    9.7547   10.2235   25.6171 H   0  0  0  0  0  0  0  0  0  0  0  0
    9.2997   11.9408   25.7725 H   0  0  0  0  0  0  0  0  0  0  0  0
    7.5812    9.5968   22.8598 H   0  0  0  0  0  0  0  0  0  0  0  0
    8.7868    8.9029   23.9759 H   0  0  0  0  0  0  0  0  0  0  0  0
   10.5901   13.9457   22.0534 H   0  0  0  0  0  0  0  0  0  0  0  0
   11.1601   14.4026   23.6764 H   0  0  0  0  0  0  0  0  0  0  0  0
   12.1380   14.7974   22.2683 H   0  0  0  0  0  0  0  0  0  0  0  0
   13.0715   12.8101   23.4584 H   0  0  0  0  0  0  0  0  0  0  0  0
   12.5007   12.3476   21.8340 H   0  0  0  0  0  0  0  0  0  0  0  0
    5.8656   10.9543   25.6912 H   0  0  0  0  0  0  0  0  0  0  0  0
    6.2853    9.3830   25.5448 H   0  0  0  0  0  0  0  0  0  0  0  0
  1  4  1  0  0  0  0
  1 10  2  0  0  0  0
  1 11  1  0  0  0  0
  2  4  1  0  0  0  0
  2  5  1  0  0  0  0
  3  4  1  0  0  0  0
  3  5  1  0  0  0  0
  4  6  1  0  0  0  0
  5  6  1  0  0  0  0
  5  9  1  0  0  0  0
  6 12  1  0  0  0  0
  6 13  1  0  0  0  0
  7  8  1  0  0  0  0
  8 11  1  0  0  0  0
  2 14  1  0  0  0  0
  2 15  1  0  0  0  0
  3 16  1  0  0  0  0
  3 17  1  0  0  0  0
  7 18  1  0  0  0  0
  7 19  1  0  0  0  0
  7 20  1  0  0  0  0
  8 21  1  0  0  0  0
  8 22  1  0  0  0  0
  9 23  1  0  0  0  0
  9 24  1  0  0  0  0
M  END
> <id>
EN300-27727013

> <smiles>
CCOC(=O)C1(CC2(N)C1)C2(F)F

> <IUPAC Name>
ethyl 3-amino-2,2-difluorobicyclo[1.1.1]pentane-1-carboxylate

> <CAS>
2580226-88-4

> <URL>
https://www.enaminestore.com/catalog/EN300-27727013

> <ROCS_ShapeQuery>
x0812_0A_x1140_0A_x1097_0A_x0365_0A_x1097_0A_x0310_0A

> <ROCS_TanimotoCombo>
0.706 

> <ROCS_ShapeTanimoto>
0.229 

> <ROCS_ColorTanimoto>
0.477 

> <ROCS_RefTversky>
0.206 

> <ROCS_RefColorTversky>
0.556 

> <ROCS_RefTverskyCombo>
0.763 

> <ROCS_FitTversky>
1.926 

> <ROCS_FitColorTversky>
0.771 

> <ROCS_FitTverskyCombo>
2.696 

> <ROCS_ColorScore>
-8.294

> <ROCS_Overlap>
2085.162

> <ROCS_Rank>
275                 

$$$$
untitled-dbase-560977_8
  -OEChem-02092408543D

 34 35  0     0  0  0  0  0  0999 V2000
    9.6669   12.1327   22.1850 C   0  0  0  0  0  0  0  0  0  0  0  0
    7.0973   10.4815   24.2061 C   0  0  0  0  0  0  0  0  0  0  0  0
    8.8993   10.2965   25.2601 C   0  0  0  0  0  0  0  0  0  0  0  0
    8.4383   12.5641   24.3634 C   0  0  0  0  0  0  0  0  0  0  0  0
    7.8196   11.4434   25.2240 C   0  0  0  0  0  0  0  0  0  0  0  0
    8.5888   10.3281   23.7129 C   0  0  0  0  0  0  0  0  0  0  0  0
   11.8636   13.4634   20.9267 C   0  0  0  0  0  0  0  0  0  0  0  0
   11.0901   15.5111   22.1588 C   0  0  0  0  0  0  0  0  0  0  0  0
   11.8537   13.4924   23.4434 C   0  0  0  0  0  0  0  0  0  0  0  0
    8.9914    9.1899   22.8264 C   0  0  0  0  0  0  0  0  0  0  0  0
   11.1562   13.9855   22.1764 C   0  0  0  0  0  0  0  0  0  0  0  0
    8.9723   11.7058   23.2995 N   0  0  0  0  0  0  0  0  0  0  0  0
   10.1070   11.4001   21.3037 O   0  0  0  0  0  0  0  0  0  0  0  0
   10.4033    9.0090   22.8917 O   0  0  0  0  0  0  0  0  0  0  0  0
    9.8106   13.4954   22.1767 O   0  0  0  0  0  0  0  0  0  0  0  0
    7.0173   11.9559   26.6866 Cl  0  0  0  0  0  0  0  0  0  0  0  0
    6.6311    9.5823   24.6257 H   0  0  0  0  0  0  0  0  0  0  0  0
    6.3985   10.9498   23.5059 H   0  0  0  0  0  0  0  0  0  0  0  0
    9.9104   10.5889   25.5601 H   0  0  0  0  0  0  0  0  0  0  0  0
    8.6229    9.3778   25.7911 H   0  0  0  0  0  0  0  0  0  0  0  0
    7.7015   13.2585   23.9494 H   0  0  0  0  0  0  0  0  0  0  0  0
    9.2553   13.0976   24.8579 H   0  0  0  0  0  0  0  0  0  0  0  0
   11.9130   12.3687   20.9356 H   0  0  0  0  0  0  0  0  0  0  0  0
   11.3529   13.7810   20.0117 H   0  0  0  0  0  0  0  0  0  0  0  0
   12.8994   13.8193   20.8862 H   0  0  0  0  0  0  0  0  0  0  0  0
   10.5834   15.8900   23.0536 H   0  0  0  0  0  0  0  0  0  0  0  0
   10.5083   15.8667   21.3007 H   0  0  0  0  0  0  0  0  0  0  0  0
   12.0883   15.9582   22.1101 H   0  0  0  0  0  0  0  0  0  0  0  0
   11.3465   13.8668   24.3399 H   0  0  0  0  0  0  0  0  0  0  0  0
   11.8777   12.3989   23.4910 H   0  0  0  0  0  0  0  0  0  0  0  0
   12.8831   13.8658   23.4918 H   0  0  0  0  0  0  0  0  0  0  0  0
    8.7201    9.3842   21.7785 H   0  0  0  0  0  0  0  0  0  0  0  0
    8.5119    8.2507   23.1388 H   0  0  0  0  0  0  0  0  0  0  0  0
   10.6142    8.2660   22.3051 H   0  0  0  0  0  0  0  0  0  0  0  0
  1 12  1  0  0  0  0
  1 13  2  0  0  0  0
  1 15  1  0  0  0  0
  2  5  1  0  0  0  0
  2  6  1  0  0  0  0
  3  5  1  0  0  0  0
  3  6  1  0  0  0  0
  4  5  1  0  0  0  0
  4 12  1  0  0  0  0
  5 16  1  0  0  0  0
  6 10  1  0  0  0  0
  6 12  1  0  0  0  0
  7 11  1  0  0  0  0
  8 11  1  0  0  0  0
  9 11  1  0  0  0  0
 10 14  1  0  0  0  0
 11 15  1  0  0  0  0
  2 17  1  0  0  0  0
  2 18  1  0  0  0  0
  3 19  1  0  0  0  0
  3 20  1  0  0  0  0
  4 21  1  0  0  0  0
  4 22  1  0  0  0  0
  7 23  1  0  0  0  0
  7 24  1  0  0  0  0
  7 25  1  0  0  0  0
  8 26  1  0  0  0  0
  8 27  1  0  0  0  0
  8 28  1  0  0  0  0
  9 29  1  0  0  0  0
  9 30  1  0  0  0  0
  9 31  1  0  0  0  0
 10 32  1  0  0  0  0
 10 33  1  0  0  0  0
 14 34  1  0  0  0  0
M  END
> <id>
EN300-37351301

> <smiles>
CC(C)(C)OC(=O)N1CC2(Cl)CC1(CO)C2

> <IUPAC Name>
tert-butyl 4-chloro-1-(hydroxymethyl)-2-azabicyclo[2.1.1]hexane-2-carboxylate

> <CAS>
2763759-63-1

> <Purity>
95

> <URL>
https://www.enaminestore.com/catalog/EN300-37351301

> <ROCS_ShapeQuery>
x0812_0A_x1140_0A_x1097_0A_x0365_0A_x1097_0A_x0310_0A

> <ROCS_TanimotoCombo>
0.706 

> <ROCS_ShapeTanimoto>
0.251 

> <ROCS_ColorTanimoto>
0.455 

> <ROCS_RefTversky>
0.224 

> <ROCS_RefColorTversky>
0.543 

> <ROCS_RefTverskyCombo>
0.768 

> <ROCS_FitTversky>
1.899 

> <ROCS_FitColorTversky>
0.737 

> <ROCS_FitTverskyCombo>
2.636 

> <ROCS_ColorScore>
-8.105

> <ROCS_Overlap>
2269.561

> <ROCS_Rank>
276                 

$$$$
untitled-dbase-468727_0
  -OEChem-02092408543D

 27 28  0     1  0  0  0  0  0999 V2000
    9.3125    9.8485   23.9497 C   0  0  0  0  0  0  0  0  0  0  0  0
    9.4021   12.5257   22.1030 C   0  0  0  0  0  0  0  0  0  0  0  0
    9.8413   10.8132   24.9862 C   0  0  0  0  0  0  0  0  0  0  0  0
    7.5052   10.9829   22.6643 C   0  0  0  0  0  0  0  0  0  0  0  0
    7.4598   10.5955   25.1435 C   0  0  0  0  0  0  0  0  0  0  0  0
    8.3401   12.7909   24.3412 C   0  0  0  0  0  0  0  0  0  0  0  0
    7.8143    9.9908   23.7879 C   0  0  2  0  0  0  0  0  0  0  0  0
    8.1183   12.3816   22.8721 C   0  0  1  0  0  0  0  0  0  0  0  0
    8.5769   11.6218   25.3166 C   0  0  2  0  0  0  0  0  0  0  0  0
   11.1001   14.0744   21.5536 C   0  0  0  0  0  0  0  0  0  0  0  0
   10.0093    9.0754   23.3072 O   0  0  0  0  0  0  0  0  0  0  0  0
    9.9215   11.6225   21.4614 O   0  0  0  0  0  0  0  0  0  0  0  0
    9.8748   13.7973   22.2390 O   0  0  0  0  0  0  0  0  0  0  0  0
   10.1734   10.2367   25.8552 H   0  0  0  0  0  0  0  0  0  0  0  0
   10.6571   11.4262   24.6012 H   0  0  0  0  0  0  0  0  0  0  0  0
    7.8253   10.5615   21.7029 H   0  0  0  0  0  0  0  0  0  0  0  0
    6.4143   11.0942   22.6072 H   0  0  0  0  0  0  0  0  0  0  0  0
    6.4598   11.0412   25.1630 H   0  0  0  0  0  0  0  0  0  0  0  0
    7.5108    9.8367   25.9344 H   0  0  0  0  0  0  0  0  0  0  0  0
    9.1666   13.5078   24.4226 H   0  0  0  0  0  0  0  0  0  0  0  0
    7.4406   13.3231   24.6790 H   0  0  0  0  0  0  0  0  0  0  0  0
    7.3361    9.0200   23.6366 H   0  0  0  0  0  0  0  0  0  0  0  0
    7.4531   13.1202   22.4138 H   0  0  0  0  0  0  0  0  0  0  0  0
    8.6182   12.0066   26.3410 H   0  0  0  0  0  0  0  0  0  0  0  0
   11.3885   15.1140   21.7273 H   0  0  0  0  0  0  0  0  0  0  0  0
   10.9685   13.8956   20.4834 H   0  0  0  0  0  0  0  0  0  0  0  0
   11.8801   13.4131   21.9383 H   0  0  0  0  0  0  0  0  0  0  0  0
  1  3  1  0  0  0  0
  1  7  1  0  0  0  0
  1 11  2  0  0  0  0
  2  8  1  1  0  0  0
  2 12  2  0  0  0  0
  2 13  1  0  0  0  0
  3  9  1  0  0  0  0
  4  7  1  0  0  0  0
  4  8  1  0  0  0  0
  5  7  1  6  0  0  0
  5  9  1  6  0  0  0
  6  8  1  0  0  0  0
  6  9  1  0  0  0  0
 10 13  1  0  0  0  0
  3 14  1  0  0  0  0
  3 15  1  0  0  0  0
  4 16  1  0  0  0  0
  4 17  1  0  0  0  0
  5 18  1  0  0  0  0
  5 19  1  0  0  0  0
  6 20  1  0  0  0  0
  6 21  1  0  0  0  0
  7 22  1  0  0  0  0
  8 23  1  0  0  0  0
  9 24  1  0  0  0  0
 10 25  1  0  0  0  0
 10 26  1  0  0  0  0
 10 27  1  0  0  0  0
M  END
> <id>
EN300-27151899

> <smiles>
COC(=O)[C@@H]1C[C@H]2C[C@@H](C1)C(=O)C2 |&1:4,6,8,r|

> <IUPAC Name>
rac-methyl (1R,3R,5S)-6-oxobicyclo[3.2.1]octane-3-carboxylate

> <CAS>
2648868-68-0

> <Purity>
95

> <URL>
https://www.enaminestore.com/catalog/EN300-27151899

> <ROCS_ShapeQuery>
x0812_0A_x1140_0A_x1097_0A_x0365_0A_x1097_0A_x0310_0A

> <ROCS_TanimotoCombo>
0.706 

> <ROCS_ShapeTanimoto>
0.209 

> <ROCS_ColorTanimoto>
0.497 

> <ROCS_RefTversky>
0.191 

> <ROCS_RefColorTversky>
0.515 

> <ROCS_RefTverskyCombo>
0.707 

> <ROCS_FitTversky>
1.800 

> <ROCS_FitColorTversky>
0.932 

> <ROCS_FitTverskyCombo>
2.733 

> <ROCS_ColorScore>
-7.611

> <ROCS_Overlap>
1936.163

> <ROCS_Rank>
277                 

$$$$
untitled-dbase-451766_2
  -OEChem-02092408543D

 21 22  0     0  0  0  0  0  0999 V2000
    8.3655   11.8501   25.2299 C   0  0  0  0  0  0  0  0  0  0  0  0
    7.9063   11.7242   23.1898 C   0  0  0  0  0  0  0  0  0  0  0  0
    9.5734   10.1031   23.9901 C   0  0  0  0  0  0  0  0  0  0  0  0
    9.2725   11.6177   23.9644 C   0  0  0  0  0  0  0  0  0  0  0  0
    7.4919   10.8185   24.4146 C   0  0  0  0  0  0  0  0  0  0  0  0
    6.0520   10.5790   24.7527 C   0  0  0  0  0  0  0  0  0  0  0  0
   10.4178   12.5320   23.6495 C   0  0  0  0  0  0  0  0  0  0  0  0
    8.2691    9.5933   24.3153 O   0  0  0  0  0  0  0  0  0  0  0  0
    5.9490   10.0951   26.0888 O   0  0  0  0  0  0  0  0  0  0  0  0
    9.9375   13.7779   23.4415 F   0  0  0  0  0  0  0  0  0  0  0  0
   10.9985   12.1246   22.4994 F   0  0  0  0  0  0  0  0  0  0  0  0
    8.7659   11.4918   26.1827 H   0  0  0  0  0  0  0  0  0  0  0  0
    7.9508   12.8551   25.3654 H   0  0  0  0  0  0  0  0  0  0  0  0
    7.4471   12.7169   23.1271 H   0  0  0  0  0  0  0  0  0  0  0  0
    7.8712   11.2459   22.2066 H   0  0  0  0  0  0  0  0  0  0  0  0
    9.8895    9.7181   23.0163 H   0  0  0  0  0  0  0  0  0  0  0  0
   10.2853    9.8263   24.7730 H   0  0  0  0  0  0  0  0  0  0  0  0
    5.6037    9.8312   24.0827 H   0  0  0  0  0  0  0  0  0  0  0  0
    5.4648   11.5057   24.6785 H   0  0  0  0  0  0  0  0  0  0  0  0
   11.1531   12.5478   24.4499 H   0  0  0  0  0  0  0  0  0  0  0  0
    5.0047    9.9558   26.2606 H   0  0  0  0  0  0  0  0  0  0  0  0
  1  4  1  0  0  0  0
  1  5  1  0  0  0  0
  2  4  1  0  0  0  0
  2  5  1  0  0  0  0
  3  4  1  0  0  0  0
  3  8  1  0  0  0  0
  4  7  1  0  0  0  0
  5  6  1  0  0  0  0
  5  8  1  0  0  0  0
  6  9  1  0  0  0  0
  7 10  1  0  0  0  0
  7 11  1  0  0  0  0
  1 12  1  0  0  0  0
  1 13  1  0  0  0  0
  2 14  1  0  0  0  0
  2 15  1  0  0  0  0
  3 16  1  0  0  0  0
  3 17  1  0  0  0  0
  6 18  1  0  0  0  0
  6 19  1  0  0  0  0
  7 20  1  0  0  0  0
  9 21  1  0  0  0  0
M  END
> <id>
EN300-27149989

> <smiles>
OCC1(CC2(C1)C(F)F)OC2

> <MDLNUMBER>
MFCD32859419

> <IUPAC Name>
[4-(difluoromethyl)-2-oxabicyclo[2.1.1]hexan-1-yl]methanol

> <CAS>
2503206-15-1

> <Purity>
95

> <URL>
https://www.enaminestore.com/catalog/EN300-27149989

> <ROCS_ShapeQuery>
x0812_0A_x1140_0A_x1097_0A_x0365_0A_x1097_0A_x0310_0A

> <ROCS_TanimotoCombo>
0.706 

> <ROCS_ShapeTanimoto>
0.214 

> <ROCS_ColorTanimoto>
0.492 

> <ROCS_RefTversky>
0.194 

> <ROCS_RefColorTversky>
0.553 

> <ROCS_RefTverskyCombo>
0.746 

> <ROCS_FitTversky>
1.970 

> <ROCS_FitColorTversky>
0.818 

> <ROCS_FitTverskyCombo>
2.788 

> <ROCS_ColorScore>
-8.216

> <ROCS_Overlap>
1956.633

> <ROCS_Rank>
278                 

$$$$
untitled-dbase-481901_5
  -OEChem-02092408543D

 23 24  0     0  0  0  0  0  0999 V2000
    8.4121   11.9364   25.1638 C   0  0  0  0  0  0  0  0  0  0  0  0
    7.9946   11.6741   23.1278 C   0  0  0  0  0  0  0  0  0  0  0  0
    9.4558    9.9663   24.1256 C   0  0  0  0  0  0  0  0  0  0  0  0
    9.3209   11.4955   23.9565 C   0  0  0  0  0  0  0  0  0  0  0  0
    7.4535   10.9325   24.4120 C   0  0  0  0  0  0  0  0  0  0  0  0
    5.9879   10.8777   24.7188 C   0  0  0  0  0  0  0  0  0  0  0  0
   10.5659   12.2517   23.6030 C   0  0  0  0  0  0  0  0  0  0  0  0
    5.8583   11.6281   27.2273 O   0  0  0  0  0  0  0  0  0  0  0  0
    6.3657    9.2029   26.7001 O   0  0  0  0  0  0  0  0  0  0  0  0
    8.0961    9.6283   24.4482 O   0  0  0  0  0  0  0  0  0  0  0  0
   10.2285   13.5170   23.2695 F   0  0  0  0  0  0  0  0  0  0  0  0
   11.1286   11.6824   22.5143 F   0  0  0  0  0  0  0  0  0  0  0  0
    5.6820   10.4466   26.4066 S   0  0  0  0  0  0  0  0  0  0  0  0
    3.6882   10.0003   26.5407 Cl  0  0  0  0  0  0  0  0  0  0  0  0
    8.7469   11.6262   26.1580 H   0  0  0  0  0  0  0  0  0  0  0  0
    8.1050   12.9876   25.1958 H   0  0  0  0  0  0  0  0  0  0  0  0
    7.6470   12.6998   22.9619 H   0  0  0  0  0  0  0  0  0  0  0  0
    7.9332   11.1146   22.1898 H   0  0  0  0  0  0  0  0  0  0  0  0
    9.7533    9.4631   23.2012 H   0  0  0  0  0  0  0  0  0  0  0  0
   10.1132    9.6887   24.9545 H   0  0  0  0  0  0  0  0  0  0  0  0
    5.4732   10.1255   24.1054 H   0  0  0  0  0  0  0  0  0  0  0  0
    5.5019   11.8482   24.5504 H   0  0  0  0  0  0  0  0  0  0  0  0
   11.2779   12.2629   24.4243 H   0  0  0  0  0  0  0  0  0  0  0  0
  1  4  1  0  0  0  0
  1  5  1  0  0  0  0
  2  4  1  0  0  0  0
  2  5  1  0  0  0  0
  3  4  1  0  0  0  0
  3 10  1  0  0  0  0
  4  7  1  0  0  0  0
  5  6  1  0  0  0  0
  5 10  1  0  0  0  0
  6 13  1  0  0  0  0
  7 11  1  0  0  0  0
  7 12  1  0  0  0  0
  8 13  2  0  0  0  0
  9 13  2  0  0  0  0
 13 14  1  0  0  0  0
  1 15  1  0  0  0  0
  1 16  1  0  0  0  0
  2 17  1  0  0  0  0
  2 18  1  0  0  0  0
  3 19  1  0  0  0  0
  3 20  1  0  0  0  0
  6 21  1  0  0  0  0
  6 22  1  0  0  0  0
  7 23  1  0  0  0  0
M  END
> <id>
EN300-27755223

> <smiles>
FC(F)C1(CC2(CS(=O)(=O)Cl)C1)CO2

> <MDLNUMBER>
MFCD33549150

> <IUPAC Name>
[4-(difluoromethyl)-2-oxabicyclo[2.1.1]hexan-1-yl]methanesulfonyl chloride

> <CAS>
2639423-80-4

> <Purity>
95

> <URL>
https://www.enaminestore.com/catalog/EN300-27755223

> <ROCS_ShapeQuery>
x0812_0A_x1140_0A_x1097_0A_x0365_0A_x1097_0A_x0310_0A

> <ROCS_TanimotoCombo>
0.706 

> <ROCS_ShapeTanimoto>
0.232 

> <ROCS_ColorTanimoto>
0.474 

> <ROCS_RefTversky>
0.208 

> <ROCS_RefColorTversky>
0.499 

> <ROCS_RefTverskyCombo>
0.708 

> <ROCS_FitTversky>
1.927 

> <ROCS_FitColorTversky>
0.905 

> <ROCS_FitTverskyCombo>
2.832 

> <ROCS_ColorScore>
-7.373

> <ROCS_Overlap>
2107.038

> <ROCS_Rank>
279                 

$$$$
untitled-dbase-561157_5
  -OEChem-02092408543D

 23 24  0     0  0  0  0  0  0999 V2000
    8.4093   11.9343   25.1661 C   0  0  0  0  0  0  0  0  0  0  0  0
    7.9945   11.6753   23.1291 C   0  0  0  0  0  0  0  0  0  0  0  0
    9.4568    9.9675   24.1256 C   0  0  0  0  0  0  0  0  0  0  0  0
    9.3201   11.4968   23.9591 C   0  0  0  0  0  0  0  0  0  0  0  0
    7.4529   10.9306   24.4112 C   0  0  0  0  0  0  0  0  0  0  0  0
    5.9871   10.8734   24.7167 C   0  0  0  0  0  0  0  0  0  0  0  0
   10.5647   12.2553   23.6091 C   0  0  0  0  0  0  0  0  0  0  0  0
    5.8543   11.6188   27.2264 O   0  0  0  0  0  0  0  0  0  0  0  0
    6.3652    9.1953   26.6950 O   0  0  0  0  0  0  0  0  0  0  0  0
    8.0971    9.6273   24.4457 O   0  0  0  0  0  0  0  0  0  0  0  0
   10.2262   13.5209   23.2779 F   0  0  0  0  0  0  0  0  0  0  0  0
   11.1297   11.6891   22.5200 F   0  0  0  0  0  0  0  0  0  0  0  0
    5.6802   10.4387   26.4033 S   0  0  0  0  0  0  0  0  0  0  0  0
    3.6868    9.9897   26.5347 Cl  0  0  0  0  0  0  0  0  0  0  0  0
    8.7432   11.6228   26.1601 H   0  0  0  0  0  0  0  0  0  0  0  0
    8.1007   12.9850   25.1996 H   0  0  0  0  0  0  0  0  0  0  0  0
    7.6457   12.7007   22.9646 H   0  0  0  0  0  0  0  0  0  0  0  0
    7.9351   11.1174   22.1901 H   0  0  0  0  0  0  0  0  0  0  0  0
    9.7561    9.4664   23.2006 H   0  0  0  0  0  0  0  0  0  0  0  0
   10.1135    9.6891   24.9547 H   0  0  0  0  0  0  0  0  0  0  0  0
    5.4739   10.1218   24.1013 H   0  0  0  0  0  0  0  0  0  0  0  0
    5.5001   11.8437   24.5496 H   0  0  0  0  0  0  0  0  0  0  0  0
   11.2754   12.2656   24.4315 H   0  0  0  0  0  0  0  0  0  0  0  0
  1  4  1  0  0  0  0
  1  5  1  0  0  0  0
  2  4  1  0  0  0  0
  2  5  1  0  0  0  0
  3  4  1  0  0  0  0
  3 10  1  0  0  0  0
  4  7  1  1  0  0  0
  5  6  1  1  0  0  0
  5 10  1  0  0  0  0
  6 13  1  0  0  0  0
  7 11  1  0  0  0  0
  7 12  1  0  0  0  0
  8 13  2  0  0  0  0
  9 13  2  0  0  0  0
 13 14  1  0  0  0  0
  1 15  1  0  0  0  0
  1 16  1  0  0  0  0
  2 17  1  0  0  0  0
  2 18  1  0  0  0  0
  3 19  1  0  0  0  0
  3 20  1  0  0  0  0
  6 21  1  0  0  0  0
  6 22  1  0  0  0  0
  7 23  1  0  0  0  0
M  END
> <id>
EN300-37375448

> <smiles>
FC(F)[C@]1(C[C@@]2(CS(=O)(=O)Cl)C1)CO2

> <IUPAC Name>
[4-(difluoromethyl)-2-oxabicyclo[2.1.1]hexan-1-yl]methanesulfonyl chloride

> <CAS>
2639423-80-4

> <URL>
https://www.enaminestore.com/catalog/EN300-37375448

> <ROCS_ShapeQuery>
x0812_0A_x1140_0A_x1097_0A_x0365_0A_x1097_0A_x0310_0A

> <ROCS_TanimotoCombo>
0.706 

> <ROCS_ShapeTanimoto>
0.231 

> <ROCS_ColorTanimoto>
0.474 

> <ROCS_RefTversky>
0.208 

> <ROCS_RefColorTversky>
0.499 

> <ROCS_RefTverskyCombo>
0.707 

> <ROCS_FitTversky>
1.926 

> <ROCS_FitColorTversky>
0.905 

> <ROCS_FitTverskyCombo>
2.831 

> <ROCS_ColorScore>
-7.373

> <ROCS_Overlap>
2105.848

> <ROCS_Rank>
280                 

$$$$
untitled-dbase-261900_6
  -OEChem-02092408543D

 46 48  0     0  0  0  0  0  0999 V2000
   10.5354   12.4287   21.8991 C   0  0  0  0  0  0  0  0  0  0  0  0
   10.6008    9.7316   25.0972 C   0  0  0  0  0  0  0  0  0  0  0  0
    9.8857    9.1507   22.7539 C   0  0  0  0  0  0  0  0  0  0  0  0
    7.8017   11.4768   23.0437 C   0  0  0  0  0  0  0  0  0  0  0  0
    8.3925   11.9632   24.9775 C   0  0  0  0  0  0  0  0  0  0  0  0
   12.0231    9.8271   24.5585 C   0  0  0  0  0  0  0  0  0  0  0  0
   11.3479    9.2979   22.3537 C   0  0  0  0  0  0  0  0  0  0  0  0
    9.2028   11.4290   23.7466 C   0  0  0  0  0  0  0  0  0  0  0  0
    9.5461    9.9577   24.0101 C   0  0  0  0  0  0  0  0  0  0  0  0
    7.4692   10.7934   24.4350 C   0  0  0  0  0  0  0  0  0  0  0  0
   10.7439   13.8609   19.4384 C   0  0  0  0  0  0  0  0  0  0  0  0
   12.8675   14.8109   20.3856 C   0  0  0  0  0  0  0  0  0  0  0  0
   12.6688   12.3378   19.9950 C   0  0  0  0  0  0  0  0  0  0  0  0
    6.0565   10.6326   24.9072 C   0  0  0  0  0  0  0  0  0  0  0  0
   11.9205   13.6128   20.3812 C   0  0  0  0  0  0  0  0  0  0  0  0
   10.1287   12.3958   23.2179 N   0  0  0  0  0  0  0  0  0  0  0  0
   10.1707   11.6558   21.0191 O   0  0  0  0  0  0  0  0  0  0  0  0
   12.2048    8.9597   23.4418 O   0  0  0  0  0  0  0  0  0  0  0  0
    8.2455    9.5528   24.5086 O   0  0  0  0  0  0  0  0  0  0  0  0
    6.0440   10.4255   26.3169 O   0  0  0  0  0  0  0  0  0  0  0  0
   11.4136   13.4587   21.7117 O   0  0  0  0  0  0  0  0  0  0  0  0
   10.4839    8.7489   25.5802 H   0  0  0  0  0  0  0  0  0  0  0  0
   10.4724   10.4908   25.8874 H   0  0  0  0  0  0  0  0  0  0  0  0
    9.2557    9.5000   21.9200 H   0  0  0  0  0  0  0  0  0  0  0  0
    9.6739    8.0798   22.8878 H   0  0  0  0  0  0  0  0  0  0  0  0
    7.3651   12.4640   22.8508 H   0  0  0  0  0  0  0  0  0  0  0  0
    7.6585   10.8528   22.1586 H   0  0  0  0  0  0  0  0  0  0  0  0
    8.8223   11.8105   25.9701 H   0  0  0  0  0  0  0  0  0  0  0  0
    7.9961   12.9840   24.9197 H   0  0  0  0  0  0  0  0  0  0  0  0
   12.2237   10.8500   24.2210 H   0  0  0  0  0  0  0  0  0  0  0  0
   12.7632    9.5878   25.3326 H   0  0  0  0  0  0  0  0  0  0  0  0
   11.5930    8.6727   21.4872 H   0  0  0  0  0  0  0  0  0  0  0  0
   11.5543   10.3369   22.0780 H   0  0  0  0  0  0  0  0  0  0  0  0
   10.0618   13.0032   19.4324 H   0  0  0  0  0  0  0  0  0  0  0  0
   10.1781   14.7532   19.7255 H   0  0  0  0  0  0  0  0  0  0  0  0
   11.0900   13.9878   18.4062 H   0  0  0  0  0  0  0  0  0  0  0  0
   13.7132   14.6373   21.0608 H   0  0  0  0  0  0  0  0  0  0  0  0
   12.3586   15.7093   20.7530 H   0  0  0  0  0  0  0  0  0  0  0  0
   13.2598   15.0194   19.3850 H   0  0  0  0  0  0  0  0  0  0  0  0
   13.5127   12.1597   20.6711 H   0  0  0  0  0  0  0  0  0  0  0  0
   12.0131   11.4614   20.0223 H   0  0  0  0  0  0  0  0  0  0  0  0
   13.0924   12.4245   18.9879 H   0  0  0  0  0  0  0  0  0  0  0  0
    5.5718    9.7680   24.4306 H   0  0  0  0  0  0  0  0  0  0  0  0
    5.4573   11.5284   24.6882 H   0  0  0  0  0  0  0  0  0  0  0  0
   10.5052   13.0950   23.8526 H   0  0  0  0  0  0  0  0  0  0  0  0
    5.1139   10.3275   26.5737 H   0  0  0  0  0  0  0  0  0  0  0  0
  1 16  1  0  0  0  0
  1 17  2  0  0  0  0
  1 21  1  0  0  0  0
  2  6  1  0  0  0  0
  2  9  1  0  0  0  0
  3  7  1  0  0  0  0
  3  9  1  0  0  0  0
  4  8  1  0  0  0  0
  4 10  1  0  0  0  0
  5  8  1  0  0  0  0
  5 10  1  0  0  0  0
  6 18  1  0  0  0  0
  7 18  1  0  0  0  0
  8  9  1  0  0  0  0
  8 16  1  0  0  0  0
  9 19  1  0  0  0  0
 10 14  1  0  0  0  0
 10 19  1  0  0  0  0
 11 15  1  0  0  0  0
 12 15  1  0  0  0  0
 13 15  1  0  0  0  0
 14 20  1  0  0  0  0
 15 21  1  0  0  0  0
  2 22  1  0  0  0  0
  2 23  1  0  0  0  0
  3 24  1  0  0  0  0
  3 25  1  0  0  0  0
  4 26  1  0  0  0  0
  4 27  1  0  0  0  0
  5 28  1  0  0  0  0
  5 29  1  0  0  0  0
  6 30  1  0  0  0  0
  6 31  1  0  0  0  0
  7 32  1  0  0  0  0
  7 33  1  0  0  0  0
 11 34  1  0  0  0  0
 11 35  1  0  0  0  0
 11 36  1  0  0  0  0
 12 37  1  0  0  0  0
 12 38  1  0  0  0  0
 12 39  1  0  0  0  0
 13 40  1  0  0  0  0
 13 41  1  0  0  0  0
 13 42  1  0  0  0  0
 14 43  1  0  0  0  0
 14 44  1  0  0  0  0
 16 45  1  0  0  0  0
 20 46  1  0  0  0  0
M  END
> <id>
EN300-7548427

> <smiles>
CC(C)(C)OC(=O)NC1(CC2(CO)C1)C3(CCOCC3)O2

> <IUPAC Name>
tert-butyl N-[4-(hydroxymethyl)-3-oxaspiro[bicyclo[2.1.1]hexane-2,4'-oxane]-1-yl]carbamate

> <CAS>
2408958-33-6

> <URL>
https://www.enaminestore.com/catalog/EN300-7548427

> <ROCS_ShapeQuery>
x0812_0A_x1140_0A_x1097_0A_x0365_0A_x1097_0A_x0310_0A

> <ROCS_TanimotoCombo>
0.706 

> <ROCS_ShapeTanimoto>
0.259 

> <ROCS_ColorTanimoto>
0.447 

> <ROCS_RefTversky>
0.235 

> <ROCS_RefColorTversky>
0.611 

> <ROCS_RefTverskyCombo>
0.845 

> <ROCS_FitTversky>
1.665 

> <ROCS_FitColorTversky>
0.625 

> <ROCS_FitTverskyCombo>
2.290 

> <ROCS_ColorScore>
-9.230

> <ROCS_Overlap>
2375.856

> <ROCS_Rank>
281                 

$$$$
untitled-dbase-116857_8
  -OEChem-02092408543D

 34 35  0     0  0  0  0  0  0999 V2000
    9.6708   12.1241   22.1867 C   0  0  0  0  0  0  0  0  0  0  0  0
    8.8956   10.2977   25.2660 C   0  0  0  0  0  0  0  0  0  0  0  0
    7.0958   10.4818   24.2081 C   0  0  0  0  0  0  0  0  0  0  0  0
    8.4389   12.5633   24.3617 C   0  0  0  0  0  0  0  0  0  0  0  0
    7.8173   11.4458   25.2245 C   0  0  0  0  0  0  0  0  0  0  0  0
    8.5880   10.3252   23.7181 C   0  0  0  0  0  0  0  0  0  0  0  0
   11.8719   13.4480   20.9290 C   0  0  0  0  0  0  0  0  0  0  0  0
   11.0993   15.5003   22.1538 C   0  0  0  0  0  0  0  0  0  0  0  0
   11.8573   13.4841   23.4455 C   0  0  0  0  0  0  0  0  0  0  0  0
    8.9910    9.1841   22.8354 C   0  0  0  0  0  0  0  0  0  0  0  0
   11.1629   13.9746   22.1758 C   0  0  0  0  0  0  0  0  0  0  0  0
    8.9736   11.7014   23.3012 N   0  0  0  0  0  0  0  0  0  0  0  0
   10.1115   11.3884   21.3084 O   0  0  0  0  0  0  0  0  0  0  0  0
   10.4059    9.0208   22.8810 O   0  0  0  0  0  0  0  0  0  0  0  0
    9.8165   13.4866   22.1749 O   0  0  0  0  0  0  0  0  0  0  0  0
    7.0127   11.9637   26.6838 Cl  0  0  0  0  0  0  0  0  0  0  0  0
    9.9063   10.5905   25.5670 H   0  0  0  0  0  0  0  0  0  0  0  0
    8.6170    9.3809   25.7991 H   0  0  0  0  0  0  0  0  0  0  0  0
    6.6276    9.5841   24.6288 H   0  0  0  0  0  0  0  0  0  0  0  0
    6.3987   10.9489   23.5054 H   0  0  0  0  0  0  0  0  0  0  0  0
    7.7032   13.2568   23.9442 H   0  0  0  0  0  0  0  0  0  0  0  0
    9.2553   13.0979   24.8558 H   0  0  0  0  0  0  0  0  0  0  0  0
   11.9197   12.3532   20.9410 H   0  0  0  0  0  0  0  0  0  0  0  0
   11.3635   13.7638   20.0121 H   0  0  0  0  0  0  0  0  0  0  0  0
   12.9084   13.8021   20.8895 H   0  0  0  0  0  0  0  0  0  0  0  0
   10.5914   15.8825   23.0466 H   0  0  0  0  0  0  0  0  0  0  0  0
   10.5197   15.8544   21.2936 H   0  0  0  0  0  0  0  0  0  0  0  0
   12.0982   15.9457   22.1058 H   0  0  0  0  0  0  0  0  0  0  0  0
   11.3489   13.8617   24.3401 H   0  0  0  0  0  0  0  0  0  0  0  0
   11.8794   12.3907   23.4963 H   0  0  0  0  0  0  0  0  0  0  0  0
   12.8871   13.8559   23.4949 H   0  0  0  0  0  0  0  0  0  0  0  0
    8.7017    9.3659   21.7901 H   0  0  0  0  0  0  0  0  0  0  0  0
    8.5277    8.2421   23.1631 H   0  0  0  0  0  0  0  0  0  0  0  0
   10.6170    8.2752   22.2977 H   0  0  0  0  0  0  0  0  0  0  0  0
  1 12  1  0  0  0  0
  1 13  2  0  0  0  0
  1 15  1  0  0  0  0
  2  5  1  0  0  0  0
  2  6  1  0  0  0  0
  3  5  1  0  0  0  0
  3  6  1  0  0  0  0
  4  5  1  0  0  0  0
  4 12  1  0  0  0  0
  5 16  1  1  0  0  0
  6 10  1  1  0  0  0
  6 12  1  0  0  0  0
  7 11  1  0  0  0  0
  8 11  1  0  0  0  0
  9 11  1  0  0  0  0
 10 14  1  0  0  0  0
 11 15  1  0  0  0  0
  2 17  1  0  0  0  0
  2 18  1  0  0  0  0
  3 19  1  0  0  0  0
  3 20  1  0  0  0  0
  4 21  1  0  0  0  0
  4 22  1  0  0  0  0
  7 23  1  0  0  0  0
  7 24  1  0  0  0  0
  7 25  1  0  0  0  0
  8 26  1  0  0  0  0
  8 27  1  0  0  0  0
  8 28  1  0  0  0  0
  9 29  1  0  0  0  0
  9 30  1  0  0  0  0
  9 31  1  0  0  0  0
 10 32  1  0  0  0  0
 10 33  1  0  0  0  0
 14 34  1  0  0  0  0
M  END
> <id>
EN300-37408177

> <smiles>
CC(C)(C)OC(=O)N1C[C@]2(Cl)C[C@@]1(CO)C2

> <IUPAC Name>
tert-butyl 4-chloro-1-(hydroxymethyl)-2-azabicyclo[2.1.1]hexane-2-carboxylate

> <CAS>
2763759-63-1

> <URL>
https://www.enaminestore.com/catalog/EN300-37408177

> <ROCS_ShapeQuery>
x0812_0A_x1140_0A_x1097_0A_x0365_0A_x1097_0A_x0310_0A

> <ROCS_TanimotoCombo>
0.706 

> <ROCS_ShapeTanimoto>
0.251 

> <ROCS_ColorTanimoto>
0.454 

> <ROCS_RefTversky>
0.225 

> <ROCS_RefColorTversky>
0.543 

> <ROCS_RefTverskyCombo>
0.767 

> <ROCS_FitTversky>
1.900 

> <ROCS_FitColorTversky>
0.736 

> <ROCS_FitTverskyCombo>
2.637 

> <ROCS_ColorScore>
-8.097

> <ROCS_Overlap>
2271.566

> <ROCS_Rank>
282                 

$$$$
untitled-dbase-164535_0
  -OEChem-02092408543D

 24 25  0     0  0  0  0  0  0999 V2000
    6.2857   11.0548   25.6146 C   0  0  0  0  0  0  0  0  0  0  0  0
    7.6984   11.7492   23.4422 C   0  0  0  0  0  0  0  0  0  0  0  0
    8.8253   11.8145   25.1995 C   0  0  0  0  0  0  0  0  0  0  0  0
    9.2286    9.8564   23.7725 C   0  0  0  0  0  0  0  0  0  0  0  0
    7.5643   10.9564   24.7987 C   0  0  0  0  0  0  0  0  0  0  0  0
    9.2030   11.3994   23.7315 C   0  0  0  0  0  0  0  0  0  0  0  0
    5.4494   11.7065   27.7265 C   0  0  0  0  0  0  0  0  0  0  0  0
   10.3160   12.0778   22.9916 C   0  0  0  0  0  0  0  0  0  0  0  0
    5.1823   10.7249   25.2016 O   0  0  0  0  0  0  0  0  0  0  0  0
    8.0412    9.6062   24.5431 O   0  0  0  0  0  0  0  0  0  0  0  0
   10.1917   11.8154   21.5969 O   0  0  0  0  0  0  0  0  0  0  0  0
    6.5703   11.5593   26.8490 O   0  0  0  0  0  0  0  0  0  0  0  0
    7.2573   11.2718   22.5620 H   0  0  0  0  0  0  0  0  0  0  0  0
    7.4223   12.8095   23.4555 H   0  0  0  0  0  0  0  0  0  0  0  0
    8.6623   12.8813   25.3893 H   0  0  0  0  0  0  0  0  0  0  0  0
    9.4563   11.3996   25.9913 H   0  0  0  0  0  0  0  0  0  0  0  0
    9.1289    9.4050   22.7812 H   0  0  0  0  0  0  0  0  0  0  0  0
   10.1022    9.4611   24.2988 H   0  0  0  0  0  0  0  0  0  0  0  0
    5.7854   12.1156   28.6824 H   0  0  0  0  0  0  0  0  0  0  0  0
    4.9760   10.7336   27.8806 H   0  0  0  0  0  0  0  0  0  0  0  0
    4.7299   12.3917   27.2721 H   0  0  0  0  0  0  0  0  0  0  0  0
   11.2976   11.7096   23.3229 H   0  0  0  0  0  0  0  0  0  0  0  0
   10.2873   13.1669   23.1388 H   0  0  0  0  0  0  0  0  0  0  0  0
   10.9291   12.2718   21.1626 H   0  0  0  0  0  0  0  0  0  0  0  0
  1  5  1  0  0  0  0
  1  9  2  0  0  0  0
  1 12  1  0  0  0  0
  2  5  1  0  0  0  0
  2  6  1  0  0  0  0
  3  5  1  0  0  0  0
  3  6  1  0  0  0  0
  4  6  1  0  0  0  0
  4 10  1  0  0  0  0
  5 10  1  0  0  0  0
  6  8  1  0  0  0  0
  7 12  1  0  0  0  0
  8 11  1  0  0  0  0
  2 13  1  0  0  0  0
  2 14  1  0  0  0  0
  3 15  1  0  0  0  0
  3 16  1  0  0  0  0
  4 17  1  0  0  0  0
  4 18  1  0  0  0  0
  7 19  1  0  0  0  0
  7 20  1  0  0  0  0
  7 21  1  0  0  0  0
  8 22  1  0  0  0  0
  8 23  1  0  0  0  0
 11 24  1  0  0  0  0
M  END
> <id>
EN300-1703283

> <smiles>
COC(=O)C1(CC2(CO)C1)OC2

> <MDLNUMBER>
MFCD31690093

> <IUPAC Name>
methyl 4-(hydroxymethyl)-2-oxabicyclo[2.1.1]hexane-1-carboxylate

> <CAS>
2219375-40-1

> <Purity>
95

> <URL>
https://www.enaminestore.com/catalog/EN300-1703283

> <ROCS_ShapeQuery>
x0812_0A_x1140_0A_x1097_0A_x0365_0A_x1097_0A_x0310_0A

> <ROCS_TanimotoCombo>
0.706 

> <ROCS_ShapeTanimoto>
0.223 

> <ROCS_ColorTanimoto>
0.482 

> <ROCS_RefTversky>
0.201 

> <ROCS_RefColorTversky>
0.565 

> <ROCS_RefTverskyCombo>
0.767 

> <ROCS_FitTversky>
1.969 

> <ROCS_FitColorTversky>
0.767 

> <ROCS_FitTverskyCombo>
2.736 

> <ROCS_ColorScore>
-8.435

> <ROCS_Overlap>
2033.339

> <ROCS_Rank>
283                 

$$$$
untitled-dbase-570386_0
  -OEChem-02092408543D

 24 25  0     0  0  0  0  0  0999 V2000
    6.2861   11.0551   25.6149 C   0  0  0  0  0  0  0  0  0  0  0  0
    7.6984   11.7492   23.4421 C   0  0  0  0  0  0  0  0  0  0  0  0
    8.8254   11.8145   25.1994 C   0  0  0  0  0  0  0  0  0  0  0  0
    9.2285    9.8562   23.7725 C   0  0  0  0  0  0  0  0  0  0  0  0
    7.5644   10.9565   24.7988 C   0  0  0  0  0  0  0  0  0  0  0  0
    9.2030   11.3992   23.7315 C   0  0  0  0  0  0  0  0  0  0  0  0
    5.4503   11.7069   27.7269 C   0  0  0  0  0  0  0  0  0  0  0  0
   10.3161   12.0777   22.9917 C   0  0  0  0  0  0  0  0  0  0  0  0
    5.1825   10.7252   25.2021 O   0  0  0  0  0  0  0  0  0  0  0  0
    8.0411    9.6062   24.5433 O   0  0  0  0  0  0  0  0  0  0  0  0
   10.1918   11.8156   21.5969 O   0  0  0  0  0  0  0  0  0  0  0  0
    6.5710   11.5595   26.8491 O   0  0  0  0  0  0  0  0  0  0  0  0
    7.2575   11.2715   22.5619 H   0  0  0  0  0  0  0  0  0  0  0  0
    7.4229   12.8099   23.4550 H   0  0  0  0  0  0  0  0  0  0  0  0
    8.6628   12.8815   25.3892 H   0  0  0  0  0  0  0  0  0  0  0  0
    9.4565   11.3995   25.9911 H   0  0  0  0  0  0  0  0  0  0  0  0
    9.1283    9.4048   22.7812 H   0  0  0  0  0  0  0  0  0  0  0  0
   10.1021    9.4608   24.2984 H   0  0  0  0  0  0  0  0  0  0  0  0
    5.7865   12.1160   28.6827 H   0  0  0  0  0  0  0  0  0  0  0  0
    4.9768   10.7340   27.8812 H   0  0  0  0  0  0  0  0  0  0  0  0
    4.7307   12.3921   27.2727 H   0  0  0  0  0  0  0  0  0  0  0  0
   11.2976   11.7094   23.3230 H   0  0  0  0  0  0  0  0  0  0  0  0
   10.2875   13.1668   23.1391 H   0  0  0  0  0  0  0  0  0  0  0  0
   10.9292   12.2721   21.1627 H   0  0  0  0  0  0  0  0  0  0  0  0
  1  5  1  1  0  0  0
  1  9  2  0  0  0  0
  1 12  1  0  0  0  0
  2  5  1  0  0  0  0
  2  6  1  0  0  0  0
  3  5  1  0  0  0  0
  3  6  1  0  0  0  0
  4  6  1  0  0  0  0
  4 10  1  0  0  0  0
  5 10  1  0  0  0  0
  6  8  1  1  0  0  0
  7 12  1  0  0  0  0
  8 11  1  0  0  0  0
  2 13  1  0  0  0  0
  2 14  1  0  0  0  0
  3 15  1  0  0  0  0
  3 16  1  0  0  0  0
  4 17  1  0  0  0  0
  4 18  1  0  0  0  0
  7 19  1  0  0  0  0
  7 20  1  0  0  0  0
  7 21  1  0  0  0  0
  8 22  1  0  0  0  0
  8 23  1  0  0  0  0
 11 24  1  0  0  0  0
M  END
> <id>
EN300-37375193

> <smiles>
COC(=O)[C@]1(C[C@@]2(CO)C1)OC2

> <IUPAC Name>
methyl 4-(hydroxymethyl)-2-oxabicyclo[2.1.1]hexane-1-carboxylate

> <CAS>
2219375-40-1

> <URL>
https://www.enaminestore.com/catalog/EN300-37375193

> <ROCS_ShapeQuery>
x0812_0A_x1140_0A_x1097_0A_x0365_0A_x1097_0A_x0310_0A

> <ROCS_TanimotoCombo>
0.706 

> <ROCS_ShapeTanimoto>
0.223 

> <ROCS_ColorTanimoto>
0.482 

> <ROCS_RefTversky>
0.201 

> <ROCS_RefColorTversky>
0.565 

> <ROCS_RefTverskyCombo>
0.766 

> <ROCS_FitTversky>
1.969 

> <ROCS_FitColorTversky>
0.767 

> <ROCS_FitTverskyCombo>
2.736 

> <ROCS_ColorScore>
-8.435

> <ROCS_Overlap>
2033.375

> <ROCS_Rank>
284                 

$$$$
untitled-dbase-53412_2
  -OEChem-02092408543D

 34 36  0     1  0  0  0  0  0999 V2000
    9.9401   12.6571   21.2520 C   0  0  0  0  0  0  0  0  0  0  0  0
    8.4469    9.3400   24.0291 C   0  0  0  0  0  0  0  0  0  0  0  0
    8.9788   10.8563   25.9560 C   0  0  0  0  0  0  0  0  0  0  0  0
   10.0619   11.2319   23.7281 C   0  0  0  0  0  0  0  0  0  0  0  0
    7.8037   11.3224   22.6413 C   0  0  0  0  0  0  0  0  0  0  0  0
    8.3373   12.8437   24.5748 C   0  0  0  0  0  0  0  0  0  0  0  0
    9.5545   10.1631   24.7092 C   0  0  0  0  0  0  0  0  0  0  0  0
    7.2763   10.2565   23.6195 C   0  0  2  0  0  0  0  0  0  0  0  0
    7.8119   11.7834   25.5601 C   0  0  1  0  0  0  0  0  0  0  0  0
    6.6970   10.9745   24.8594 C   0  0  0  0  0  0  0  0  0  0  0  0
    8.9057   12.1593   23.3175 C   0  0  0  0  0  0  0  0  0  0  0  0
   10.4131   13.7953   20.3995 C   0  0  0  0  0  0  0  0  0  0  0  0
    6.0805   10.0188   25.7815 N   0  0  0  0  0  0  0  0  0  0  0  0
   10.0355   11.4788   20.9362 O   0  0  0  0  0  0  0  0  0  0  0  0
    9.3971   13.1374   22.4122 O   0  0  0  0  0  0  0  0  0  0  0  0
    8.8510    8.8374   23.1412 H   0  0  0  0  0  0  0  0  0  0  0  0
    8.0998    8.5477   24.7025 H   0  0  0  0  0  0  0  0  0  0  0  0
    8.6463   10.1064   26.6833 H   0  0  0  0  0  0  0  0  0  0  0  0
    9.7644   11.4417   26.4503 H   0  0  0  0  0  0  0  0  0  0  0  0
   10.8720   11.8165   24.1832 H   0  0  0  0  0  0  0  0  0  0  0  0
   10.5014   10.7596   22.8399 H   0  0  0  0  0  0  0  0  0  0  0  0
    8.1950   10.8485   21.7317 H   0  0  0  0  0  0  0  0  0  0  0  0
    6.9856   11.9736   22.3071 H   0  0  0  0  0  0  0  0  0  0  0  0
    7.5346   13.5386   24.2965 H   0  0  0  0  0  0  0  0  0  0  0  0
    9.1108   13.4604   25.0507 H   0  0  0  0  0  0  0  0  0  0  0  0
   10.3808    9.5048   24.9992 H   0  0  0  0  0  0  0  0  0  0  0  0
    6.4992    9.6629   23.1228 H   0  0  0  0  0  0  0  0  0  0  0  0
    7.4185   12.2835   26.4532 H   0  0  0  0  0  0  0  0  0  0  0  0
    5.9074   11.6646   24.5342 H   0  0  0  0  0  0  0  0  0  0  0  0
    9.6074   14.1231   19.7381 H   0  0  0  0  0  0  0  0  0  0  0  0
   11.2865   13.4865   19.8196 H   0  0  0  0  0  0  0  0  0  0  0  0
   10.7005   14.6337   21.0408 H   0  0  0  0  0  0  0  0  0  0  0  0
    6.1944    9.1097   25.4028 H   0  0  0  0  0  0  0  0  0  0  0  0
    6.5399   10.0974   26.6565 H   0  0  0  0  0  0  0  0  0  0  0  0
  1 12  1  0  0  0  0
  1 14  2  0  0  0  0
  1 15  1  0  0  0  0
  2  7  1  0  0  0  0
  2  8  1  0  0  0  0
  3  7  1  0  0  0  0
  3  9  1  0  0  0  0
  4  7  1  0  0  0  0
  4 11  1  0  0  0  0
  5  8  1  0  0  0  0
  5 11  1  0  0  0  0
  6  9  1  0  0  0  0
  6 11  1  0  0  0  0
  8 10  1  0  0  0  0
  9 10  1  0  0  0  0
 10 13  1  0  0  0  0
 11 15  1  0  0  0  0
  2 16  1  0  0  0  0
  2 17  1  0  0  0  0
  3 18  1  0  0  0  0
  3 19  1  0  0  0  0
  4 20  1  0  0  0  0
  4 21  1  0  0  0  0
  5 22  1  0  0  0  0
  5 23  1  0  0  0  0
  6 24  1  0  0  0  0
  6 25  1  0  0  0  0
  7 26  1  0  0  0  0
  8 27  1  0  0  0  0
  9 28  1  0  0  0  0
 10 29  1  0  0  0  0
 12 30  1  0  0  0  0
 12 31  1  0  0  0  0
 12 32  1  0  0  0  0
 13 33  1  0  0  0  0
 13 34  1  0  0  0  0
M  END
> <id>
EN300-200217

> <smiles>
Cl.CC(=O)OC1(CC2CC3C1)CC(C2)C3N

> <MDLNUMBER>
MFCD28246449

> <IUPAC Name>
4-aminoadamantan-1-yl acetate hydrochloride

> <CAS>
1803585-52-5

> <URL>
https://www.enaminestore.com/catalog/EN300-200217

> <Saltdate>
Cl

> <ROCS_ShapeQuery>
x0812_0A_x1140_0A_x1097_0A_x0365_0A_x1097_0A_x0310_0A

> <ROCS_TanimotoCombo>
0.705 

> <ROCS_ShapeTanimoto>
0.234 

> <ROCS_ColorTanimoto>
0.471 

> <ROCS_RefTversky>
0.212 

> <ROCS_RefColorTversky>
0.531 

> <ROCS_RefTverskyCombo>
0.742 

> <ROCS_FitTversky>
1.823 

> <ROCS_FitColorTversky>
0.808 

> <ROCS_FitTverskyCombo>
2.632 

> <ROCS_ColorScore>
-7.881

> <ROCS_Overlap>
2141.981

> <ROCS_Rank>
285                 

$$$$
untitled-dbase-422176_2
  -OEChem-02092408543D

 34 36  0     1  0  0  0  0  0999 V2000
    9.9401   12.6571   21.2520 C   0  0  0  0  0  0  0  0  0  0  0  0
    8.4469    9.3400   24.0291 C   0  0  0  0  0  0  0  0  0  0  0  0
    8.9788   10.8563   25.9560 C   0  0  0  0  0  0  0  0  0  0  0  0
   10.0619   11.2319   23.7281 C   0  0  0  0  0  0  0  0  0  0  0  0
    7.8037   11.3224   22.6413 C   0  0  0  0  0  0  0  0  0  0  0  0
    8.3373   12.8437   24.5748 C   0  0  0  0  0  0  0  0  0  0  0  0
    9.5545   10.1631   24.7092 C   0  0  0  0  0  0  0  0  0  0  0  0
    7.2763   10.2565   23.6195 C   0  0  2  0  0  0  0  0  0  0  0  0
    7.8119   11.7834   25.5601 C   0  0  1  0  0  0  0  0  0  0  0  0
    6.6970   10.9745   24.8594 C   0  0  0  0  0  0  0  0  0  0  0  0
    8.9057   12.1593   23.3175 C   0  0  0  0  0  0  0  0  0  0  0  0
   10.4131   13.7953   20.3995 C   0  0  0  0  0  0  0  0  0  0  0  0
    6.0805   10.0188   25.7815 N   0  0  0  0  0  0  0  0  0  0  0  0
   10.0355   11.4788   20.9362 O   0  0  0  0  0  0  0  0  0  0  0  0
    9.3971   13.1374   22.4122 O   0  0  0  0  0  0  0  0  0  0  0  0
    8.8510    8.8374   23.1412 H   0  0  0  0  0  0  0  0  0  0  0  0
    8.0998    8.5477   24.7025 H   0  0  0  0  0  0  0  0  0  0  0  0
    8.6463   10.1064   26.6833 H   0  0  0  0  0  0  0  0  0  0  0  0
    9.7644   11.4417   26.4503 H   0  0  0  0  0  0  0  0  0  0  0  0
   10.8720   11.8165   24.1832 H   0  0  0  0  0  0  0  0  0  0  0  0
   10.5014   10.7596   22.8399 H   0  0  0  0  0  0  0  0  0  0  0  0
    8.1950   10.8485   21.7317 H   0  0  0  0  0  0  0  0  0  0  0  0
    6.9856   11.9736   22.3071 H   0  0  0  0  0  0  0  0  0  0  0  0
    7.5346   13.5386   24.2965 H   0  0  0  0  0  0  0  0  0  0  0  0
    9.1108   13.4604   25.0507 H   0  0  0  0  0  0  0  0  0  0  0  0
   10.3808    9.5048   24.9992 H   0  0  0  0  0  0  0  0  0  0  0  0
    6.4992    9.6629   23.1228 H   0  0  0  0  0  0  0  0  0  0  0  0
    7.4185   12.2835   26.4532 H   0  0  0  0  0  0  0  0  0  0  0  0
    5.9074   11.6646   24.5342 H   0  0  0  0  0  0  0  0  0  0  0  0
    9.6074   14.1231   19.7381 H   0  0  0  0  0  0  0  0  0  0  0  0
   11.2865   13.4865   19.8196 H   0  0  0  0  0  0  0  0  0  0  0  0
   10.7005   14.6337   21.0408 H   0  0  0  0  0  0  0  0  0  0  0  0
    6.1944    9.1097   25.4028 H   0  0  0  0  0  0  0  0  0  0  0  0
    6.5399   10.0974   26.6565 H   0  0  0  0  0  0  0  0  0  0  0  0
  1 12  1  0  0  0  0
  1 14  2  0  0  0  0
  1 15  1  0  0  0  0
  2  7  1  0  0  0  0
  2  8  1  0  0  0  0
  3  7  1  0  0  0  0
  3  9  1  0  0  0  0
  4  7  1  0  0  0  0
  4 11  1  0  0  0  0
  5  8  1  0  0  0  0
  5 11  1  0  0  0  0
  6  9  1  0  0  0  0
  6 11  1  0  0  0  0
  8 10  1  0  0  0  0
  9 10  1  0  0  0  0
 10 13  1  0  0  0  0
 11 15  1  0  0  0  0
  2 16  1  0  0  0  0
  2 17  1  0  0  0  0
  3 18  1  0  0  0  0
  3 19  1  0  0  0  0
  4 20  1  0  0  0  0
  4 21  1  0  0  0  0
  5 22  1  0  0  0  0
  5 23  1  0  0  0  0
  6 24  1  0  0  0  0
  6 25  1  0  0  0  0
  7 26  1  0  0  0  0
  8 27  1  0  0  0  0
  9 28  1  0  0  0  0
 10 29  1  0  0  0  0
 12 30  1  0  0  0  0
 12 31  1  0  0  0  0
 12 32  1  0  0  0  0
 13 33  1  0  0  0  0
 13 34  1  0  0  0  0
M  END
> <id>
EN300-199094

> <smiles>
CC(=O)OC1(CC2CC3C1)CC(C2)C3N

> <MDLNUMBER>
MFCD24626764

> <IUPAC Name>
4-aminoadamantan-1-yl acetate

> <CAS>
868604-77-7

> <URL>
https://www.enaminestore.com/catalog/EN300-199094

> <ROCS_ShapeQuery>
x0812_0A_x1140_0A_x1097_0A_x0365_0A_x1097_0A_x0310_0A

> <ROCS_TanimotoCombo>
0.705 

> <ROCS_ShapeTanimoto>
0.234 

> <ROCS_ColorTanimoto>
0.471 

> <ROCS_RefTversky>
0.212 

> <ROCS_RefColorTversky>
0.531 

> <ROCS_RefTverskyCombo>
0.742 

> <ROCS_FitTversky>
1.823 

> <ROCS_FitColorTversky>
0.808 

> <ROCS_FitTverskyCombo>
2.632 

> <ROCS_ColorScore>
-7.881

> <ROCS_Overlap>
2141.981

> <ROCS_Rank>
286                 

$$$$
untitled-dbase-164187_2
  -OEChem-02092408543D

 32 33  0     0  0  0  0  0  0999 V2000
   10.3318   11.7731   22.4577 C   0  0  0  0  0  0  0  0  0  0  0  0
    8.7260   12.5508   24.2099 C   0  0  0  0  0  0  0  0  0  0  0  0
    8.0929   10.7045   22.6409 C   0  0  0  0  0  0  0  0  0  0  0  0
    9.8155   10.3035   24.4137 C   0  0  0  0  0  0  0  0  0  0  0  0
    7.6236   12.1035   25.1782 C   0  0  0  0  0  0  0  0  0  0  0  0
    6.9937   10.2579   23.6134 C   0  0  0  0  0  0  0  0  0  0  0  0
    8.7135    9.8598   25.3841 C   0  0  0  0  0  0  0  0  0  0  0  0
    9.2618   11.3417   23.4174 C   0  0  0  0  0  0  0  0  0  0  0  0
    7.3971   10.5867   25.0603 C   0  0  0  0  0  0  0  0  0  0  0  0
   11.1468   14.4734   22.0750 C   0  0  0  0  0  0  0  0  0  0  0  0
   12.0917   13.3499   22.4446 C   0  0  0  0  0  0  0  0  0  0  0  0
   10.2641   11.6261   21.2449 O   0  0  0  0  0  0  0  0  0  0  0  0
    6.3769   10.1885   25.9610 O   0  0  0  0  0  0  0  0  0  0  0  0
   11.3620   12.3395   23.1481 O   0  0  0  0  0  0  0  0  0  0  0  0
    8.3310   13.3163   23.5296 H   0  0  0  0  0  0  0  0  0  0  0  0
    9.5372   13.0345   24.7689 H   0  0  0  0  0  0  0  0  0  0  0  0
    8.4415    9.8443   22.0549 H   0  0  0  0  0  0  0  0  0  0  0  0
    7.6785   11.4158   21.9146 H   0  0  0  0  0  0  0  0  0  0  0  0
   10.6595   10.7218   24.9768 H   0  0  0  0  0  0  0  0  0  0  0  0
   10.2120    9.4291   23.8819 H   0  0  0  0  0  0  0  0  0  0  0  0
    7.8915   12.3704   26.2085 H   0  0  0  0  0  0  0  0  0  0  0  0
    6.6926   12.6463   24.9708 H   0  0  0  0  0  0  0  0  0  0  0  0
    6.0431   10.7455   23.3620 H   0  0  0  0  0  0  0  0  0  0  0  0
    6.8052    9.1824   23.5034 H   0  0  0  0  0  0  0  0  0  0  0  0
    8.5746    8.7727   25.3286 H   0  0  0  0  0  0  0  0  0  0  0  0
    9.0147   10.0615   26.4199 H   0  0  0  0  0  0  0  0  0  0  0  0
   10.3426   14.1103   21.4291 H   0  0  0  0  0  0  0  0  0  0  0  0
   10.7056   14.9179   22.9731 H   0  0  0  0  0  0  0  0  0  0  0  0
   11.6837   15.2735   21.5547 H   0  0  0  0  0  0  0  0  0  0  0  0
   12.8936   13.7197   23.0906 H   0  0  0  0  0  0  0  0  0  0  0  0
   12.5310   12.9063   21.5462 H   0  0  0  0  0  0  0  0  0  0  0  0
    6.2649    9.2288   25.8560 H   0  0  0  0  0  0  0  0  0  0  0  0
  1  8  1  0  0  0  0
  1 12  2  0  0  0  0
  1 14  1  0  0  0  0
  2  5  1  0  0  0  0
  2  8  1  0  0  0  0
  3  6  1  0  0  0  0
  3  8  1  0  0  0  0
  4  7  1  0  0  0  0
  4  8  1  0  0  0  0
  5  9  1  0  0  0  0
  6  9  1  0  0  0  0
  7  9  1  0  0  0  0
  9 13  1  0  0  0  0
 10 11  1  0  0  0  0
 11 14  1  0  0  0  0
  2 15  1  0  0  0  0
  2 16  1  0  0  0  0
  3 17  1  0  0  0  0
  3 18  1  0  0  0  0
  4 19  1  0  0  0  0
  4 20  1  0  0  0  0
  5 21  1  0  0  0  0
  5 22  1  0  0  0  0
  6 23  1  0  0  0  0
  6 24  1  0  0  0  0
  7 25  1  0  0  0  0
  7 26  1  0  0  0  0
 10 27  1  0  0  0  0
 10 28  1  0  0  0  0
 10 29  1  0  0  0  0
 11 30  1  0  0  0  0
 11 31  1  0  0  0  0
 13 32  1  0  0  0  0
M  END
> <id>
EN300-52240

> <smiles>
CCOC(=O)C1(CCC2(O)CC1)CC2

> <MDLNUMBER>
MFCD28155173

> <IUPAC Name>
ethyl 4-hydroxybicyclo[2.2.2]octane-1-carboxylate

> <CAS>
72948-78-8

> <URL>
https://www.enaminestore.com/catalog/EN300-52240

> <ROCS_ShapeQuery>
x0812_0A_x1140_0A_x1097_0A_x0365_0A_x1097_0A_x0310_0A

> <ROCS_TanimotoCombo>
0.705 

> <ROCS_ShapeTanimoto>
0.240 

> <ROCS_ColorTanimoto>
0.465 

> <ROCS_RefTversky>
0.215 

> <ROCS_RefColorTversky>
0.517 

> <ROCS_RefTverskyCombo>
0.731 

> <ROCS_FitTversky>
1.954 

> <ROCS_FitColorTversky>
0.824 

> <ROCS_FitTverskyCombo>
2.777 

> <ROCS_ColorScore>
-7.661

> <ROCS_Overlap>
2172.262

> <ROCS_Rank>
287                 

$$$$
untitled-dbase-572731_8
  -OEChem-02092408543D

 41 42  0     0  0  0  0  0  0999 V2000
   10.5722   12.1928   21.4566 C   0  0  0  0  0  0  0  0  0  0  0  0
    7.9448   11.9560   23.0037 C   0  0  0  0  0  0  0  0  0  0  0  0
    9.3820   12.0747   25.0420 C   0  0  0  0  0  0  0  0  0  0  0  0
    6.9098   11.1177   23.7639 C   0  0  0  0  0  0  0  0  0  0  0  0
    8.3611   11.2412   25.8260 C   0  0  0  0  0  0  0  0  0  0  0  0
    9.5698   10.1385   23.4939 C   0  0  0  0  0  0  0  0  0  0  0  0
    9.3506   11.6588   23.5598 C   0  0  0  0  0  0  0  0  0  0  0  0
    7.6081   10.3024   24.8667 C   0  0  0  0  0  0  0  0  0  0  0  0
   10.2310   14.2537   19.5109 C   0  0  0  0  0  0  0  0  0  0  0  0
   12.7402   14.3384   19.4316 C   0  0  0  0  0  0  0  0  0  0  0  0
   11.5380   12.2366   18.7640 C   0  0  0  0  0  0  0  0  0  0  0  0
    6.6092    9.4322   25.6218 C   0  0  0  0  0  0  0  0  0  0  0  0
   11.5213   13.4544   19.6868 C   0  0  0  0  0  0  0  0  0  0  0  0
   10.3602   12.3646   22.8098 N   0  0  0  0  0  0  0  0  0  0  0  0
    9.9447   11.4337   20.7254 O   0  0  0  0  0  0  0  0  0  0  0  0
    8.5690    9.4296   24.2429 O   0  0  0  0  0  0  0  0  0  0  0  0
    5.6411   10.2735   26.2222 O   0  0  0  0  0  0  0  0  0  0  0  0
   11.5944   12.9998   21.0429 O   0  0  0  0  0  0  0  0  0  0  0  0
    7.8911   11.7178   21.9337 H   0  0  0  0  0  0  0  0  0  0  0  0
    7.7028   13.0215   23.1032 H   0  0  0  0  0  0  0  0  0  0  0  0
    9.1517   13.1417   25.1532 H   0  0  0  0  0  0  0  0  0  0  0  0
   10.3814   11.9209   25.4687 H   0  0  0  0  0  0  0  0  0  0  0  0
    6.1356   11.7699   24.1851 H   0  0  0  0  0  0  0  0  0  0  0  0
    6.4159   10.4435   23.0530 H   0  0  0  0  0  0  0  0  0  0  0  0
    8.8963   10.6549   26.5835 H   0  0  0  0  0  0  0  0  0  0  0  0
    7.6661   11.9016   26.3577 H   0  0  0  0  0  0  0  0  0  0  0  0
    9.5271    9.7728   22.4616 H   0  0  0  0  0  0  0  0  0  0  0  0
   10.5460    9.8563   23.9045 H   0  0  0  0  0  0  0  0  0  0  0  0
    9.3538   13.6227   19.6932 H   0  0  0  0  0  0  0  0  0  0  0  0
   10.1910   15.1101   20.1919 H   0  0  0  0  0  0  0  0  0  0  0  0
   10.1374   14.6238   18.4835 H   0  0  0  0  0  0  0  0  0  0  0  0
   13.6682   13.7689   19.5568 H   0  0  0  0  0  0  0  0  0  0  0  0
   12.7834   15.1616   20.1539 H   0  0  0  0  0  0  0  0  0  0  0  0
   12.7273   14.7628   18.4225 H   0  0  0  0  0  0  0  0  0  0  0  0
   12.4634   11.6631   18.8900 H   0  0  0  0  0  0  0  0  0  0  0  0
   10.6902   11.5717   18.9583 H   0  0  0  0  0  0  0  0  0  0  0  0
   11.5056   12.5441   17.7125 H   0  0  0  0  0  0  0  0  0  0  0  0
    7.1223    8.8633   26.3976 H   0  0  0  0  0  0  0  0  0  0  0  0
    6.1139    8.7486   24.9319 H   0  0  0  0  0  0  0  0  0  0  0  0
   10.9500   13.0270   23.3065 H   0  0  0  0  0  0  0  0  0  0  0  0
    5.0174    9.6975   26.6963 H   0  0  0  0  0  0  0  0  0  0  0  0
  1 14  1  0  0  0  0
  1 15  2  0  0  0  0
  1 18  1  0  0  0  0
  2  4  1  0  0  0  0
  2  7  1  0  0  0  0
  3  5  1  0  0  0  0
  3  7  1  0  0  0  0
  4  8  1  0  0  0  0
  5  8  1  0  0  0  0
  6  7  1  0  0  0  0
  6 16  1  0  0  0  0
  7 14  1  0  0  0  0
  8 12  1  0  0  0  0
  8 16  1  0  0  0  0
  9 13  1  0  0  0  0
 10 13  1  0  0  0  0
 11 13  1  0  0  0  0
 12 17  1  0  0  0  0
 13 18  1  0  0  0  0
  2 19  1  0  0  0  0
  2 20  1  0  0  0  0
  3 21  1  0  0  0  0
  3 22  1  0  0  0  0
  4 23  1  0  0  0  0
  4 24  1  0  0  0  0
  5 25  1  0  0  0  0
  5 26  1  0  0  0  0
  6 27  1  0  0  0  0
  6 28  1  0  0  0  0
  9 29  1  0  0  0  0
  9 30  1  0  0  0  0
  9 31  1  0  0  0  0
 10 32  1  0  0  0  0
 10 33  1  0  0  0  0
 10 34  1  0  0  0  0
 11 35  1  0  0  0  0
 11 36  1  0  0  0  0
 11 37  1  0  0  0  0
 12 38  1  0  0  0  0
 12 39  1  0  0  0  0
 14 40  1  0  0  0  0
 17 41  1  0  0  0  0
M  END
> <id>
EN300-19462334

> <smiles>
CC(C)(C)OC(=O)NC1(CCC2(CO)CC1)CO2

> <MDLNUMBER>
MFCD28403790

> <IUPAC Name>
tert-butyl N-[1-(hydroxymethyl)-2-oxabicyclo[2.2.2]octan-4-yl]carbamate

> <Purity>
95

> <URL>
https://www.enaminestore.com/catalog/EN300-19462334

> <ROCS_ShapeQuery>
x0812_0A_x1140_0A_x1097_0A_x0365_0A_x1097_0A_x0310_0A

> <ROCS_TanimotoCombo>
0.705 

> <ROCS_ShapeTanimoto>
0.227 

> <ROCS_ColorTanimoto>
0.478 

> <ROCS_RefTversky>
0.209 

> <ROCS_RefColorTversky>
0.587 

> <ROCS_RefTverskyCombo>
0.795 

> <ROCS_FitTversky>
1.640 

> <ROCS_FitColorTversky>
0.721 

> <ROCS_FitTverskyCombo>
2.361 

> <ROCS_ColorScore>
-8.791

> <ROCS_Overlap>
2112.267

> <ROCS_Rank>
288                 

$$$$
untitled-dbase-517794_2
  -OEChem-02092408543D

 33 34  0     0  0  0  0  0  0999 V2000
   10.3377   11.7761   22.4493 C   0  0  0  0  0  0  0  0  0  0  0  0
    8.7342   12.5558   24.1991 C   0  0  0  0  0  0  0  0  0  0  0  0
    8.1033   10.7035   22.6402 C   0  0  0  0  0  0  0  0  0  0  0  0
    9.8255   10.3164   24.4116 C   0  0  0  0  0  0  0  0  0  0  0  0
    7.6306   12.1138   25.1715 C   0  0  0  0  0  0  0  0  0  0  0  0
    6.9995   10.2596   23.6116 C   0  0  0  0  0  0  0  0  0  0  0  0
    8.7245    9.8720   25.3862 C   0  0  0  0  0  0  0  0  0  0  0  0
    9.2698   11.3461   23.4123 C   0  0  0  0  0  0  0  0  0  0  0  0
    7.3970   10.5916   25.0648 C   0  0  0  0  0  0  0  0  0  0  0  0
   11.1469   14.4765   22.0554 C   0  0  0  0  0  0  0  0  0  0  0  0
   12.0945   13.3563   22.4279 C   0  0  0  0  0  0  0  0  0  0  0  0
    6.3425   10.1765   25.9848 N   0  0  0  0  0  0  0  0  0  0  0  0
   10.2687   11.6244   21.2371 O   0  0  0  0  0  0  0  0  0  0  0  0
   11.3678   12.3472   23.1362 O   0  0  0  0  0  0  0  0  0  0  0  0
    8.3387   13.3181   23.5156 H   0  0  0  0  0  0  0  0  0  0  0  0
    9.5451   13.0438   24.7553 H   0  0  0  0  0  0  0  0  0  0  0  0
    8.4535    9.8403   22.0593 H   0  0  0  0  0  0  0  0  0  0  0  0
    7.6899   11.4094   21.9082 H   0  0  0  0  0  0  0  0  0  0  0  0
   10.6685   10.7397   24.9728 H   0  0  0  0  0  0  0  0  0  0  0  0
   10.2260    9.4410   23.8842 H   0  0  0  0  0  0  0  0  0  0  0  0
    7.9155   12.3922   26.1944 H   0  0  0  0  0  0  0  0  0  0  0  0
    6.7073   12.6638   24.9475 H   0  0  0  0  0  0  0  0  0  0  0  0
    6.0581   10.7569   23.3438 H   0  0  0  0  0  0  0  0  0  0  0  0
    6.8244    9.1823   23.4934 H   0  0  0  0  0  0  0  0  0  0  0  0
    8.6005    8.7832   25.3217 H   0  0  0  0  0  0  0  0  0  0  0  0
    9.0425   10.0864   26.4148 H   0  0  0  0  0  0  0  0  0  0  0  0
   10.3424   14.1094   21.4120 H   0  0  0  0  0  0  0  0  0  0  0  0
   10.7060   14.9236   22.9524 H   0  0  0  0  0  0  0  0  0  0  0  0
   11.6814   15.2758   21.5313 H   0  0  0  0  0  0  0  0  0  0  0  0
   12.8965   13.7302   23.0713 H   0  0  0  0  0  0  0  0  0  0  0  0
   12.5334   12.9103   21.5305 H   0  0  0  0  0  0  0  0  0  0  0  0
    5.6095    9.7680   25.4543 H   0  0  0  0  0  0  0  0  0  0  0  0
    6.7257    9.5161   26.6193 H   0  0  0  0  0  0  0  0  0  0  0  0
  1  8  1  0  0  0  0
  1 13  2  0  0  0  0
  1 14  1  0  0  0  0
  2  5  1  0  0  0  0
  2  8  1  0  0  0  0
  3  6  1  0  0  0  0
  3  8  1  0  0  0  0
  4  7  1  0  0  0  0
  4  8  1  0  0  0  0
  5  9  1  0  0  0  0
  6  9  1  0  0  0  0
  7  9  1  0  0  0  0
  9 12  1  0  0  0  0
 10 11  1  0  0  0  0
 11 14  1  0  0  0  0
  2 15  1  0  0  0  0
  2 16  1  0  0  0  0
  3 17  1  0  0  0  0
  3 18  1  0  0  0  0
  4 19  1  0  0  0  0
  4 20  1  0  0  0  0
  5 21  1  0  0  0  0
  5 22  1  0  0  0  0
  6 23  1  0  0  0  0
  6 24  1  0  0  0  0
  7 25  1  0  0  0  0
  7 26  1  0  0  0  0
 10 27  1  0  0  0  0
 10 28  1  0  0  0  0
 10 29  1  0  0  0  0
 11 30  1  0  0  0  0
 11 31  1  0  0  0  0
 12 32  1  0  0  0  0
 12 33  1  0  0  0  0
M  END
> <id>
EN300-25432466

> <smiles>
Cl.CCOC(=O)C1(CCC2(N)CC1)CC2

> <MDLNUMBER>
MFCD29052514

> <IUPAC Name>
ethyl 4-aminobicyclo[2.2.2]octane-1-carboxylate hydrochloride

> <CAS>
949153-20-2

> <Purity>
95

> <URL>
https://www.enaminestore.com/catalog/EN300-25432466

> <Saltdate>
Cl

> <ROCS_ShapeQuery>
x0812_0A_x1140_0A_x1097_0A_x0365_0A_x1097_0A_x0310_0A

> <ROCS_TanimotoCombo>
0.705 

> <ROCS_ShapeTanimoto>
0.239 

> <ROCS_ColorTanimoto>
0.466 

> <ROCS_RefTversky>
0.214 

> <ROCS_RefColorTversky>
0.517 

> <ROCS_RefTverskyCombo>
0.731 

> <ROCS_FitTversky>
1.953 

> <ROCS_FitColorTversky>
0.824 

> <ROCS_FitTverskyCombo>
2.777 

> <ROCS_ColorScore>
-7.666

> <ROCS_Overlap>
2167.000

> <ROCS_Rank>
289                 

$$$$
untitled-dbase-300996_2
  -OEChem-02092408543D

 33 34  0     0  0  0  0  0  0999 V2000
   10.3377   11.7761   22.4493 C   0  0  0  0  0  0  0  0  0  0  0  0
    8.7342   12.5558   24.1991 C   0  0  0  0  0  0  0  0  0  0  0  0
    8.1033   10.7035   22.6402 C   0  0  0  0  0  0  0  0  0  0  0  0
    9.8255   10.3164   24.4116 C   0  0  0  0  0  0  0  0  0  0  0  0
    7.6306   12.1138   25.1715 C   0  0  0  0  0  0  0  0  0  0  0  0
    6.9995   10.2596   23.6116 C   0  0  0  0  0  0  0  0  0  0  0  0
    8.7245    9.8720   25.3862 C   0  0  0  0  0  0  0  0  0  0  0  0
    9.2698   11.3461   23.4123 C   0  0  0  0  0  0  0  0  0  0  0  0
    7.3970   10.5916   25.0648 C   0  0  0  0  0  0  0  0  0  0  0  0
   11.1469   14.4765   22.0554 C   0  0  0  0  0  0  0  0  0  0  0  0
   12.0945   13.3563   22.4279 C   0  0  0  0  0  0  0  0  0  0  0  0
    6.3425   10.1765   25.9848 N   0  0  0  0  0  0  0  0  0  0  0  0
   10.2687   11.6244   21.2371 O   0  0  0  0  0  0  0  0  0  0  0  0
   11.3678   12.3472   23.1362 O   0  0  0  0  0  0  0  0  0  0  0  0
    8.3387   13.3181   23.5156 H   0  0  0  0  0  0  0  0  0  0  0  0
    9.5451   13.0438   24.7553 H   0  0  0  0  0  0  0  0  0  0  0  0
    8.4535    9.8403   22.0593 H   0  0  0  0  0  0  0  0  0  0  0  0
    7.6899   11.4094   21.9082 H   0  0  0  0  0  0  0  0  0  0  0  0
   10.6685   10.7397   24.9728 H   0  0  0  0  0  0  0  0  0  0  0  0
   10.2260    9.4410   23.8842 H   0  0  0  0  0  0  0  0  0  0  0  0
    7.9155   12.3922   26.1944 H   0  0  0  0  0  0  0  0  0  0  0  0
    6.7073   12.6638   24.9475 H   0  0  0  0  0  0  0  0  0  0  0  0
    6.0581   10.7569   23.3438 H   0  0  0  0  0  0  0  0  0  0  0  0
    6.8244    9.1823   23.4934 H   0  0  0  0  0  0  0  0  0  0  0  0
    8.6005    8.7832   25.3217 H   0  0  0  0  0  0  0  0  0  0  0  0
    9.0425   10.0864   26.4148 H   0  0  0  0  0  0  0  0  0  0  0  0
   10.3424   14.1094   21.4120 H   0  0  0  0  0  0  0  0  0  0  0  0
   10.7060   14.9236   22.9524 H   0  0  0  0  0  0  0  0  0  0  0  0
   11.6814   15.2758   21.5313 H   0  0  0  0  0  0  0  0  0  0  0  0
   12.8965   13.7302   23.0713 H   0  0  0  0  0  0  0  0  0  0  0  0
   12.5334   12.9103   21.5305 H   0  0  0  0  0  0  0  0  0  0  0  0
    5.6095    9.7680   25.4543 H   0  0  0  0  0  0  0  0  0  0  0  0
    6.7257    9.5161   26.6193 H   0  0  0  0  0  0  0  0  0  0  0  0
  1  8  1  0  0  0  0
  1 13  2  0  0  0  0
  1 14  1  0  0  0  0
  2  5  1  0  0  0  0
  2  8  1  0  0  0  0
  3  6  1  0  0  0  0
  3  8  1  0  0  0  0
  4  7  1  0  0  0  0
  4  8  1  0  0  0  0
  5  9  1  0  0  0  0
  6  9  1  0  0  0  0
  7  9  1  0  0  0  0
  9 12  1  0  0  0  0
 10 11  1  0  0  0  0
 11 14  1  0  0  0  0
  2 15  1  0  0  0  0
  2 16  1  0  0  0  0
  3 17  1  0  0  0  0
  3 18  1  0  0  0  0
  4 19  1  0  0  0  0
  4 20  1  0  0  0  0
  5 21  1  0  0  0  0
  5 22  1  0  0  0  0
  6 23  1  0  0  0  0
  6 24  1  0  0  0  0
  7 25  1  0  0  0  0
  7 26  1  0  0  0  0
 10 27  1  0  0  0  0
 10 28  1  0  0  0  0
 10 29  1  0  0  0  0
 11 30  1  0  0  0  0
 11 31  1  0  0  0  0
 12 32  1  0  0  0  0
 12 33  1  0  0  0  0
M  END
> <id>
EN300-2848707

> <smiles>
CCOC(=O)C1(CCC2(N)CC1)CC2

> <MDLNUMBER>
MFCD20702136

> <IUPAC Name>
ethyl 4-aminobicyclo[2.2.2]octane-1-carboxylate

> <CAS>
135908-45-1

> <URL>
https://www.enaminestore.com/catalog/EN300-2848707

> <ROCS_ShapeQuery>
x0812_0A_x1140_0A_x1097_0A_x0365_0A_x1097_0A_x0310_0A

> <ROCS_TanimotoCombo>
0.705 

> <ROCS_ShapeTanimoto>
0.239 

> <ROCS_ColorTanimoto>
0.466 

> <ROCS_RefTversky>
0.214 

> <ROCS_RefColorTversky>
0.517 

> <ROCS_RefTverskyCombo>
0.731 

> <ROCS_FitTversky>
1.953 

> <ROCS_FitColorTversky>
0.824 

> <ROCS_FitTverskyCombo>
2.777 

> <ROCS_ColorScore>
-7.666

> <ROCS_Overlap>
2167.000

> <ROCS_Rank>
290                 

$$$$
untitled-dbase-304885_4
  -OEChem-02092408543D

 31 33  0     0  0  0  0  0  0999 V2000
   13.4643   14.8460   20.3875 C   0  0  0  0  0  0  0  0  0  0  0  0
   13.2798   15.1863   21.7276 C   0  0  0  0  0  0  0  0  0  0  0  0
   12.7272   13.8041   19.8246 C   0  0  0  0  0  0  0  0  0  0  0  0
   12.3582   14.4846   22.5048 C   0  0  0  0  0  0  0  0  0  0  0  0
   11.8056   13.1025   20.6018 C   0  0  0  0  0  0  0  0  0  0  0  0
   11.6211   13.4427   21.9419 C   0  0  0  0  0  0  0  0  0  0  0  0
    9.8761   11.6747   22.3338 C   0  0  0  0  0  0  0  0  0  0  0  0
    9.1134   11.8768   24.8979 C   0  0  0  0  0  0  0  0  0  0  0  0
    7.5041   11.6424   23.5872 C   0  0  0  0  0  0  0  0  0  0  0  0
    8.1367    9.6238   24.8355 C   0  0  0  0  0  0  0  0  0  0  0  0
    9.0103   11.1867   23.4837 C   0  0  0  0  0  0  0  0  0  0  0  0
    7.7523   11.1045   25.0428 C   0  0  0  0  0  0  0  0  0  0  0  0
    6.7997   11.4089   26.1593 C   0  0  0  0  0  0  0  0  0  0  0  0
   10.6861   12.7311   22.7305 N   0  0  0  0  0  0  0  0  0  0  0  0
    9.8094   11.1459   21.2288 O   0  0  0  0  0  0  0  0  0  0  0  0
    9.0299    9.7510   23.7163 O   0  0  0  0  0  0  0  0  0  0  0  0
   14.1813   15.3926   19.7818 H   0  0  0  0  0  0  0  0  0  0  0  0
   13.8528   15.9980   22.1659 H   0  0  0  0  0  0  0  0  0  0  0  0
   12.8704   13.5400   18.7808 H   0  0  0  0  0  0  0  0  0  0  0  0
   12.2228   14.7589   23.5480 H   0  0  0  0  0  0  0  0  0  0  0  0
   11.2367   12.2923   20.1523 H   0  0  0  0  0  0  0  0  0  0  0  0
    9.9290   11.5330   25.5410 H   0  0  0  0  0  0  0  0  0  0  0  0
    9.0697   12.9714   24.9224 H   0  0  0  0  0  0  0  0  0  0  0  0
    7.2990   12.7135   23.4801 H   0  0  0  0  0  0  0  0  0  0  0  0
    6.7887   11.0761   22.9834 H   0  0  0  0  0  0  0  0  0  0  0  0
    8.6723    9.2018   25.6907 H   0  0  0  0  0  0  0  0  0  0  0  0
    7.2825    8.9992   24.5589 H   0  0  0  0  0  0  0  0  0  0  0  0
    5.9046   10.7743   26.1023 H   0  0  0  0  0  0  0  0  0  0  0  0
    6.4688   12.4561   26.1250 H   0  0  0  0  0  0  0  0  0  0  0  0
    7.2677   11.2386   27.1387 H   0  0  0  0  0  0  0  0  0  0  0  0
   10.6086   13.0383   23.6979 H   0  0  0  0  0  0  0  0  0  0  0  0
  1  2  1  0  0  0  0
  1  3  2  0  0  0  0
  2  4  2  0  0  0  0
  3  5  1  0  0  0  0
  4  6  1  0  0  0  0
  5  6  2  0  0  0  0
  6 14  1  0  0  0  0
  7 11  1  0  0  0  0
  7 14  1  0  0  0  0
  7 15  2  0  0  0  0
  8 11  1  0  0  0  0
  8 12  1  0  0  0  0
  9 11  1  0  0  0  0
  9 12  1  0  0  0  0
 10 12  1  0  0  0  0
 10 16  1  0  0  0  0
 11 16  1  0  0  0  0
 12 13  1  0  0  0  0
  1 17  1  0  0  0  0
  2 18  1  0  0  0  0
  3 19  1  0  0  0  0
  4 20  1  0  0  0  0
  5 21  1  0  0  0  0
  8 22  1  0  0  0  0
  8 23  1  0  0  0  0
  9 24  1  0  0  0  0
  9 25  1  0  0  0  0
 10 26  1  0  0  0  0
 10 27  1  0  0  0  0
 13 28  1  0  0  0  0
 13 29  1  0  0  0  0
 13 30  1  0  0  0  0
 14 31  1  0  0  0  0
M  END
> <id>
EN300-7435510

> <smiles>
CC1(CC2(C1)C(=O)NC=3C=CC=CC3)CO2

> <MDLNUMBER>
MFCD34576228

> <IUPAC Name>
4-methyl-N-phenyl-2-oxabicyclo[2.1.1]hexane-1-carboxamide

> <CAS>
2375272-89-0

> <Purity>
95

> <URL>
https://www.enaminestore.com/catalog/EN300-7435510

> <ROCS_ShapeQuery>
x0812_0A_x1140_0A_x1097_0A_x0365_0A_x1097_0A_x0310_0A

> <ROCS_TanimotoCombo>
0.705 

> <ROCS_ShapeTanimoto>
0.224 

> <ROCS_ColorTanimoto>
0.481 

> <ROCS_RefTversky>
0.205 

> <ROCS_RefColorTversky>
0.564 

> <ROCS_RefTverskyCombo>
0.769 

> <ROCS_FitTversky>
1.702 

> <ROCS_FitColorTversky>
0.765 

> <ROCS_FitTverskyCombo>
2.467 

> <ROCS_ColorScore>
-8.412

> <ROCS_Overlap>
2078.069

> <ROCS_Rank>
291                 

$$$$
untitled-dbase-87556_0
  -OEChem-02092408543D

 24 25  0     0  0  0  0  0  0999 V2000
   11.9890   15.3498   22.5073 C   0  0  0  0  0  0  0  0  0  0  0  0
   10.4936   13.4897   23.1773 C   0  0  0  0  0  0  0  0  0  0  0  0
    8.6504   10.0426   23.3974 C   0  0  0  0  0  0  0  0  0  0  0  0
    9.2418   11.1270   25.1443 C   0  0  0  0  0  0  0  0  0  0  0  0
    7.6775   11.8820   23.8943 C   0  0  0  0  0  0  0  0  0  0  0  0
    7.8372   10.5058   24.6949 C   0  0  0  0  0  0  0  0  0  0  0  0
    9.1251   11.4662   23.6636 C   0  0  0  0  0  0  0  0  0  0  0  0
   11.5317   13.9919   22.1939 C   0  0  0  0  0  0  0  0  0  0  0  0
    6.8405    9.7625   25.4935 C   0  0  0  0  0  0  0  0  0  0  0  0
   12.3536   16.4239   22.7518 N   0  0  0  0  0  0  0  0  0  0  0  0
   10.0800   12.1749   22.9007 N   0  0  0  0  0  0  0  0  0  0  0  0
   10.0671   14.1615   24.1132 O   0  0  0  0  0  0  0  0  0  0  0  0
    7.3600    8.6240   26.0246 F   0  0  0  0  0  0  0  0  0  0  0  0
    6.3667   10.5008   26.5318 F   0  0  0  0  0  0  0  0  0  0  0  0
    5.7643    9.3939   24.7492 F   0  0  0  0  0  0  0  0  0  0  0  0
    9.3729    9.2316   23.5348 H   0  0  0  0  0  0  0  0  0  0  0  0
    8.0653    9.8630   22.4900 H   0  0  0  0  0  0  0  0  0  0  0  0
    9.2056   11.9546   25.8600 H   0  0  0  0  0  0  0  0  0  0  0  0
   10.0192   10.4167   25.4435 H   0  0  0  0  0  0  0  0  0  0  0  0
    7.0025   11.8729   23.0326 H   0  0  0  0  0  0  0  0  0  0  0  0
    7.4958   12.7798   24.4935 H   0  0  0  0  0  0  0  0  0  0  0  0
   11.0970   13.9697   21.1882 H   0  0  0  0  0  0  0  0  0  0  0  0
   12.3822   13.3009   22.2070 H   0  0  0  0  0  0  0  0  0  0  0  0
   10.5004   11.6973   22.0893 H   0  0  0  0  0  0  0  0  0  0  0  0
  1  8  1  0  0  0  0
  1 10  3  0  0  0  0
  2  8  1  0  0  0  0
  2 11  1  0  0  0  0
  2 12  2  0  0  0  0
  3  6  1  0  0  0  0
  3  7  1  0  0  0  0
  4  6  1  0  0  0  0
  4  7  1  0  0  0  0
  5  6  1  0  0  0  0
  5  7  1  0  0  0  0
  6  9  1  0  0  0  0
  7 11  1  0  0  0  0
  9 13  1  0  0  0  0
  9 14  1  0  0  0  0
  9 15  1  0  0  0  0
  3 16  1  0  0  0  0
  3 17  1  0  0  0  0
  4 18  1  0  0  0  0
  4 19  1  0  0  0  0
  5 20  1  0  0  0  0
  5 21  1  0  0  0  0
  8 22  1  0  0  0  0
  8 23  1  0  0  0  0
 11 24  1  0  0  0  0
M  END
> <id>
EN300-37341318

> <smiles>
FC(F)(F)C1(CC2(C1)NC(=O)CC#N)C2

> <IUPAC Name>
2-cyano-N-[3-(trifluoromethyl)bicyclo[1.1.1]pentan-1-yl]acetamide

> <CAS>
2763755-70-8

> <Purity>
95

> <URL>
https://www.enaminestore.com/catalog/EN300-37341318

> <ROCS_ShapeQuery>
x0812_0A_x1140_0A_x1097_0A_x0365_0A_x1097_0A_x0310_0A

> <ROCS_TanimotoCombo>
0.705 

> <ROCS_ShapeTanimoto>
0.219 

> <ROCS_ColorTanimoto>
0.486 

> <ROCS_RefTversky>
0.200 

> <ROCS_RefColorTversky>
0.563 

> <ROCS_RefTverskyCombo>
0.763 

> <ROCS_FitTversky>
1.740 

> <ROCS_FitColorTversky>
0.781 

> <ROCS_FitTverskyCombo>
2.522 

> <ROCS_ColorScore>
-8.389

> <ROCS_Overlap>
2023.781

> <ROCS_Rank>
292                 

$$$$
untitled-dbase-503514_7
  -OEChem-02092408543D

 39 41  0     1  0  0  0  0  0999 V2000
   10.8209   16.9149   18.7910 C   0  0  0  0  0  0  0  0  0  0  0  0
   10.7624   15.8996   17.8364 C   0  0  0  0  0  0  0  0  0  0  0  0
   11.2678   16.6334   20.0821 C   0  0  0  0  0  0  0  0  0  0  0  0
   11.1506   14.6028   18.1727 C   0  0  0  0  0  0  0  0  0  0  0  0
   11.6560   15.3366   20.4184 C   0  0  0  0  0  0  0  0  0  0  0  0
   11.5974   14.3212   19.4638 C   0  0  0  0  0  0  0  0  0  0  0  0
   10.5206   12.2077   21.5220 C   0  0  0  0  0  0  0  0  0  0  0  0
    7.0358   12.0000   24.4434 C   0  0  0  0  0  0  0  0  0  0  0  0
    7.9643   12.3950   23.2856 C   0  0  0  0  0  0  0  0  0  0  0  0
    9.2844   11.5241   25.0713 C   0  0  0  0  0  0  0  0  0  0  0  0
    7.8651   10.9590   25.2110 C   0  0  2  0  0  0  0  0  0  0  0  0
    7.9342    9.6701   24.3650 C   0  0  1  0  0  0  0  0  0  0  0  0
    8.8996   10.0551   23.2212 C   0  0  1  0  0  0  0  0  0  0  0  0
    9.2243   11.5376   23.5397 C   0  0  1  0  0  0  0  0  0  0  0  0
   12.0150   12.9264   19.8264 C   0  0  0  0  0  0  0  0  0  0  0  0
   10.3941   12.0415   22.8947 N   0  0  0  0  0  0  0  0  0  0  0  0
    9.6526   11.9457   20.6959 O   0  0  0  0  0  0  0  0  0  0  0  0
    8.4309    8.6062   25.1620 O   0  0  0  0  0  0  0  0  0  0  0  0
   10.0685    9.2486   23.2546 O   0  0  0  0  0  0  0  0  0  0  0  0
   11.7555   12.7075   21.2176 O   0  0  0  0  0  0  0  0  0  0  0  0
   10.5198   17.9249   18.5286 H   0  0  0  0  0  0  0  0  0  0  0  0
   10.4155   16.1189   16.8308 H   0  0  0  0  0  0  0  0  0  0  0  0
   11.3145   17.4238   20.8253 H   0  0  0  0  0  0  0  0  0  0  0  0
   11.1014   13.8180   17.4225 H   0  0  0  0  0  0  0  0  0  0  0  0
   12.0027   15.1265   21.4268 H   0  0  0  0  0  0  0  0  0  0  0  0
    6.8288   12.8724   25.0735 H   0  0  0  0  0  0  0  0  0  0  0  0
    6.0799   11.6024   24.0884 H   0  0  0  0  0  0  0  0  0  0  0  0
    7.5096   12.1930   22.3102 H   0  0  0  0  0  0  0  0  0  0  0  0
    8.1882   13.4671   23.3426 H   0  0  0  0  0  0  0  0  0  0  0  0
    9.3895   12.5211   25.5135 H   0  0  0  0  0  0  0  0  0  0  0  0
   10.0543   10.8599   25.4780 H   0  0  0  0  0  0  0  0  0  0  0  0
    7.5427   10.8005   26.2425 H   0  0  0  0  0  0  0  0  0  0  0  0
    6.9456    9.3881   23.9871 H   0  0  0  0  0  0  0  0  0  0  0  0
    8.4226    9.9428   22.2414 H   0  0  0  0  0  0  0  0  0  0  0  0
   11.4608   12.1863   19.2390 H   0  0  0  0  0  0  0  0  0  0  0  0
   13.0829   12.7786   19.6325 H   0  0  0  0  0  0  0  0  0  0  0  0
   11.1917   12.2971   23.4827 H   0  0  0  0  0  0  0  0  0  0  0  0
    7.8136    8.4975   25.9043 H   0  0  0  0  0  0  0  0  0  0  0  0
   10.6301    9.5374   22.5169 H   0  0  0  0  0  0  0  0  0  0  0  0
  1  2  1  0  0  0  0
  1  3  2  0  0  0  0
  2  4  2  0  0  0  0
  3  5  1  0  0  0  0
  4  6  1  0  0  0  0
  5  6  2  0  0  0  0
  6 15  1  0  0  0  0
  7 16  1  0  0  0  0
  7 17  2  0  0  0  0
  7 20  1  0  0  0  0
  8  9  1  0  0  0  0
  8 11  1  0  0  0  0
  9 14  1  0  0  0  0
 10 11  1  0  0  0  0
 10 14  1  0  0  0  0
 11 12  1  0  0  0  0
 12 13  1  0  0  0  0
 12 18  1  1  0  0  0
 13 14  1  0  0  0  0
 13 19  1  1  0  0  0
 14 16  1  0  0  0  0
 15 20  1  0  0  0  0
  1 21  1  0  0  0  0
  2 22  1  0  0  0  0
  3 23  1  0  0  0  0
  4 24  1  0  0  0  0
  5 25  1  0  0  0  0
  8 26  1  0  0  0  0
  8 27  1  0  0  0  0
  9 28  1  0  0  0  0
  9 29  1  0  0  0  0
 10 30  1  0  0  0  0
 10 31  1  0  0  0  0
 11 32  1  0  0  0  0
 12 33  1  0  0  0  0
 13 34  1  0  0  0  0
 15 35  1  0  0  0  0
 15 36  1  0  0  0  0
 16 37  1  0  0  0  0
 18 38  1  0  0  0  0
 19 39  1  0  0  0  0
M  END
> <id>
EN300-28285075

> <smiles>
O[C@@H]1[C@H](O)C2(CCC1C2)NC(=O)OCC=3C=CC=CC3 |&1:1,2,r|

> <IUPAC Name>
rac-benzyl N-[(2R,3S)-2,3-dihydroxybicyclo[2.2.1]heptan-1-yl]carbamate

> <CAS>
2731011-46-2

> <URL>
https://www.enaminestore.com/catalog/EN300-28285075

> <ROCS_ShapeQuery>
x0812_0A_x1140_0A_x1097_0A_x0365_0A_x1097_0A_x0310_0A

> <ROCS_TanimotoCombo>
0.705 

> <ROCS_ShapeTanimoto>
0.221 

> <ROCS_ColorTanimoto>
0.484 

> <ROCS_RefTversky>
0.206 

> <ROCS_RefColorTversky>
0.617 

> <ROCS_RefTverskyCombo>
0.822 

> <ROCS_FitTversky>
1.498 

> <ROCS_FitColorTversky>
0.692 

> <ROCS_FitTverskyCombo>
2.190 

> <ROCS_ColorScore>
-9.281

> <ROCS_Overlap>
2081.721

> <ROCS_Rank>
293                 

$$$$
untitled-dbase-558874_0
  -OEChem-02092408543D

 21 22  0     0  0  0  0  0  0999 V2000
    7.6958   11.7540   23.4470 C   0  0  0  0  0  0  0  0  0  0  0  0
    8.8327   11.8118   25.2056 C   0  0  0  0  0  0  0  0  0  0  0  0
    9.2254    9.8554   23.7681 C   0  0  0  0  0  0  0  0  0  0  0  0
    9.2027   11.3992   23.7323 C   0  0  0  0  0  0  0  0  0  0  0  0
    7.5692   10.9556   24.8029 C   0  0  0  0  0  0  0  0  0  0  0  0
    6.3105   10.9961   25.6149 C   0  0  0  0  0  0  0  0  0  0  0  0
   10.3150   12.0773   22.9908 C   0  0  0  0  0  0  0  0  0  0  0  0
    8.0404    9.6047   24.5425 O   0  0  0  0  0  0  0  0  0  0  0  0
   10.1860   11.8188   21.5958 O   0  0  0  0  0  0  0  0  0  0  0  0
    7.4232   12.8150   23.4677 H   0  0  0  0  0  0  0  0  0  0  0  0
    7.2468   11.2816   22.5685 H   0  0  0  0  0  0  0  0  0  0  0  0
    9.4629   11.3933   25.9958 H   0  0  0  0  0  0  0  0  0  0  0  0
    8.6707   12.8782   25.3972 H   0  0  0  0  0  0  0  0  0  0  0  0
    9.1215    9.4073   22.7758 H   0  0  0  0  0  0  0  0  0  0  0  0
   10.1002    9.4574   24.2903 H   0  0  0  0  0  0  0  0  0  0  0  0
    6.4027   10.3838   26.5228 H   0  0  0  0  0  0  0  0  0  0  0  0
    5.4544   10.6144   25.0413 H   0  0  0  0  0  0  0  0  0  0  0  0
    6.0715   12.0221   25.9276 H   0  0  0  0  0  0  0  0  0  0  0  0
   11.2967   11.7063   23.3183 H   0  0  0  0  0  0  0  0  0  0  0  0
   10.2888   13.1661   23.1410 H   0  0  0  0  0  0  0  0  0  0  0  0
   10.9230   12.2749   21.1605 H   0  0  0  0  0  0  0  0  0  0  0  0
  1  4  1  0  0  0  0
  1  5  1  0  0  0  0
  2  4  1  0  0  0  0
  2  5  1  0  0  0  0
  3  4  1  0  0  0  0
  3  8  1  0  0  0  0
  4  7  1  1  0  0  0
  5  6  1  1  0  0  0
  5  8  1  0  0  0  0
  7  9  1  0  0  0  0
  1 10  1  0  0  0  0
  1 11  1  0  0  0  0
  2 12  1  0  0  0  0
  2 13  1  0  0  0  0
  3 14  1  0  0  0  0
  3 15  1  0  0  0  0
  6 16  1  0  0  0  0
  6 17  1  0  0  0  0
  6 18  1  0  0  0  0
  7 19  1  0  0  0  0
  7 20  1  0  0  0  0
  9 21  1  0  0  0  0
M  END
> <id>
EN300-37375168

> <smiles>
C[C@]1(C[C@@]2(CO)C1)OC2

> <IUPAC Name>
[(1r,4r)-1-methyl-2-oxabicyclo[2.1.1]hexan-4-yl]methanol

> <CAS>
2138162-49-7

> <URL>
https://www.enaminestore.com/catalog/EN300-37375168

> <ROCS_ShapeQuery>
x0812_0A_x1140_0A_x1097_0A_x0365_0A_x1097_0A_x0310_0A

> <ROCS_TanimotoCombo>
0.705 

> <ROCS_ShapeTanimoto>
0.193 

> <ROCS_ColorTanimoto>
0.512 

> <ROCS_RefTversky>
0.176 

> <ROCS_RefColorTversky>
0.567 

> <ROCS_RefTverskyCombo>
0.743 

> <ROCS_FitTversky>
1.974 

> <ROCS_FitColorTversky>
0.839 

> <ROCS_FitTverskyCombo>
2.814 

> <ROCS_ColorScore>
-8.433

> <ROCS_Overlap>
1780.266

> <ROCS_Rank>
294                 

$$$$
untitled-dbase-55431_0
  -OEChem-02092408543D

 25 26  0     1  0  0  0  0  0999 V2000
    7.8296   12.3841   23.5242 C   0  0  0  0  0  0  0  0  0  0  0  0
    8.7396   12.5347   24.7582 C   0  0  0  0  0  0  0  0  0  0  0  0
    7.1835    9.9385   23.7310 C   0  0  0  0  0  0  0  0  0  0  0  0
    8.6340   10.1791   25.6951 C   0  0  0  0  0  0  0  0  0  0  0  0
    8.0991   10.9555   23.0080 C   0  0  2  0  0  0  0  0  0  0  0  0
    9.4761   11.1836   24.8718 C   0  0  1  0  0  0  0  0  0  0  0  0
    9.5649   10.7151   23.4093 C   0  0  0  0  0  0  0  0  0  0  0  0
   10.5693   11.5044   22.5648 C   0  0  0  0  0  0  0  0  0  0  0  0
    7.2661   10.0328   25.1908 N   0  0  0  0  0  0  0  0  0  0  0  0
    9.9183    9.3423   23.3029 O   0  0  0  0  0  0  0  0  0  0  0  0
   10.3361   12.8183   22.6892 F   0  0  0  0  0  0  0  0  0  0  0  0
   11.8172   11.2403   22.9759 F   0  0  0  0  0  0  0  0  0  0  0  0
   10.4508   11.1590   21.2752 F   0  0  0  0  0  0  0  0  0  0  0  0
    6.7758   12.5528   23.7694 H   0  0  0  0  0  0  0  0  0  0  0  0
    8.1059   13.1266   22.7668 H   0  0  0  0  0  0  0  0  0  0  0  0
    9.4539   13.3497   24.5937 H   0  0  0  0  0  0  0  0  0  0  0  0
    8.1704   12.7839   25.6599 H   0  0  0  0  0  0  0  0  0  0  0  0
    6.1425   10.1059   23.4308 H   0  0  0  0  0  0  0  0  0  0  0  0
    7.4289    8.9166   23.4202 H   0  0  0  0  0  0  0  0  0  0  0  0
    9.1207    9.1971   25.7112 H   0  0  0  0  0  0  0  0  0  0  0  0
    8.5854   10.5117   26.7387 H   0  0  0  0  0  0  0  0  0  0  0  0
    7.9422   10.8730   21.9271 H   0  0  0  0  0  0  0  0  0  0  0  0
   10.4616   11.2913   25.3375 H   0  0  0  0  0  0  0  0  0  0  0  0
    6.7202   10.8392   25.4951 H   0  0  0  0  0  0  0  0  0  0  0  0
    9.3291    8.8545   23.9008 H   0  0  0  0  0  0  0  0  0  0  0  0
  1  2  1  0  0  0  0
  1  5  1  0  0  0  0
  2  6  1  0  0  0  0
  3  5  1  0  0  0  0
  3  9  1  0  0  0  0
  4  6  1  0  0  0  0
  4  9  1  0  0  0  0
  5  7  1  0  0  0  0
  6  7  1  0  0  0  0
  7  8  1  0  0  0  0
  7 10  1  0  0  0  0
  8 11  1  0  0  0  0
  8 12  1  0  0  0  0
  8 13  1  0  0  0  0
  1 14  1  0  0  0  0
  1 15  1  0  0  0  0
  2 16  1  0  0  0  0
  2 17  1  0  0  0  0
  3 18  1  0  0  0  0
  3 19  1  0  0  0  0
  4 20  1  0  0  0  0
  4 21  1  0  0  0  0
  5 22  1  0  0  0  0
  6 23  1  0  0  0  0
  9 24  1  0  0  0  0
 10 25  1  0  0  0  0
M  END
> <id>
EN300-79999

> <smiles>
Cl.OC1(C2CCC1CNC2)C(F)(F)F

> <MDLNUMBER>
MFCD19382135

> <IUPAC Name>
8-(trifluoromethyl)-3-azabicyclo[3.2.1]octan-8-ol hydrochloride

> <CAS>
1315368-59-2

> <URL>
https://www.enaminestore.com/catalog/EN300-79999

> <Saltdate>
Cl

> <ROCS_ShapeQuery>
x0812_0A_x1140_0A_x1097_0A_x0365_0A_x1097_0A_x0310_0A

> <ROCS_TanimotoCombo>
0.705 

> <ROCS_ShapeTanimoto>
0.228 

> <ROCS_ColorTanimoto>
0.477 

> <ROCS_RefTversky>
0.206 

> <ROCS_RefColorTversky>
0.541 

> <ROCS_RefTverskyCombo>
0.747 

> <ROCS_FitTversky>
1.898 

> <ROCS_FitColorTversky>
0.799 

> <ROCS_FitTverskyCombo>
2.698 

> <ROCS_ColorScore>
-8.051

> <ROCS_Overlap>
2081.476

> <ROCS_Rank>
295                 

$$$$
untitled-dbase-153765_0
  -OEChem-02092408543D

 25 26  0     1  0  0  0  0  0999 V2000
    7.8296   12.3841   23.5242 C   0  0  0  0  0  0  0  0  0  0  0  0
    8.7396   12.5347   24.7582 C   0  0  0  0  0  0  0  0  0  0  0  0
    7.1835    9.9385   23.7310 C   0  0  0  0  0  0  0  0  0  0  0  0
    8.6340   10.1791   25.6951 C   0  0  0  0  0  0  0  0  0  0  0  0
    8.0991   10.9555   23.0080 C   0  0  2  0  0  0  0  0  0  0  0  0
    9.4761   11.1836   24.8718 C   0  0  1  0  0  0  0  0  0  0  0  0
    9.5649   10.7151   23.4093 C   0  0  0  0  0  0  0  0  0  0  0  0
   10.5693   11.5044   22.5648 C   0  0  0  0  0  0  0  0  0  0  0  0
    7.2661   10.0328   25.1908 N   0  0  0  0  0  0  0  0  0  0  0  0
    9.9183    9.3423   23.3029 O   0  0  0  0  0  0  0  0  0  0  0  0
   10.3361   12.8183   22.6892 F   0  0  0  0  0  0  0  0  0  0  0  0
   11.8172   11.2403   22.9759 F   0  0  0  0  0  0  0  0  0  0  0  0
   10.4508   11.1590   21.2752 F   0  0  0  0  0  0  0  0  0  0  0  0
    6.7758   12.5528   23.7694 H   0  0  0  0  0  0  0  0  0  0  0  0
    8.1059   13.1266   22.7668 H   0  0  0  0  0  0  0  0  0  0  0  0
    9.4539   13.3497   24.5937 H   0  0  0  0  0  0  0  0  0  0  0  0
    8.1704   12.7839   25.6599 H   0  0  0  0  0  0  0  0  0  0  0  0
    6.1425   10.1059   23.4308 H   0  0  0  0  0  0  0  0  0  0  0  0
    7.4289    8.9166   23.4202 H   0  0  0  0  0  0  0  0  0  0  0  0
    9.1207    9.1971   25.7112 H   0  0  0  0  0  0  0  0  0  0  0  0
    8.5854   10.5117   26.7387 H   0  0  0  0  0  0  0  0  0  0  0  0
    7.9422   10.8730   21.9271 H   0  0  0  0  0  0  0  0  0  0  0  0
   10.4616   11.2913   25.3375 H   0  0  0  0  0  0  0  0  0  0  0  0
    6.7202   10.8392   25.4951 H   0  0  0  0  0  0  0  0  0  0  0  0
    9.3291    8.8545   23.9008 H   0  0  0  0  0  0  0  0  0  0  0  0
  1  2  1  0  0  0  0
  1  5  1  0  0  0  0
  2  6  1  0  0  0  0
  3  5  1  0  0  0  0
  3  9  1  0  0  0  0
  4  6  1  0  0  0  0
  4  9  1  0  0  0  0
  5  7  1  0  0  0  0
  6  7  1  0  0  0  0
  7  8  1  0  0  0  0
  7 10  1  0  0  0  0
  8 11  1  0  0  0  0
  8 12  1  0  0  0  0
  8 13  1  0  0  0  0
  1 14  1  0  0  0  0
  1 15  1  0  0  0  0
  2 16  1  0  0  0  0
  2 17  1  0  0  0  0
  3 18  1  0  0  0  0
  3 19  1  0  0  0  0
  4 20  1  0  0  0  0
  4 21  1  0  0  0  0
  5 22  1  0  0  0  0
  6 23  1  0  0  0  0
  9 24  1  0  0  0  0
 10 25  1  0  0  0  0
M  END
> <id>
EN300-79488

> <smiles>
OC1(C2CCC1CNC2)C(F)(F)F

> <MDLNUMBER>
MFCD19442731

> <IUPAC Name>
8-(trifluoromethyl)-3-azabicyclo[3.2.1]octan-8-ol

> <CAS>
1251923-31-5

> <URL>
https://www.enaminestore.com/catalog/EN300-79488

> <ROCS_ShapeQuery>
x0812_0A_x1140_0A_x1097_0A_x0365_0A_x1097_0A_x0310_0A

> <ROCS_TanimotoCombo>
0.705 

> <ROCS_ShapeTanimoto>
0.228 

> <ROCS_ColorTanimoto>
0.477 

> <ROCS_RefTversky>
0.206 

> <ROCS_RefColorTversky>
0.541 

> <ROCS_RefTverskyCombo>
0.747 

> <ROCS_FitTversky>
1.898 

> <ROCS_FitColorTversky>
0.799 

> <ROCS_FitTverskyCombo>
2.698 

> <ROCS_ColorScore>
-8.051

> <ROCS_Overlap>
2081.476

> <ROCS_Rank>
296                 

$$$$
untitled-dbase-570770_2
  -OEChem-02092408543D

 21 22  0     0  0  0  0  0  0999 V2000
    7.9017   11.7233   23.1930 C   0  0  0  0  0  0  0  0  0  0  0  0
    8.3541   11.8416   25.2351 C   0  0  0  0  0  0  0  0  0  0  0  0
    9.5813   10.1129   23.9887 C   0  0  0  0  0  0  0  0  0  0  0  0
    9.2667   11.6248   23.9709 C   0  0  0  0  0  0  0  0  0  0  0  0
    7.4922   10.8069   24.4114 C   0  0  0  0  0  0  0  0  0  0  0  0
    6.0536   10.5525   24.7445 C   0  0  0  0  0  0  0  0  0  0  0  0
   10.4046   12.5512   23.6650 C   0  0  0  0  0  0  0  0  0  0  0  0
    8.2807    9.5894   24.3072 O   0  0  0  0  0  0  0  0  0  0  0  0
    5.9477   10.1014   26.0918 O   0  0  0  0  0  0  0  0  0  0  0  0
    9.9924   13.8249   23.8493 F   0  0  0  0  0  0  0  0  0  0  0  0
   10.7383   12.4181   22.3624 F   0  0  0  0  0  0  0  0  0  0  0  0
    7.4334   12.7122   23.1355 H   0  0  0  0  0  0  0  0  0  0  0  0
    7.8732   11.2509   22.2068 H   0  0  0  0  0  0  0  0  0  0  0  0
    8.7554   11.4809   26.1865 H   0  0  0  0  0  0  0  0  0  0  0  0
    7.9299   12.8419   25.3760 H   0  0  0  0  0  0  0  0  0  0  0  0
    9.9039    9.7361   23.0139 H   0  0  0  0  0  0  0  0  0  0  0  0
   10.2931    9.8383   24.7724 H   0  0  0  0  0  0  0  0  0  0  0  0
    5.6230    9.7804   24.0906 H   0  0  0  0  0  0  0  0  0  0  0  0
    5.4521   11.4672   24.6419 H   0  0  0  0  0  0  0  0  0  0  0  0
   11.2696   12.3481   24.2912 H   0  0  0  0  0  0  0  0  0  0  0  0
    5.0044    9.9510   26.2599 H   0  0  0  0  0  0  0  0  0  0  0  0
  1  4  1  0  0  0  0
  1  5  1  0  0  0  0
  2  4  1  0  0  0  0
  2  5  1  0  0  0  0
  3  4  1  0  0  0  0
  3  8  1  0  0  0  0
  4  7  1  1  0  0  0
  5  6  1  1  0  0  0
  5  8  1  0  0  0  0
  6  9  1  0  0  0  0
  7 10  1  0  0  0  0
  7 11  1  0  0  0  0
  1 12  1  0  0  0  0
  1 13  1  0  0  0  0
  2 14  1  0  0  0  0
  2 15  1  0  0  0  0
  3 16  1  0  0  0  0
  3 17  1  0  0  0  0
  6 18  1  0  0  0  0
  6 19  1  0  0  0  0
  7 20  1  0  0  0  0
  9 21  1  0  0  0  0
M  END
> <id>
EN300-27194034

> <smiles>
OC[C@]1(C[C@]2(C1)C(F)F)OC2

> <IUPAC Name>
[4-(difluoromethyl)-2-oxabicyclo[2.1.1]hexan-1-yl]methanol

> <CAS>
2503206-15-1

> <URL>
https://www.enaminestore.com/catalog/EN300-27194034

> <ROCS_ShapeQuery>
x0812_0A_x1140_0A_x1097_0A_x0365_0A_x1097_0A_x0310_0A

> <ROCS_TanimotoCombo>
0.705 

> <ROCS_ShapeTanimoto>
0.213 

> <ROCS_ColorTanimoto>
0.491 

> <ROCS_RefTversky>
0.193 

> <ROCS_RefColorTversky>
0.552 

> <ROCS_RefTverskyCombo>
0.745 

> <ROCS_FitTversky>
1.963 

> <ROCS_FitColorTversky>
0.817 

> <ROCS_FitTverskyCombo>
2.781 

> <ROCS_ColorScore>
-8.210

> <ROCS_Overlap>
1949.566

> <ROCS_Rank>
297                 

$$$$
untitled-dbase-571226_9
  -OEChem-02092408543D

 34 35  0     0  0  0  0  0  0999 V2000
   10.4829   12.0986   21.6937 C   0  0  0  0  0  0  0  0  0  0  0  0
    8.9466   11.7888   25.2377 C   0  0  0  0  0  0  0  0  0  0  0  0
    7.6923   11.9040   23.5680 C   0  0  0  0  0  0  0  0  0  0  0  0
    9.2528    9.9888   23.5712 C   0  0  0  0  0  0  0  0  0  0  0  0
    9.1827   11.4956   23.7301 C   0  0  0  0  0  0  0  0  0  0  0  0
    7.6557   10.9509   24.8396 C   0  0  0  0  0  0  0  0  0  0  0  0
   10.6764   13.2126   19.0724 C   0  0  0  0  0  0  0  0  0  0  0  0
   12.9728   13.9616   19.7614 C   0  0  0  0  0  0  0  0  0  0  0  0
   12.4285   11.5110   19.6802 C   0  0  0  0  0  0  0  0  0  0  0  0
    6.4578   10.8835   25.7358 C   0  0  0  0  0  0  0  0  0  0  0  0
   11.8828   12.9105   19.9601 C   0  0  0  0  0  0  0  0  0  0  0  0
   10.1790   12.2631   23.0326 N   0  0  0  0  0  0  0  0  0  0  0  0
    9.9532   11.2916   20.9369 O   0  0  0  0  0  0  0  0  0  0  0  0
    8.1230    9.6369   24.3973 O   0  0  0  0  0  0  0  0  0  0  0  0
   11.4680   12.9727   21.3294 O   0  0  0  0  0  0  0  0  0  0  0  0
    6.0201   12.7911   26.5995 I   0  0  0  0  0  0  0  0  0  0  0  0
    9.6291   11.3023   25.9403 H   0  0  0  0  0  0  0  0  0  0  0  0
    8.7940   12.8314   25.5366 H   0  0  0  0  0  0  0  0  0  0  0  0
    7.4321   12.9565   23.7241 H   0  0  0  0  0  0  0  0  0  0  0  0
    7.1792   11.5273   22.6786 H   0  0  0  0  0  0  0  0  0  0  0  0
    9.0785    9.6486   22.5467 H   0  0  0  0  0  0  0  0  0  0  0  0
   10.1629    9.5469   23.9864 H   0  0  0  0  0  0  0  0  0  0  0  0
    9.8917   12.4604   19.2121 H   0  0  0  0  0  0  0  0  0  0  0  0
   10.2542   14.1996   19.2877 H   0  0  0  0  0  0  0  0  0  0  0  0
   10.9525   13.1780   18.0123 H   0  0  0  0  0  0  0  0  0  0  0  0
   13.8404   13.7488   20.3964 H   0  0  0  0  0  0  0  0  0  0  0  0
   12.6141   14.9556   20.0519 H   0  0  0  0  0  0  0  0  0  0  0  0
   13.3077   14.0045   18.7200 H   0  0  0  0  0  0  0  0  0  0  0  0
   13.2939   11.2941   20.3168 H   0  0  0  0  0  0  0  0  0  0  0  0
   11.6703   10.7404   19.8533 H   0  0  0  0  0  0  0  0  0  0  0  0
   12.7781   11.4290   18.6447 H   0  0  0  0  0  0  0  0  0  0  0  0
    6.6204   10.1532   26.5456 H   0  0  0  0  0  0  0  0  0  0  0  0
    5.5746   10.5326   25.1766 H   0  0  0  0  0  0  0  0  0  0  0  0
   10.6916   12.9704   23.5563 H   0  0  0  0  0  0  0  0  0  0  0  0
  1 12  1  0  0  0  0
  1 13  2  0  0  0  0
  1 15  1  0  0  0  0
  2  5  1  0  0  0  0
  2  6  1  0  0  0  0
  3  5  1  0  0  0  0
  3  6  1  0  0  0  0
  4  5  1  0  0  0  0
  4 14  1  0  0  0  0
  5 12  1  1  0  0  0
  6 10  1  1  0  0  0
  6 14  1  0  0  0  0
  7 11  1  0  0  0  0
  8 11  1  0  0  0  0
  9 11  1  0  0  0  0
 10 16  1  0  0  0  0
 11 15  1  0  0  0  0
  2 17  1  0  0  0  0
  2 18  1  0  0  0  0
  3 19  1  0  0  0  0
  3 20  1  0  0  0  0
  4 21  1  0  0  0  0
  4 22  1  0  0  0  0
  7 23  1  0  0  0  0
  7 24  1  0  0  0  0
  7 25  1  0  0  0  0
  8 26  1  0  0  0  0
  8 27  1  0  0  0  0
  8 28  1  0  0  0  0
  9 29  1  0  0  0  0
  9 30  1  0  0  0  0
  9 31  1  0  0  0  0
 10 32  1  0  0  0  0
 10 33  1  0  0  0  0
 12 34  1  0  0  0  0
M  END
> <id>
EN300-43351152

> <smiles>
CC(C)(C)OC(=O)N[C@]1(C[C@@]2(CI)C1)CO2

> <IUPAC Name>
tert-butyl N-[1-(iodomethyl)-2-oxabicyclo[2.1.1]hexan-4-yl]carbamate

> <URL>
https://www.enaminestore.com/catalog/EN300-43351152

> <ROCS_ShapeQuery>
x0812_0A_x1140_0A_x1097_0A_x0365_0A_x1097_0A_x0310_0A

> <ROCS_TanimotoCombo>
0.704 

> <ROCS_ShapeTanimoto>
0.222 

> <ROCS_ColorTanimoto>
0.483 

> <ROCS_RefTversky>
0.203 

> <ROCS_RefColorTversky>
0.585 

> <ROCS_RefTverskyCombo>
0.788 

> <ROCS_FitTversky>
1.727 

> <ROCS_FitColorTversky>
0.734 

> <ROCS_FitTverskyCombo>
2.461 

> <ROCS_ColorScore>
-8.758

> <ROCS_Overlap>
2051.829

> <ROCS_Rank>
298                 

$$$$
untitled-dbase-486016_8
  -OEChem-02092408543D

 45 47  0     0  0  0  0  0  0999 V2000
    9.7913   12.1132   22.3849 C   0  0  0  0  0  0  0  0  0  0  0  0
    8.6740    9.0815   22.3107 C   0  0  0  0  0  0  0  0  0  0  0  0
   10.6290    9.3681   23.8707 C   0  0  0  0  0  0  0  0  0  0  0  0
    9.1061   11.8543   24.9683 C   0  0  0  0  0  0  0  0  0  0  0  0
    7.4920   11.6179   23.6810 C   0  0  0  0  0  0  0  0  0  0  0  0
    8.9093    7.5776   22.4158 C   0  0  0  0  0  0  0  0  0  0  0  0
   10.7447    7.8467   23.8811 C   0  0  0  0  0  0  0  0  0  0  0  0
    9.0379   11.3548   23.4683 C   0  0  0  0  0  0  0  0  0  0  0  0
    9.1957    9.8078   23.5549 C   0  0  0  0  0  0  0  0  0  0  0  0
    7.8634   10.8868   25.0268 C   0  0  0  0  0  0  0  0  0  0  0  0
   11.3257   13.9480   20.8435 C   0  0  0  0  0  0  0  0  0  0  0  0
   12.2273   14.7568   23.0440 C   0  0  0  0  0  0  0  0  0  0  0  0
   12.6293   12.3845   22.3237 C   0  0  0  0  0  0  0  0  0  0  0  0
    6.9282   10.8969   26.1978 C   0  0  0  0  0  0  0  0  0  0  0  0
   11.6557   13.5615   22.2846 C   0  0  0  0  0  0  0  0  0  0  0  0
    5.6653   10.3149   25.8475 N   0  0  0  0  0  0  0  0  0  0  0  0
    9.7934   11.7974   21.2028 O   0  0  0  0  0  0  0  0  0  0  0  0
   10.2875    7.2956   22.6481 O   0  0  0  0  0  0  0  0  0  0  0  0
    8.3337    9.5500   24.6827 O   0  0  0  0  0  0  0  0  0  0  0  0
   10.4446   13.1730   22.9406 O   0  0  0  0  0  0  0  0  0  0  0  0
    9.1990    9.4583   21.4250 H   0  0  0  0  0  0  0  0  0  0  0  0
    7.6033    9.2495   22.1579 H   0  0  0  0  0  0  0  0  0  0  0  0
   10.9666    9.7421   24.8420 H   0  0  0  0  0  0  0  0  0  0  0  0
   11.3071    9.7673   23.1070 H   0  0  0  0  0  0  0  0  0  0  0  0
    9.9725   11.5544   25.5620 H   0  0  0  0  0  0  0  0  0  0  0  0
    8.9185   12.9201   25.1454 H   0  0  0  0  0  0  0  0  0  0  0  0
    7.1723   12.6645   23.7527 H   0  0  0  0  0  0  0  0  0  0  0  0
    6.7951   11.0891   23.0269 H   0  0  0  0  0  0  0  0  0  0  0  0
    8.3043    7.1316   23.2138 H   0  0  0  0  0  0  0  0  0  0  0  0
    8.6238    7.0920   21.4770 H   0  0  0  0  0  0  0  0  0  0  0  0
   11.7925    7.5562   24.0074 H   0  0  0  0  0  0  0  0  0  0  0  0
   10.1796    7.4067   24.7114 H   0  0  0  0  0  0  0  0  0  0  0  0
   10.9151   13.0927   20.2950 H   0  0  0  0  0  0  0  0  0  0  0  0
   10.6015   14.7681   20.8016 H   0  0  0  0  0  0  0  0  0  0  0  0
   12.2290   14.2560   20.3046 H   0  0  0  0  0  0  0  0  0  0  0  0
   12.4656   14.4840   24.0784 H   0  0  0  0  0  0  0  0  0  0  0  0
   11.4948   15.5701   23.1001 H   0  0  0  0  0  0  0  0  0  0  0  0
   13.1358   15.1406   22.5686 H   0  0  0  0  0  0  0  0  0  0  0  0
   12.8662   12.1071   23.3572 H   0  0  0  0  0  0  0  0  0  0  0  0
   12.2201   11.5056   21.8151 H   0  0  0  0  0  0  0  0  0  0  0  0
   13.5808   12.6500   21.8489 H   0  0  0  0  0  0  0  0  0  0  0  0
    7.3815   10.3203   27.0141 H   0  0  0  0  0  0  0  0  0  0  0  0
    6.7751   11.9360   26.5158 H   0  0  0  0  0  0  0  0  0  0  0  0
    4.9360   10.9879   25.9791 H   0  0  0  0  0  0  0  0  0  0  0  0
    5.6815   10.0281   24.8885 H   0  0  0  0  0  0  0  0  0  0  0  0
  1  8  1  0  0  0  0
  1 17  2  0  0  0  0
  1 20  1  0  0  0  0
  2  6  1  0  0  0  0
  2  9  1  0  0  0  0
  3  7  1  0  0  0  0
  3  9  1  0  0  0  0
  4  8  1  0  0  0  0
  4 10  1  0  0  0  0
  5  8  1  0  0  0  0
  5 10  1  0  0  0  0
  6 18  1  0  0  0  0
  7 18  1  0  0  0  0
  8  9  1  0  0  0  0
  9 19  1  0  0  0  0
 10 14  1  0  0  0  0
 10 19  1  0  0  0  0
 11 15  1  0  0  0  0
 12 15  1  0  0  0  0
 13 15  1  0  0  0  0
 14 16  1  0  0  0  0
 15 20  1  0  0  0  0
  2 21  1  0  0  0  0
  2 22  1  0  0  0  0
  3 23  1  0  0  0  0
  3 24  1  0  0  0  0
  4 25  1  0  0  0  0
  4 26  1  0  0  0  0
  5 27  1  0  0  0  0
  5 28  1  0  0  0  0
  6 29  1  0  0  0  0
  6 30  1  0  0  0  0
  7 31  1  0  0  0  0
  7 32  1  0  0  0  0
 11 33  1  0  0  0  0
 11 34  1  0  0  0  0
 11 35  1  0  0  0  0
 12 36  1  0  0  0  0
 12 37  1  0  0  0  0
 12 38  1  0  0  0  0
 13 39  1  0  0  0  0
 13 40  1  0  0  0  0
 13 41  1  0  0  0  0
 14 42  1  0  0  0  0
 14 43  1  0  0  0  0
 16 44  1  0  0  0  0
 16 45  1  0  0  0  0
M  END
> <id>
EN300-27727209

> <smiles>
CC(C)(C)OC(=O)C1(CC2(CN)C1)C3(CCOCC3)O2

> <IUPAC Name>
tert-butyl 4-(aminomethyl)-3-oxaspiro[bicyclo[2.1.1]hexane-2,4'-oxane]-1-carboxylate

> <CAS>
2639421-52-4

> <URL>
https://www.enaminestore.com/catalog/EN300-27727209

> <ROCS_ShapeQuery>
x0812_0A_x1140_0A_x1097_0A_x0365_0A_x1097_0A_x0310_0A

> <ROCS_TanimotoCombo>
0.704 

> <ROCS_ShapeTanimoto>
0.276 

> <ROCS_ColorTanimoto>
0.429 

> <ROCS_RefTversky>
0.245 

> <ROCS_RefColorTversky>
0.576 

> <ROCS_RefTverskyCombo>
0.821 

> <ROCS_FitTversky>
1.800 

> <ROCS_FitColorTversky>
0.627 

> <ROCS_FitTverskyCombo>
2.428 

> <ROCS_ColorScore>
-8.672

> <ROCS_Overlap>
2485.611

> <ROCS_Rank>
299                 

$$$$
untitled-dbase-483254_2
  -OEChem-02092408543D

 38 40  0     0  0  0  0  0  0999 V2000
    9.9668   12.0460   22.4770 C   0  0  0  0  0  0  0  0  0  0  0  0
    8.9259   11.9910   24.9539 C   0  0  0  0  0  0  0  0  0  0  0  0
    7.4933   11.6760   23.4591 C   0  0  0  0  0  0  0  0  0  0  0  0
    9.0169    8.9576   22.5722 C   0  0  0  0  0  0  0  0  0  0  0  0
   10.4490    9.2724   24.0656 C   0  0  0  0  0  0  0  0  0  0  0  0
    9.0487   11.3917   23.4954 C   0  0  0  0  0  0  0  0  0  0  0  0
    9.0558    9.8553   23.8122 C   0  0  0  0  0  0  0  0  0  0  0  0
    7.6333   11.0801   24.9177 C   0  0  0  0  0  0  0  0  0  0  0  0
    6.5376   11.2947   25.9223 C   0  0  0  0  0  0  0  0  0  0  0  0
   10.6956   14.3526   20.9788 C   0  0  0  0  0  0  0  0  0  0  0  0
   12.0478   15.0060   22.9922 C   0  0  0  0  0  0  0  0  0  0  0  0
   12.5924   12.8905   21.7527 C   0  0  0  0  0  0  0  0  0  0  0  0
   11.4771   13.8401   22.1876 C   0  0  0  0  0  0  0  0  0  0  0  0
   10.4814    8.8140   22.6646 N   0  0  0  0  0  0  0  0  0  0  0  0
   10.1164   11.6436   21.3312 O   0  0  0  0  0  0  0  0  0  0  0  0
    8.0365    9.6745   24.8275 O   0  0  0  0  0  0  0  0  0  0  0  0
   10.5779   13.1260   23.0418 O   0  0  0  0  0  0  0  0  0  0  0  0
    9.6969   11.6913   25.6699 H   0  0  0  0  0  0  0  0  0  0  0  0
    8.7687   13.0730   25.0283 H   0  0  0  0  0  0  0  0  0  0  0  0
    7.1879   12.7255   23.3790 H   0  0  0  0  0  0  0  0  0  0  0  0
    6.9051   11.0775   22.7572 H   0  0  0  0  0  0  0  0  0  0  0  0
    8.4726    8.0176   22.7211 H   0  0  0  0  0  0  0  0  0  0  0  0
    8.6674    9.4152   21.6422 H   0  0  0  0  0  0  0  0  0  0  0  0
   11.2409    9.9808   24.3257 H   0  0  0  0  0  0  0  0  0  0  0  0
   10.4625    8.4549   24.7961 H   0  0  0  0  0  0  0  0  0  0  0  0
    5.7139   10.5865   25.7650 H   0  0  0  0  0  0  0  0  0  0  0  0
    6.1269   12.3098   25.8471 H   0  0  0  0  0  0  0  0  0  0  0  0
    6.9086   11.1570   26.9461 H   0  0  0  0  0  0  0  0  0  0  0  0
   10.2843   13.5188   20.3986 H   0  0  0  0  0  0  0  0  0  0  0  0
    9.8710   15.0071   21.2795 H   0  0  0  0  0  0  0  0  0  0  0  0
   11.3493   14.9100   20.2982 H   0  0  0  0  0  0  0  0  0  0  0  0
   12.6093   14.6429   23.8606 H   0  0  0  0  0  0  0  0  0  0  0  0
   11.2442   15.6383   23.3867 H   0  0  0  0  0  0  0  0  0  0  0  0
   12.7126   15.6288   22.3851 H   0  0  0  0  0  0  0  0  0  0  0  0
   13.1532   12.5228   22.6196 H   0  0  0  0  0  0  0  0  0  0  0  0
   12.1975   12.0284   21.2055 H   0  0  0  0  0  0  0  0  0  0  0  0
   13.3166   13.4073   21.1126 H   0  0  0  0  0  0  0  0  0  0  0  0
   10.8287    7.8659   22.5314 H   0  0  0  0  0  0  0  0  0  0  0  0
  1  6  1  0  0  0  0
  1 15  2  0  0  0  0
  1 17  1  0  0  0  0
  2  6  1  0  0  0  0
  2  8  1  0  0  0  0
  3  6  1  0  0  0  0
  3  8  1  0  0  0  0
  4  7  1  0  0  0  0
  4 14  1  0  0  0  0
  5  7  1  0  0  0  0
  5 14  1  0  0  0  0
  6  7  1  0  0  0  0
  7 16  1  0  0  0  0
  8  9  1  0  0  0  0
  8 16  1  0  0  0  0
 10 13  1  0  0  0  0
 11 13  1  0  0  0  0
 12 13  1  0  0  0  0
 13 17  1  0  0  0  0
  2 18  1  0  0  0  0
  2 19  1  0  0  0  0
  3 20  1  0  0  0  0
  3 21  1  0  0  0  0
  4 22  1  0  0  0  0
  4 23  1  0  0  0  0
  5 24  1  0  0  0  0
  5 25  1  0  0  0  0
  9 26  1  0  0  0  0
  9 27  1  0  0  0  0
  9 28  1  0  0  0  0
 10 29  1  0  0  0  0
 10 30  1  0  0  0  0
 10 31  1  0  0  0  0
 11 32  1  0  0  0  0
 11 33  1  0  0  0  0
 11 34  1  0  0  0  0
 12 35  1  0  0  0  0
 12 36  1  0  0  0  0
 12 37  1  0  0  0  0
 14 38  1  0  0  0  0
M  END
> <id>
EN300-27727247

> <smiles>
CC(C)(C)OC(=O)C1(CC2(C)C1)C3(CNC3)O2

> <IUPAC Name>
tert-butyl 4'-methyl-3'-oxaspiro[azetidine-3,2'-bicyclo[2.1.1]hexane]-1'-carboxylate

> <CAS>
2639454-15-0

> <URL>
https://www.enaminestore.com/catalog/EN300-27727247

> <ROCS_ShapeQuery>
x0812_0A_x1140_0A_x1097_0A_x0365_0A_x1097_0A_x0310_0A

> <ROCS_TanimotoCombo>
0.704 

> <ROCS_ShapeTanimoto>
0.273 

> <ROCS_ColorTanimoto>
0.431 

> <ROCS_RefTversky>
0.241 

> <ROCS_RefColorTversky>
0.560 

> <ROCS_RefTverskyCombo>
0.801 

> <ROCS_FitTversky>
1.942 

> <ROCS_FitColorTversky>
0.651 

> <ROCS_FitTverskyCombo>
2.593 

> <ROCS_ColorScore>
-8.408

> <ROCS_Overlap>
2443.246

> <ROCS_Rank>
300                 

$$$$
untitled-dbase-307109_1
  -OEChem-02092408543D

 21 22  0     0  0  0  0  0  0999 V2000
    8.8225   11.8185   25.2002 C   0  0  0  0  0  0  0  0  0  0  0  0
    7.7088   11.7458   23.4273 C   0  0  0  0  0  0  0  0  0  0  0  0
    9.2283    9.8462   23.7883 C   0  0  0  0  0  0  0  0  0  0  0  0
    9.2107   11.3896   23.7362 C   0  0  0  0  0  0  0  0  0  0  0  0
    7.5617   10.9619   24.7896 C   0  0  0  0  0  0  0  0  0  0  0  0
    6.2923   11.0143   25.5839 C   0  0  0  0  0  0  0  0  0  0  0  0
   10.3345   12.0568   23.0021 C   0  0  0  0  0  0  0  0  0  0  0  0
    8.0324    9.6069   24.5495 O   0  0  0  0  0  0  0  0  0  0  0  0
   10.1940   11.8267   21.6033 O   0  0  0  0  0  0  0  0  0  0  0  0
    9.4408   11.4071   26.0033 H   0  0  0  0  0  0  0  0  0  0  0  0
    8.6609   12.8875   25.3778 H   0  0  0  0  0  0  0  0  0  0  0  0
    7.4392   12.8077   23.4326 H   0  0  0  0  0  0  0  0  0  0  0  0
    7.2705   11.2650   22.5480 H   0  0  0  0  0  0  0  0  0  0  0  0
    9.1357    9.3885   22.7992 H   0  0  0  0  0  0  0  0  0  0  0  0
   10.0949    9.4508   24.3258 H   0  0  0  0  0  0  0  0  0  0  0  0
    5.5254   10.3558   25.1527 H   0  0  0  0  0  0  0  0  0  0  0  0
    5.8807   12.0329   25.6095 H   0  0  0  0  0  0  0  0  0  0  0  0
    6.4593   10.6960   26.6224 H   0  0  0  0  0  0  0  0  0  0  0  0
   11.3092   11.6585   23.3183 H   0  0  0  0  0  0  0  0  0  0  0  0
   10.3328   13.1429   23.1722 H   0  0  0  0  0  0  0  0  0  0  0  0
   10.9390   12.2745   21.1729 H   0  0  0  0  0  0  0  0  0  0  0  0
  1  4  1  0  0  0  0
  1  5  1  0  0  0  0
  2  4  1  0  0  0  0
  2  5  1  0  0  0  0
  3  4  1  0  0  0  0
  3  8  1  0  0  0  0
  4  7  1  0  0  0  0
  5  6  1  0  0  0  0
  5  8  1  0  0  0  0
  7  9  1  0  0  0  0
  1 10  1  0  0  0  0
  1 11  1  0  0  0  0
  2 12  1  0  0  0  0
  2 13  1  0  0  0  0
  3 14  1  0  0  0  0
  3 15  1  0  0  0  0
  6 16  1  0  0  0  0
  6 17  1  0  0  0  0
  6 18  1  0  0  0  0
  7 19  1  0  0  0  0
  7 20  1  0  0  0  0
  9 21  1  0  0  0  0
M  END
> <id>
EN300-701312

> <smiles>
CC1(CC2(CO)C1)OC2

> <MDLNUMBER>
MFCD31559299

> <IUPAC Name>
{1-methyl-2-oxabicyclo[2.1.1]hexan-4-yl}methanol

> <CAS>
2138162-49-7

> <Purity>
95

> <URL>
https://www.enaminestore.com/catalog/EN300-701312

> <ROCS_ShapeQuery>
x0812_0A_x1140_0A_x1097_0A_x0365_0A_x1097_0A_x0310_0A

> <ROCS_TanimotoCombo>
0.704 

> <ROCS_ShapeTanimoto>
0.193 

> <ROCS_ColorTanimoto>
0.511 

> <ROCS_RefTversky>
0.176 

> <ROCS_RefColorTversky>
0.567 

> <ROCS_RefTverskyCombo>
0.743 

> <ROCS_FitTversky>
1.973 

> <ROCS_FitColorTversky>
0.839 

> <ROCS_FitTverskyCombo>
2.812 

> <ROCS_ColorScore>
-8.430

> <ROCS_Overlap>
1778.712

> <ROCS_Rank>
301                 

$$$$
untitled-dbase-289844_4
  -OEChem-02092408543D

 37 39  0     0  0  0  0  0  0999 V2000
   10.4691   11.2838   22.2919 C   0  0  0  0  0  0  0  0  0  0  0  0
    6.9767   11.8136   25.3427 C   0  0  0  0  0  0  0  0  0  0  0  0
    9.3124   12.5224   24.7887 C   0  0  0  0  0  0  0  0  0  0  0  0
    7.6437   12.1291   22.9470 C   0  0  0  0  0  0  0  0  0  0  0  0
    8.8863   10.2223   25.6620 C   0  0  0  0  0  0  0  0  0  0  0  0
    7.2063    9.8386   23.8233 C   0  0  0  0  0  0  0  0  0  0  0  0
    7.8344   12.6531   24.3820 C   0  0  0  0  0  0  0  0  0  0  0  0
    7.4026   10.3382   25.2660 C   0  0  0  0  0  0  0  0  0  0  0  0
    9.7664   11.0470   24.6932 C   0  0  0  0  0  0  0  0  0  0  0  0
    8.0942   10.6510   22.8504 C   0  0  0  0  0  0  0  0  0  0  0  0
    9.5871   10.5172   23.2492 C   0  0  0  0  0  0  0  0  0  0  0  0
   11.8302   13.6909   21.6169 C   0  0  0  0  0  0  0  0  0  0  0  0
   12.5181   12.4522   22.1499 C   0  0  0  0  0  0  0  0  0  0  0  0
   10.0740    9.1411   23.1050 N   0  0  0  0  0  0  0  0  0  0  0  0
   10.1960   11.4789   21.1153 O   0  0  0  0  0  0  0  0  0  0  0  0
   11.5888   11.7082   22.9441 O   0  0  0  0  0  0  0  0  0  0  0  0
    7.0882   12.1845   26.3690 H   0  0  0  0  0  0  0  0  0  0  0  0
    5.9156   11.9125   25.0832 H   0  0  0  0  0  0  0  0  0  0  0  0
    9.9338   13.1586   24.1478 H   0  0  0  0  0  0  0  0  0  0  0  0
    9.4509   12.8878   25.8141 H   0  0  0  0  0  0  0  0  0  0  0  0
    6.5891   12.2156   22.6558 H   0  0  0  0  0  0  0  0  0  0  0  0
    8.2103   12.7507   22.2441 H   0  0  0  0  0  0  0  0  0  0  0  0
    9.0222   10.5945   26.6859 H   0  0  0  0  0  0  0  0  0  0  0  0
    9.1932    9.1712   25.6822 H   0  0  0  0  0  0  0  0  0  0  0  0
    7.4363    8.7691   23.7603 H   0  0  0  0  0  0  0  0  0  0  0  0
    6.1521    9.9407   23.5354 H   0  0  0  0  0  0  0  0  0  0  0  0
    7.5270   13.7037   24.4364 H   0  0  0  0  0  0  0  0  0  0  0  0
    6.7888    9.7426   25.9511 H   0  0  0  0  0  0  0  0  0  0  0  0
   10.8163   10.9789   25.0049 H   0  0  0  0  0  0  0  0  0  0  0  0
    7.9311   10.2986   21.8240 H   0  0  0  0  0  0  0  0  0  0  0  0
   10.9734   13.4232   20.9923 H   0  0  0  0  0  0  0  0  0  0  0  0
   11.4835   14.3243   22.4400 H   0  0  0  0  0  0  0  0  0  0  0  0
   12.5257   14.2932   21.0230 H   0  0  0  0  0  0  0  0  0  0  0  0
   13.3740   12.7270   22.7736 H   0  0  0  0  0  0  0  0  0  0  0  0
   12.8632   11.8202   21.3262 H   0  0  0  0  0  0  0  0  0  0  0  0
   10.3963    8.8379   23.9911 H   0  0  0  0  0  0  0  0  0  0  0  0
    9.3181    8.5828   22.7917 H   0  0  0  0  0  0  0  0  0  0  0  0
  1 11  1  0  0  0  0
  1 15  2  0  0  0  0
  1 16  1  0  0  0  0
  2  7  1  0  0  0  0
  2  8  1  0  0  0  0
  3  7  1  0  0  0  0
  3  9  1  0  0  0  0
  4  7  1  0  0  0  0
  4 10  1  0  0  0  0
  5  8  1  0  0  0  0
  5  9  1  0  0  0  0
  6  8  1  0  0  0  0
  6 10  1  0  0  0  0
  9 11  1  0  0  0  0
 10 11  1  0  0  0  0
 11 14  1  0  0  0  0
 12 13  1  0  0  0  0
 13 16  1  0  0  0  0
  2 17  1  0  0  0  0
  2 18  1  0  0  0  0
  3 19  1  0  0  0  0
  3 20  1  0  0  0  0
  4 21  1  0  0  0  0
  4 22  1  0  0  0  0
  5 23  1  0  0  0  0
  5 24  1  0  0  0  0
  6 25  1  0  0  0  0
  6 26  1  0  0  0  0
  7 27  1  0  0  0  0
  8 28  1  0  0  0  0
  9 29  1  0  0  0  0
 10 30  1  0  0  0  0
 12 31  1  0  0  0  0
 12 32  1  0  0  0  0
 12 33  1  0  0  0  0
 13 34  1  0  0  0  0
 13 35  1  0  0  0  0
 14 36  1  0  0  0  0
 14 37  1  0  0  0  0
M  END
> <id>
EN300-6511495

> <smiles>
CCOC(=O)C1(N)C2CC3CC(C2)CC1C3

> <IUPAC Name>
ethyl 2-aminoadamantane-2-carboxylate

> <CAS>
1339363-93-7

> <URL>
https://www.enaminestore.com/catalog/EN300-6511495

> <ROCS_ShapeQuery>
x0812_0A_x1140_0A_x1097_0A_x0365_0A_x1097_0A_x0310_0A

> <ROCS_TanimotoCombo>
0.704 

> <ROCS_ShapeTanimoto>
0.256 

> <ROCS_ColorTanimoto>
0.448 

> <ROCS_RefTversky>
0.228 

> <ROCS_RefColorTversky>
0.513 

> <ROCS_RefTverskyCombo>
0.741 

> <ROCS_FitTversky>
1.902 

> <ROCS_FitColorTversky>
0.782 

> <ROCS_FitTverskyCombo>
2.684 

> <ROCS_ColorScore>
-7.613

> <ROCS_Overlap>
2307.296

> <ROCS_Rank>
302                 

$$$$
untitled-dbase-499515_3
  -OEChem-02092408543D

 24 25  0     0  0  0  0  0  0999 V2000
    6.4392   10.9496   25.7503 C   0  0  0  0  0  0  0  0  0  0  0  0
   10.4857   12.0990   21.6760 C   0  0  0  0  0  0  0  0  0  0  0  0
    8.9429   11.7799   25.2309 C   0  0  0  0  0  0  0  0  0  0  0  0
    7.6930   11.8881   23.5661 C   0  0  0  0  0  0  0  0  0  0  0  0
    9.2475    9.9827   23.5797 C   0  0  0  0  0  0  0  0  0  0  0  0
    7.6547   10.9505   24.8388 C   0  0  0  0  0  0  0  0  0  0  0  0
    9.1941   11.5050   23.7197 C   0  0  0  0  0  0  0  0  0  0  0  0
   11.5681   13.0271   21.2088 C   0  0  0  0  0  0  0  0  0  0  0  0
   10.1878   12.2691   23.0230 N   0  0  0  0  0  0  0  0  0  0  0  0
    6.1085   11.8723   26.4800 O   0  0  0  0  0  0  0  0  0  0  0  0
    9.9508   11.2916   20.9216 O   0  0  0  0  0  0  0  0  0  0  0  0
    8.1184    9.6370   24.4052 O   0  0  0  0  0  0  0  0  0  0  0  0
    5.7652    9.7780   25.6481 O   0  0  0  0  0  0  0  0  0  0  0  0
   12.0157   13.8277   22.2094 F   0  0  0  0  0  0  0  0  0  0  0  0
   11.1435   13.8429   20.2104 F   0  0  0  0  0  0  0  0  0  0  0  0
   12.6465   12.3540   20.7332 F   0  0  0  0  0  0  0  0  0  0  0  0
    8.7929   12.8213   25.5370 H   0  0  0  0  0  0  0  0  0  0  0  0
    9.6292   11.2919   25.9292 H   0  0  0  0  0  0  0  0  0  0  0  0
    7.1868   11.5032   22.6759 H   0  0  0  0  0  0  0  0  0  0  0  0
    7.4215   12.9396   23.7122 H   0  0  0  0  0  0  0  0  0  0  0  0
    9.0754    9.6378   22.5561 H   0  0  0  0  0  0  0  0  0  0  0  0
   10.1577    9.5430   23.9970 H   0  0  0  0  0  0  0  0  0  0  0  0
   10.7052   12.9773   23.5455 H   0  0  0  0  0  0  0  0  0  0  0  0
    4.9767    9.7569   26.2314 H   0  0  0  0  0  0  0  0  0  0  0  0
  1  6  1  0  0  0  0
  1 10  2  0  0  0  0
  1 13  1  0  0  0  0
  2  8  1  0  0  0  0
  2  9  1  0  0  0  0
  2 11  2  0  0  0  0
  3  6  1  0  0  0  0
  3  7  1  0  0  0  0
  4  6  1  0  0  0  0
  4  7  1  0  0  0  0
  5  7  1  0  0  0  0
  5 12  1  0  0  0  0
  6 12  1  0  0  0  0
  7  9  1  0  0  0  0
  8 14  1  0  0  0  0
  8 15  1  0  0  0  0
  8 16  1  0  0  0  0
  3 17  1  0  0  0  0
  3 18  1  0  0  0  0
  4 19  1  0  0  0  0
  4 20  1  0  0  0  0
  5 21  1  0  0  0  0
  5 22  1  0  0  0  0
  9 23  1  0  0  0  0
 13 24  1  0  0  0  0
M  END
> <id>
EN300-28276566

> <smiles>
OC(=O)C1(CC2(C1)NC(=O)C(F)(F)F)OC2

> <IUPAC Name>
4-(2,2,2-trifluoroacetamido)-2-oxabicyclo[2.1.1]hexane-1-carboxylic acid

> <CAS>
2680790-60-5

> <URL>
https://www.enaminestore.com/catalog/EN300-28276566

> <ROCS_ShapeQuery>
x0812_0A_x1140_0A_x1097_0A_x0365_0A_x1097_0A_x0310_0A

> <ROCS_TanimotoCombo>
0.704 

> <ROCS_ShapeTanimoto>
0.247 

> <ROCS_ColorTanimoto>
0.457 

> <ROCS_RefTversky>
0.222 

> <ROCS_RefColorTversky>
0.583 

> <ROCS_RefTverskyCombo>
0.805 

> <ROCS_FitTversky>
1.834 

> <ROCS_FitColorTversky>
0.679 

> <ROCS_FitTverskyCombo>
2.513 

> <ROCS_ColorScore>
-8.764

> <ROCS_Overlap>
2245.322

> <ROCS_Rank>
303                 

$$$$
untitled-dbase-310701_0
  -OEChem-02092408543D

 20 21  0     1  0  0  0  0  0999 V2000
    9.2058    9.9904   23.6256 C   0  0  0  0  0  0  0  0  0  0  0  0
    9.4532   12.0539   22.1287 C   0  0  0  0  0  0  0  0  0  0  0  0
    8.1835    9.4583   24.6076 C   0  0  0  0  0  0  0  0  0  0  0  0
    8.3321   11.7310   25.7030 C   0  0  0  0  0  0  0  0  0  0  0  0
    9.3910   12.1761   24.6734 C   0  0  0  0  0  0  0  0  0  0  0  0
    7.4198   11.4554   23.5274 C   0  0  0  0  0  0  0  0  0  0  0  0
    7.4293   10.7739   24.8973 C   0  0  1  0  0  0  0  0  0  0  0  0
    8.9424   11.4674   23.3942 C   0  0  2  0  0  0  0  0  0  0  0  0
   10.1027    9.3335   23.1209 O   0  0  0  0  0  0  0  0  0  0  0  0
   10.0646   11.4092   21.2831 O   0  0  0  0  0  0  0  0  0  0  0  0
    9.2494   13.1285   21.9849 H   0  0  0  0  0  0  0  0  0  0  0  0
    7.5426    8.7271   24.1082 H   0  0  0  0  0  0  0  0  0  0  0  0
    8.6614    9.0394   25.4953 H   0  0  0  0  0  0  0  0  0  0  0  0
    8.7846   11.2472   26.5743 H   0  0  0  0  0  0  0  0  0  0  0  0
    7.7610   12.5995   26.0505 H   0  0  0  0  0  0  0  0  0  0  0  0
    9.3861   13.2667   24.5642 H   0  0  0  0  0  0  0  0  0  0  0  0
   10.3967   11.8747   24.9882 H   0  0  0  0  0  0  0  0  0  0  0  0
    6.9152   10.8610   22.7565 H   0  0  0  0  0  0  0  0  0  0  0  0
    6.9818   12.4599   23.5470 H   0  0  0  0  0  0  0  0  0  0  0  0
    6.4480   10.6182   25.3501 H   0  0  0  0  0  0  0  0  0  0  0  0
  1  3  1  0  0  0  0
  1  8  1  0  0  0  0
  1  9  2  0  0  0  0
  2  8  1  0  0  0  0
  2 10  2  0  0  0  0
  3  7  1  0  0  0  0
  4  5  1  0  0  0  0
  4  7  1  0  0  0  0
  5  8  1  0  0  0  0
  6  7  1  0  0  0  0
  6  8  1  0  0  0  0
  2 11  1  0  0  0  0
  3 12  1  0  0  0  0
  3 13  1  0  0  0  0
  4 14  1  0  0  0  0
  4 15  1  0  0  0  0
  5 16  1  0  0  0  0
  5 17  1  0  0  0  0
  6 18  1  0  0  0  0
  6 19  1  0  0  0  0
  7 20  1  0  0  0  0
M  END
> <id>
EN300-1478228

> <smiles>
O=CC1(CCC2CC1=O)C2

> <MDLNUMBER>
MFCD24680320

> <IUPAC Name>
2-oxobicyclo[2.2.1]heptane-1-carbaldehyde

> <CAS>
124418-13-9

> <URL>
https://www.enaminestore.com/catalog/EN300-1478228

> <ROCS_ShapeQuery>
x0812_0A_x1140_0A_x1097_0A_x0365_0A_x1097_0A_x0310_0A

> <ROCS_TanimotoCombo>
0.704 

> <ROCS_ShapeTanimoto>
0.197 

> <ROCS_ColorTanimoto>
0.507 

> <ROCS_RefTversky>
0.180 

> <ROCS_RefColorTversky>
0.534 

> <ROCS_RefTverskyCombo>
0.714 

> <ROCS_FitTversky>
1.902 

> <ROCS_FitColorTversky>
0.910 

> <ROCS_FitTverskyCombo>
2.812 

> <ROCS_ColorScore>
-7.905

> <ROCS_Overlap>
1818.867

> <ROCS_Rank>
304                 

$$$$
untitled-dbase-137215_0
  -OEChem-02092408543D

 29 31  0     0  0  0  0  0  0999 V2000
   12.2515   11.7216   23.7645 C   0  0  0  0  0  0  0  0  0  0  0  0
   11.1767   11.1872   23.7450 C   0  0  0  0  0  0  0  0  0  0  0  0
    6.7041   11.8744   24.8040 C   0  0  0  0  0  0  0  0  0  0  0  0
    7.8942    9.6931   25.1125 C   0  0  0  0  0  0  0  0  0  0  0  0
    7.4848   10.6000   22.7950 C   0  0  0  0  0  0  0  0  0  0  0  0
    9.0255   11.8254   25.7459 C   0  0  0  0  0  0  0  0  0  0  0  0
    8.6165   12.7315   23.4306 C   0  0  0  0  0  0  0  0  0  0  0  0
    6.9098   10.4674   24.2171 C   0  0  0  0  0  0  0  0  0  0  0  0
    8.0489   12.6188   24.8578 C   0  0  0  0  0  0  0  0  0  0  0  0
    9.2609   10.4161   25.1532 C   0  0  0  0  0  0  0  0  0  0  0  0
    8.8517   11.3225   22.8372 C   0  0  0  0  0  0  0  0  0  0  0  0
    9.8538   10.5288   23.7211 C   0  0  0  0  0  0  0  0  0  0  0  0
   10.0871    9.2316   23.1722 O   0  0  0  0  0  0  0  0  0  0  0  0
   13.2049   12.1958   23.7817 H   0  0  0  0  0  0  0  0  0  0  0  0
    5.9879   12.4363   24.1917 H   0  0  0  0  0  0  0  0  0  0  0  0
    6.2738   11.8028   25.8106 H   0  0  0  0  0  0  0  0  0  0  0  0
    7.4872    9.6164   26.1290 H   0  0  0  0  0  0  0  0  0  0  0  0
    8.0054    8.6644   24.7530 H   0  0  0  0  0  0  0  0  0  0  0  0
    7.5771    9.6128   22.3294 H   0  0  0  0  0  0  0  0  0  0  0  0
    6.7871   11.1673   22.1658 H   0  0  0  0  0  0  0  0  0  0  0  0
    9.9722   12.3698   25.8421 H   0  0  0  0  0  0  0  0  0  0  0  0
    8.6167   11.7374   26.7605 H   0  0  0  0  0  0  0  0  0  0  0  0
    7.9161   13.2889   22.7957 H   0  0  0  0  0  0  0  0  0  0  0  0
    9.5481   13.3092   23.4417 H   0  0  0  0  0  0  0  0  0  0  0  0
    5.9498    9.9410   24.1806 H   0  0  0  0  0  0  0  0  0  0  0  0
    7.8984   13.6202   25.2763 H   0  0  0  0  0  0  0  0  0  0  0  0
    9.9381    9.8474   25.8026 H   0  0  0  0  0  0  0  0  0  0  0  0
    9.2331   11.4091   21.8122 H   0  0  0  0  0  0  0  0  0  0  0  0
   10.7148    8.7922   23.7655 H   0  0  0  0  0  0  0  0  0  0  0  0
  1  2  3  0  0  0  0
  2 12  1  0  0  0  0
  3  8  1  0  0  0  0
  3  9  1  0  0  0  0
  4  8  1  0  0  0  0
  4 10  1  0  0  0  0
  5  8  1  0  0  0  0
  5 11  1  0  0  0  0
  6  9  1  0  0  0  0
  6 10  1  0  0  0  0
  7  9  1  0  0  0  0
  7 11  1  0  0  0  0
 10 12  1  0  0  0  0
 11 12  1  0  0  0  0
 12 13  1  0  0  0  0
  1 14  1  0  0  0  0
  3 15  1  0  0  0  0
  3 16  1  0  0  0  0
  4 17  1  0  0  0  0
  4 18  1  0  0  0  0
  5 19  1  0  0  0  0
  5 20  1  0  0  0  0
  6 21  1  0  0  0  0
  6 22  1  0  0  0  0
  7 23  1  0  0  0  0
  7 24  1  0  0  0  0
  8 25  1  0  0  0  0
  9 26  1  0  0  0  0
 10 27  1  0  0  0  0
 11 28  1  0  0  0  0
 13 29  1  0  0  0  0
M  END
> <id>
EN300-1273439

> <smiles>
OC1(C#C)C2CC3CC(C2)CC1C3

> <IUPAC Name>
2-ethynyladamantan-2-ol

> <CAS>
70887-49-9

> <URL>
https://www.enaminestore.com/catalog/EN300-1273439

> <ROCS_ShapeQuery>
x0812_0A_x1140_0A_x1097_0A_x0365_0A_x1097_0A_x0310_0A

> <ROCS_TanimotoCombo>
0.704 

> <ROCS_ShapeTanimoto>
0.225 

> <ROCS_ColorTanimoto>
0.479 

> <ROCS_RefTversky>
0.203 

> <ROCS_RefColorTversky>
0.536 

> <ROCS_RefTverskyCombo>
0.739 

> <ROCS_FitTversky>
1.894 

> <ROCS_FitColorTversky>
0.818 

> <ROCS_FitTverskyCombo>
2.712 

> <ROCS_ColorScore>
-7.964

> <ROCS_Overlap>
2055.434

> <ROCS_Rank>
305                 

$$$$
untitled-dbase-503912_6
  -OEChem-02092408543D

 40 42  0     0  0  0  0  0  0999 V2000
   10.1517   11.7852   22.5174 C   0  0  0  0  0  0  0  0  0  0  0  0
    8.5985    8.9539   22.4461 C   0  0  0  0  0  0  0  0  0  0  0  0
   10.3319    9.0761   24.2673 C   0  0  0  0  0  0  0  0  0  0  0  0
    7.6423   11.7370   23.4730 C   0  0  0  0  0  0  0  0  0  0  0  0
    9.0729   11.8382   24.9765 C   0  0  0  0  0  0  0  0  0  0  0  0
    8.5512    7.4401   22.6650 C   0  0  0  0  0  0  0  0  0  0  0  0
   10.2109    7.5577   24.4121 C   0  0  0  0  0  0  0  0  0  0  0  0
    9.1426   11.2348   23.5149 C   0  0  0  0  0  0  0  0  0  0  0  0
    9.0428    9.6933   23.7134 C   0  0  0  0  0  0  0  0  0  0  0  0
    7.6993   11.0694   24.8995 C   0  0  0  0  0  0  0  0  0  0  0  0
   13.2375   13.6083   23.2543 C   0  0  0  0  0  0  0  0  0  0  0  0
    6.6192   11.3091   25.9104 C   0  0  0  0  0  0  0  0  0  0  0  0
   12.1924   12.9670   22.3665 C   0  0  0  0  0  0  0  0  0  0  0  0
    4.8336   13.3840   27.7537 N   0  5  0  0  0  0  0  0  0  0  0  0
    6.5314   12.7435   26.2088 N   0  0  0  0  0  0  0  0  0  0  0  0
    5.6446   13.0720   27.0147 N   0  3  0  0  0  0  0  0  0  0  0  0
    9.8321    6.9283   23.1483 N   0  0  0  0  0  0  0  0  0  0  0  0
   10.0440   11.6771   21.3034 O   0  0  0  0  0  0  0  0  0  0  0  0
    7.9997    9.6552   24.7089 O   0  0  0  0  0  0  0  0  0  0  0  0
   11.1665   12.4009   23.1882 O   0  0  0  0  0  0  0  0  0  0  0  0
    9.2851    9.1772   21.6201 H   0  0  0  0  0  0  0  0  0  0  0  0
    7.6009    9.2732   22.1270 H   0  0  0  0  0  0  0  0  0  0  0  0
   10.5779    9.4836   25.2533 H   0  0  0  0  0  0  0  0  0  0  0  0
   11.1755    9.3091   23.6055 H   0  0  0  0  0  0  0  0  0  0  0  0
    7.4831   12.8214   23.4348 H   0  0  0  0  0  0  0  0  0  0  0  0
    6.9709   11.2654   22.7518 H   0  0  0  0  0  0  0  0  0  0  0  0
    9.7882   11.4642   25.7123 H   0  0  0  0  0  0  0  0  0  0  0  0
    9.0304   12.9308   25.0608 H   0  0  0  0  0  0  0  0  0  0  0  0
    7.7500    7.1800   23.3678 H   0  0  0  0  0  0  0  0  0  0  0  0
    8.3113    6.9502   21.7149 H   0  0  0  0  0  0  0  0  0  0  0  0
   11.1770    7.1524   24.7321 H   0  0  0  0  0  0  0  0  0  0  0  0
    9.4848    7.3042   25.1941 H   0  0  0  0  0  0  0  0  0  0  0  0
   12.7981   14.4043   23.8619 H   0  0  0  0  0  0  0  0  0  0  0  0
   13.6886   12.8643   23.9190 H   0  0  0  0  0  0  0  0  0  0  0  0
   14.0488   14.0305   22.6521 H   0  0  0  0  0  0  0  0  0  0  0  0
    6.8235   10.7656   26.8448 H   0  0  0  0  0  0  0  0  0  0  0  0
    5.6431   10.9659   25.5364 H   0  0  0  0  0  0  0  0  0  0  0  0
   12.6383   12.1718   21.7616 H   0  0  0  0  0  0  0  0  0  0  0  0
   11.7421   13.7119   21.7037 H   0  0  0  0  0  0  0  0  0  0  0  0
    9.7619    5.9200   23.2829 H   0  0  0  0  0  0  0  0  0  0  0  0
  1  8  1  0  0  0  0
  1 18  2  0  0  0  0
  1 20  1  0  0  0  0
  2  6  1  0  0  0  0
  2  9  1  0  0  0  0
  3  7  1  0  0  0  0
  3  9  1  0  0  0  0
  4  8  1  0  0  0  0
  4 10  1  0  0  0  0
  5  8  1  0  0  0  0
  5 10  1  0  0  0  0
  6 17  1  0  0  0  0
  7 17  1  0  0  0  0
  8  9  1  0  0  0  0
  9 19  1  0  0  0  0
 10 12  1  0  0  0  0
 10 19  1  0  0  0  0
 11 13  1  0  0  0  0
 12 15  1  0  0  0  0
 13 20  1  0  0  0  0
 14 16  2  0  0  0  0
 15 16  2  0  0  0  0
  2 21  1  0  0  0  0
  2 22  1  0  0  0  0
  3 23  1  0  0  0  0
  3 24  1  0  0  0  0
  4 25  1  0  0  0  0
  4 26  1  0  0  0  0
  5 27  1  0  0  0  0
  5 28  1  0  0  0  0
  6 29  1  0  0  0  0
  6 30  1  0  0  0  0
  7 31  1  0  0  0  0
  7 32  1  0  0  0  0
 11 33  1  0  0  0  0
 11 34  1  0  0  0  0
 11 35  1  0  0  0  0
 12 36  1  0  0  0  0
 12 37  1  0  0  0  0
 13 38  1  0  0  0  0
 13 39  1  0  0  0  0
 17 40  1  0  0  0  0
M  CHG  2  14  -1  16   1
M  END
> <id>
EN300-28285969

> <smiles>
CCOC(=O)C1(CC2(CN=[N+]=[N-])C1)C3(CCNCC3)O2

> <IUPAC Name>
ethyl 4-(azidomethyl)-3-oxaspiro[bicyclo[2.1.1]hexane-2,4'-piperidine]-1-carboxylate

> <CAS>
2680812-17-1

> <URL>
https://www.enaminestore.com/catalog/EN300-28285969

> <ROCS_ShapeQuery>
x0812_0A_x1140_0A_x1097_0A_x0365_0A_x1097_0A_x0310_0A

> <ROCS_TanimotoCombo>
0.704 

> <ROCS_ShapeTanimoto>
0.272 

> <ROCS_ColorTanimoto>
0.432 

> <ROCS_RefTversky>
0.243 

> <ROCS_RefColorTversky>
0.542 

> <ROCS_RefTverskyCombo>
0.785 

> <ROCS_FitTversky>
1.785 

> <ROCS_FitColorTversky>
0.681 

> <ROCS_FitTverskyCombo>
2.465 

> <ROCS_ColorScore>
-8.117

> <ROCS_Overlap>
2457.852

> <ROCS_Rank>
306                 

$$$$
untitled-dbase-150031_0
  -OEChem-02092408543D

 32 34  0     1  0  0  0  0  0999 V2000
    7.8589    9.6056   24.9600 C   0  0  0  0  0  0  0  0  0  0  0  0
    7.6094   10.6698   22.6958 C   0  0  0  0  0  0  0  0  0  0  0  0
    6.6658   11.7978   24.7259 C   0  0  0  0  0  0  0  0  0  0  0  0
    8.9184   11.6945   25.8326 C   0  0  0  0  0  0  0  0  0  0  0  0
    8.6682   12.7647   23.5574 C   0  0  0  0  0  0  0  0  0  0  0  0
    6.9316   10.4375   24.0572 C   0  0  0  0  0  0  0  0  0  0  0  0
    9.2065   10.3374   25.1569 C   0  0  2  0  0  0  0  0  0  0  0  0
    8.9557   11.4035   22.8902 C   0  0  1  0  0  0  0  0  0  0  0  0
    7.9987   12.5514   24.9338 C   0  0  0  0  0  0  0  0  0  0  0  0
    9.8935   10.5447   23.7808 C   0  0  0  0  0  0  0  0  0  0  0  0
   11.2991   11.1455   23.9123 C   0  0  0  0  0  0  0  0  0  0  0  0
    7.7380   13.8374   25.5786 N   0  0  0  0  0  0  0  0  0  0  0  0
   10.0789    9.2588   23.1724 O   0  0  0  0  0  0  0  0  0  0  0  0
   12.0743   10.3296   24.6382 F   0  0  0  0  0  0  0  0  0  0  0  0
   11.8404   11.3012   22.6972 F   0  0  0  0  0  0  0  0  0  0  0  0
   11.2268   12.3379   24.5179 F   0  0  0  0  0  0  0  0  0  0  0  0
    7.3809    9.4400   25.9337 H   0  0  0  0  0  0  0  0  0  0  0  0
    8.0194    8.6138   24.5211 H   0  0  0  0  0  0  0  0  0  0  0  0
    7.7631    9.7120   22.1848 H   0  0  0  0  0  0  0  0  0  0  0  0
    6.9520   11.2646   22.0492 H   0  0  0  0  0  0  0  0  0  0  0  0
    5.9824   12.3876   24.1006 H   0  0  0  0  0  0  0  0  0  0  0  0
    6.1577   11.6425   25.6868 H   0  0  0  0  0  0  0  0  0  0  0  0
    8.4407   11.5203   26.8066 H   0  0  0  0  0  0  0  0  0  0  0  0
    9.8554   12.2220   26.0468 H   0  0  0  0  0  0  0  0  0  0  0  0
    9.5936   13.3434   23.6601 H   0  0  0  0  0  0  0  0  0  0  0  0
    8.0125   13.3567   22.9045 H   0  0  0  0  0  0  0  0  0  0  0  0
    5.9836    9.9073   23.9128 H   0  0  0  0  0  0  0  0  0  0  0  0
    9.8411    9.7218   25.8058 H   0  0  0  0  0  0  0  0  0  0  0  0
    9.4097   11.5581   21.9037 H   0  0  0  0  0  0  0  0  0  0  0  0
    8.2284   13.8559   26.4407 H   0  0  0  0  0  0  0  0  0  0  0  0
    8.0599   14.5559   24.9751 H   0  0  0  0  0  0  0  0  0  0  0  0
   10.6383    8.7546   23.7792 H   0  0  0  0  0  0  0  0  0  0  0  0
  1  6  1  0  0  0  0
  1  7  1  0  0  0  0
  2  6  1  0  0  0  0
  2  8  1  0  0  0  0
  3  6  1  0  0  0  0
  3  9  1  0  0  0  0
  4  7  1  0  0  0  0
  4  9  1  0  0  0  0
  5  8  1  0  0  0  0
  5  9  1  0  0  0  0
  7 10  1  0  0  0  0
  8 10  1  0  0  0  0
  9 12  1  0  0  0  0
 10 11  1  0  0  0  0
 10 13  1  0  0  0  0
 11 14  1  0  0  0  0
 11 15  1  0  0  0  0
 11 16  1  0  0  0  0
  1 17  1  0  0  0  0
  1 18  1  0  0  0  0
  2 19  1  0  0  0  0
  2 20  1  0  0  0  0
  3 21  1  0  0  0  0
  3 22  1  0  0  0  0
  4 23  1  0  0  0  0
  4 24  1  0  0  0  0
  5 25  1  0  0  0  0
  5 26  1  0  0  0  0
  6 27  1  0  0  0  0
  7 28  1  0  0  0  0
  8 29  1  0  0  0  0
 12 30  1  0  0  0  0
 12 31  1  0  0  0  0
 13 32  1  0  0  0  0
M  END
> <id>
EN300-89655

> <smiles>
NC1(CC2CC3C1)CC(C2)C3(O)C(F)(F)F

> <IUPAC Name>
5-amino-2-(trifluoromethyl)adamantan-2-ol

> <CAS>
1251924-11-4

> <URL>
https://www.enaminestore.com/catalog/EN300-89655

> <ROCS_ShapeQuery>
x0812_0A_x1140_0A_x1097_0A_x0365_0A_x1097_0A_x0310_0A

> <ROCS_TanimotoCombo>
0.704 

> <ROCS_ShapeTanimoto>
0.248 

> <ROCS_ColorTanimoto>
0.456 

> <ROCS_RefTversky>
0.223 

> <ROCS_RefColorTversky>
0.537 

> <ROCS_RefTverskyCombo>
0.761 

> <ROCS_FitTversky>
1.827 

> <ROCS_FitColorTversky>
0.750 

> <ROCS_FitTverskyCombo>
2.576 

> <ROCS_ColorScore>
-8.009

> <ROCS_Overlap>
2258.782

> <ROCS_Rank>
307                 

$$$$
untitled-dbase-477717_5
  -OEChem-02092408543D

 24 25  0     1  0  0  0  0  0999 V2000
    9.1920   12.2161   24.9423 C   0  0  0  0  0  0  0  0  0  0  0  0
    7.8762   11.6585   25.5103 C   0  0  0  0  0  0  0  0  0  0  0  0
    7.8381   11.5077   23.1139 C   0  0  0  0  0  0  0  0  0  0  0  0
    9.4962   10.0127   23.8141 C   0  0  0  0  0  0  0  0  0  0  0  0
    9.2913   11.5121   23.5740 C   0  0  2  0  0  0  0  0  0  0  0  0
    7.3877   10.7593   24.3628 C   0  0  2  0  0  0  0  0  0  0  0  0
    5.9282   10.3807   24.4262 C   0  0  0  0  0  0  0  0  0  0  0  0
    5.0864   11.0007   27.5565 N   0  5  0  0  0  0  0  0  0  0  0  0
    5.6698    9.6587   25.6736 N   0  0  0  0  0  0  0  0  0  0  0  0
    5.3659   10.3622   26.6535 N   0  3  0  0  0  0  0  0  0  0  0  0
   10.2530   12.1031   22.6764 N   0  0  0  0  0  0  0  0  0  0  0  0
    8.2307    9.5807   24.3696 O   0  0  0  0  0  0  0  0  0  0  0  0
    9.1186   13.3051   24.8336 H   0  0  0  0  0  0  0  0  0  0  0  0
   10.0446   11.9968   25.5938 H   0  0  0  0  0  0  0  0  0  0  0  0
    8.0575   11.0926   26.4301 H   0  0  0  0  0  0  0  0  0  0  0  0
    7.1775   12.4749   25.7225 H   0  0  0  0  0  0  0  0  0  0  0  0
    7.3948   12.5039   23.0106 H   0  0  0  0  0  0  0  0  0  0  0  0
    7.6895   10.9348   22.1913 H   0  0  0  0  0  0  0  0  0  0  0  0
    9.6604    9.4517   22.8874 H   0  0  0  0  0  0  0  0  0  0  0  0
   10.3020    9.7848   24.5189 H   0  0  0  0  0  0  0  0  0  0  0  0
    5.6583    9.7417   23.5772 H   0  0  0  0  0  0  0  0  0  0  0  0
    5.2957   11.2755   24.3903 H   0  0  0  0  0  0  0  0  0  0  0  0
   10.9441   11.4224   22.4402 H   0  0  0  0  0  0  0  0  0  0  0  0
    9.7851   12.4094   21.8494 H   0  0  0  0  0  0  0  0  0  0  0  0
  1  2  1  0  0  0  0
  1  5  1  0  0  0  0
  2  6  1  0  0  0  0
  3  5  1  0  0  0  0
  3  6  1  0  0  0  0
  4  5  1  0  0  0  0
  4 12  1  0  0  0  0
  5 11  1  0  0  0  0
  6  7  1  0  0  0  0
  6 12  1  0  0  0  0
  7  9  1  0  0  0  0
  8 10  2  0  0  0  0
  9 10  2  0  0  0  0
  1 13  1  0  0  0  0
  1 14  1  0  0  0  0
  2 15  1  0  0  0  0
  2 16  1  0  0  0  0
  3 17  1  0  0  0  0
  3 18  1  0  0  0  0
  4 19  1  0  0  0  0
  4 20  1  0  0  0  0
  7 21  1  0  0  0  0
  7 22  1  0  0  0  0
 11 23  1  0  0  0  0
 11 24  1  0  0  0  0
M  CHG  2   8  -1  10   1
M  END
> <id>
EN300-39677364

> <smiles>
Cl.NC1(CCC2(CN=[N+]=[N-])C1)CO2

> <IUPAC Name>
1-(azidomethyl)-2-oxabicyclo[2.2.1]heptan-4-amine hydrochloride

> <CAS>
2839139-01-2

> <Purity>
95

> <URL>
https://www.enaminestore.com/catalog/EN300-39677364

> <ROCS_ShapeQuery>
x0812_0A_x1140_0A_x1097_0A_x0365_0A_x1097_0A_x0310_0A

> <ROCS_TanimotoCombo>
0.704 

> <ROCS_ShapeTanimoto>
0.211 

> <ROCS_ColorTanimoto>
0.493 

> <ROCS_RefTversky>
0.192 

> <ROCS_RefColorTversky>
0.545 

> <ROCS_RefTverskyCombo>
0.737 

> <ROCS_FitTversky>
1.866 

> <ROCS_FitColorTversky>
0.837 

> <ROCS_FitTverskyCombo>
2.703 

> <ROCS_ColorScore>
-8.096

> <ROCS_Overlap>
1940.617

> <ROCS_Rank>
308                 

$$$$
untitled-dbase-465294_5
  -OEChem-02092408543D

 24 25  0     1  0  0  0  0  0999 V2000
    9.1920   12.2161   24.9423 C   0  0  0  0  0  0  0  0  0  0  0  0
    7.8762   11.6585   25.5103 C   0  0  0  0  0  0  0  0  0  0  0  0
    7.8381   11.5077   23.1139 C   0  0  0  0  0  0  0  0  0  0  0  0
    9.4962   10.0127   23.8141 C   0  0  0  0  0  0  0  0  0  0  0  0
    9.2913   11.5121   23.5740 C   0  0  2  0  0  0  0  0  0  0  0  0
    7.3877   10.7593   24.3628 C   0  0  2  0  0  0  0  0  0  0  0  0
    5.9282   10.3807   24.4262 C   0  0  0  0  0  0  0  0  0  0  0  0
    5.0864   11.0007   27.5565 N   0  5  0  0  0  0  0  0  0  0  0  0
    5.6698    9.6587   25.6736 N   0  0  0  0  0  0  0  0  0  0  0  0
    5.3659   10.3622   26.6535 N   0  3  0  0  0  0  0  0  0  0  0  0
   10.2530   12.1031   22.6764 N   0  0  0  0  0  0  0  0  0  0  0  0
    8.2307    9.5807   24.3696 O   0  0  0  0  0  0  0  0  0  0  0  0
    9.1186   13.3051   24.8336 H   0  0  0  0  0  0  0  0  0  0  0  0
   10.0446   11.9968   25.5938 H   0  0  0  0  0  0  0  0  0  0  0  0
    8.0575   11.0926   26.4301 H   0  0  0  0  0  0  0  0  0  0  0  0
    7.1775   12.4749   25.7225 H   0  0  0  0  0  0  0  0  0  0  0  0
    7.3948   12.5039   23.0106 H   0  0  0  0  0  0  0  0  0  0  0  0
    7.6895   10.9348   22.1913 H   0  0  0  0  0  0  0  0  0  0  0  0
    9.6604    9.4517   22.8874 H   0  0  0  0  0  0  0  0  0  0  0  0
   10.3020    9.7848   24.5189 H   0  0  0  0  0  0  0  0  0  0  0  0
    5.6583    9.7417   23.5772 H   0  0  0  0  0  0  0  0  0  0  0  0
    5.2957   11.2755   24.3903 H   0  0  0  0  0  0  0  0  0  0  0  0
   10.9441   11.4224   22.4402 H   0  0  0  0  0  0  0  0  0  0  0  0
    9.7851   12.4094   21.8494 H   0  0  0  0  0  0  0  0  0  0  0  0
  1  2  1  0  0  0  0
  1  5  1  0  0  0  0
  2  6  1  0  0  0  0
  3  5  1  0  0  0  0
  3  6  1  0  0  0  0
  4  5  1  0  0  0  0
  4 12  1  0  0  0  0
  5 11  1  0  0  0  0
  6  7  1  0  0  0  0
  6 12  1  0  0  0  0
  7  9  1  0  0  0  0
  8 10  2  0  0  0  0
  9 10  2  0  0  0  0
  1 13  1  0  0  0  0
  1 14  1  0  0  0  0
  2 15  1  0  0  0  0
  2 16  1  0  0  0  0
  3 17  1  0  0  0  0
  3 18  1  0  0  0  0
  4 19  1  0  0  0  0
  4 20  1  0  0  0  0
  7 21  1  0  0  0  0
  7 22  1  0  0  0  0
 11 23  1  0  0  0  0
 11 24  1  0  0  0  0
M  CHG  2   8  -1  10   1
M  END
> <id>
EN300-37463141

> <smiles>
NC1(CCC2(CN=[N+]=[N-])C1)CO2

> <IUPAC Name>
1-(azidomethyl)-2-oxabicyclo[2.2.1]heptan-4-amine

> <URL>
https://www.enaminestore.com/catalog/EN300-37463141

> <ROCS_ShapeQuery>
x0812_0A_x1140_0A_x1097_0A_x0365_0A_x1097_0A_x0310_0A

> <ROCS_TanimotoCombo>
0.704 

> <ROCS_ShapeTanimoto>
0.211 

> <ROCS_ColorTanimoto>
0.493 

> <ROCS_RefTversky>
0.192 

> <ROCS_RefColorTversky>
0.545 

> <ROCS_RefTverskyCombo>
0.737 

> <ROCS_FitTversky>
1.866 

> <ROCS_FitColorTversky>
0.837 

> <ROCS_FitTverskyCombo>
2.703 

> <ROCS_ColorScore>
-8.096

> <ROCS_Overlap>
1940.617

> <ROCS_Rank>
309                 

$$$$
untitled-dbase-396299_5
  -OEChem-02092408543D

 42 43  0     0  0  0  0  0  0999 V2000
   10.5693   12.1862   21.4519 C   0  0  0  0  0  0  0  0  0  0  0  0
    7.9455   11.9627   23.0070 C   0  0  0  0  0  0  0  0  0  0  0  0
    9.3894   12.0754   25.0409 C   0  0  0  0  0  0  0  0  0  0  0  0
    6.9088   11.1298   23.7707 C   0  0  0  0  0  0  0  0  0  0  0  0
    8.3669   11.2471   25.8283 C   0  0  0  0  0  0  0  0  0  0  0  0
    9.5632   10.1377   23.4931 C   0  0  0  0  0  0  0  0  0  0  0  0
    9.3515   11.6591   23.5590 C   0  0  0  0  0  0  0  0  0  0  0  0
    7.6065   10.3116   24.8717 C   0  0  0  0  0  0  0  0  0  0  0  0
   10.2321   14.2480   19.5063 C   0  0  0  0  0  0  0  0  0  0  0  0
   12.7414   14.3206   19.4194 C   0  0  0  0  0  0  0  0  0  0  0  0
   11.5272   12.2243   18.7563 C   0  0  0  0  0  0  0  0  0  0  0  0
    6.6058    9.4465   25.6303 C   0  0  0  0  0  0  0  0  0  0  0  0
   11.5191   13.4425   19.6787 C   0  0  0  0  0  0  0  0  0  0  0  0
    5.6201   10.2718   26.2448 N   0  0  0  0  0  0  0  0  0  0  0  0
   10.3622   12.3597   22.8057 N   0  0  0  0  0  0  0  0  0  0  0  0
    9.9360   11.4299   20.7229 O   0  0  0  0  0  0  0  0  0  0  0  0
    8.5613    9.4339   24.2455 O   0  0  0  0  0  0  0  0  0  0  0  0
   11.5941   12.9882   21.0347 O   0  0  0  0  0  0  0  0  0  0  0  0
    7.8874   11.7244   21.9373 H   0  0  0  0  0  0  0  0  0  0  0  0
    7.7089   13.0295   23.1067 H   0  0  0  0  0  0  0  0  0  0  0  0
    9.1645   13.1435   25.1524 H   0  0  0  0  0  0  0  0  0  0  0  0
   10.3893   11.9170   25.4647 H   0  0  0  0  0  0  0  0  0  0  0  0
    6.1390   11.7858   24.1939 H   0  0  0  0  0  0  0  0  0  0  0  0
    6.4095   10.4576   23.0616 H   0  0  0  0  0  0  0  0  0  0  0  0
    8.9016   10.6586   26.5845 H   0  0  0  0  0  0  0  0  0  0  0  0
    7.6766   11.9111   26.3619 H   0  0  0  0  0  0  0  0  0  0  0  0
    9.5157    9.7718   22.4611 H   0  0  0  0  0  0  0  0  0  0  0  0
   10.5393    9.8509   23.9009 H   0  0  0  0  0  0  0  0  0  0  0  0
    9.3524   13.6212   19.6916 H   0  0  0  0  0  0  0  0  0  0  0  0
   10.1983   15.1048   20.1871 H   0  0  0  0  0  0  0  0  0  0  0  0
   10.1371   14.6181   18.4791 H   0  0  0  0  0  0  0  0  0  0  0  0
   13.6671   13.7467   19.5420 H   0  0  0  0  0  0  0  0  0  0  0  0
   12.7907   15.1439   20.1412 H   0  0  0  0  0  0  0  0  0  0  0  0
   12.7275   14.7446   18.4102 H   0  0  0  0  0  0  0  0  0  0  0  0
   12.4502   11.6464   18.8798 H   0  0  0  0  0  0  0  0  0  0  0  0
   10.6768   11.5636   18.9535 H   0  0  0  0  0  0  0  0  0  0  0  0
   11.4931   12.5315   17.7048 H   0  0  0  0  0  0  0  0  0  0  0  0
    6.1447    8.7737   24.9081 H   0  0  0  0  0  0  0  0  0  0  0  0
    7.1624    8.8904   26.3837 H   0  0  0  0  0  0  0  0  0  0  0  0
    5.6136   10.1222   27.2378 H   0  0  0  0  0  0  0  0  0  0  0  0
    5.8185   11.2395   26.0647 H   0  0  0  0  0  0  0  0  0  0  0  0
   10.9567   13.0195   23.3003 H   0  0  0  0  0  0  0  0  0  0  0  0
  1 15  1  0  0  0  0
  1 16  2  0  0  0  0
  1 18  1  0  0  0  0
  2  4  1  0  0  0  0
  2  7  1  0  0  0  0
  3  5  1  0  0  0  0
  3  7  1  0  0  0  0
  4  8  1  0  0  0  0
  5  8  1  0  0  0  0
  6  7  1  0  0  0  0
  6 17  1  0  0  0  0
  7 15  1  0  0  0  0
  8 12  1  0  0  0  0
  8 17  1  0  0  0  0
  9 13  1  0  0  0  0
 10 13  1  0  0  0  0
 11 13  1  0  0  0  0
 12 14  1  0  0  0  0
 13 18  1  0  0  0  0
  2 19  1  0  0  0  0
  2 20  1  0  0  0  0
  3 21  1  0  0  0  0
  3 22  1  0  0  0  0
  4 23  1  0  0  0  0
  4 24  1  0  0  0  0
  5 25  1  0  0  0  0
  5 26  1  0  0  0  0
  6 27  1  0  0  0  0
  6 28  1  0  0  0  0
  9 29  1  0  0  0  0
  9 30  1  0  0  0  0
  9 31  1  0  0  0  0
 10 32  1  0  0  0  0
 10 33  1  0  0  0  0
 10 34  1  0  0  0  0
 11 35  1  0  0  0  0
 11 36  1  0  0  0  0
 11 37  1  0  0  0  0
 12 38  1  0  0  0  0
 12 39  1  0  0  0  0
 14 40  1  0  0  0  0
 14 41  1  0  0  0  0
 15 42  1  0  0  0  0
M  END
> <id>
EN300-6503832

> <smiles>
CC(C)(C)OC(=O)NC1(CCC2(CN)CC1)CO2

> <MDLNUMBER>
MFCD28403792

> <IUPAC Name>
tert-butyl N-[1-(aminomethyl)-2-oxabicyclo[2.2.2]octan-4-yl]carbamate

> <CAS>
1417551-73-5

> <Purity>
95

> <URL>
https://www.enaminestore.com/catalog/EN300-6503832

> <ROCS_ShapeQuery>
x0812_0A_x1140_0A_x1097_0A_x0365_0A_x1097_0A_x0310_0A

> <ROCS_TanimotoCombo>
0.704 

> <ROCS_ShapeTanimoto>
0.227 

> <ROCS_ColorTanimoto>
0.477 

> <ROCS_RefTversky>
0.209 

> <ROCS_RefColorTversky>
0.586 

> <ROCS_RefTverskyCombo>
0.794 

> <ROCS_FitTversky>
1.639 

> <ROCS_FitColorTversky>
0.719 

> <ROCS_FitTverskyCombo>
2.359 

> <ROCS_ColorScore>
-8.773

> <ROCS_Overlap>
2110.646

> <ROCS_Rank>
310                 

$$$$
untitled-dbase-587053_5
  -OEChem-02092408543D

 42 43  0     0  0  0  0  0  0999 V2000
   10.5693   12.1862   21.4519 C   0  0  0  0  0  0  0  0  0  0  0  0
    7.9455   11.9627   23.0070 C   0  0  0  0  0  0  0  0  0  0  0  0
    9.3894   12.0754   25.0409 C   0  0  0  0  0  0  0  0  0  0  0  0
    6.9088   11.1298   23.7707 C   0  0  0  0  0  0  0  0  0  0  0  0
    8.3669   11.2471   25.8283 C   0  0  0  0  0  0  0  0  0  0  0  0
    9.5632   10.1377   23.4931 C   0  0  0  0  0  0  0  0  0  0  0  0
    9.3515   11.6591   23.5590 C   0  0  0  0  0  0  0  0  0  0  0  0
    7.6065   10.3116   24.8717 C   0  0  0  0  0  0  0  0  0  0  0  0
   10.2321   14.2480   19.5063 C   0  0  0  0  0  0  0  0  0  0  0  0
   12.7414   14.3206   19.4194 C   0  0  0  0  0  0  0  0  0  0  0  0
   11.5272   12.2243   18.7563 C   0  0  0  0  0  0  0  0  0  0  0  0
    6.6058    9.4465   25.6303 C   0  0  0  0  0  0  0  0  0  0  0  0
   11.5191   13.4425   19.6787 C   0  0  0  0  0  0  0  0  0  0  0  0
    5.6201   10.2718   26.2448 N   0  0  0  0  0  0  0  0  0  0  0  0
   10.3622   12.3597   22.8057 N   0  0  0  0  0  0  0  0  0  0  0  0
    9.9360   11.4299   20.7229 O   0  0  0  0  0  0  0  0  0  0  0  0
    8.5613    9.4339   24.2455 O   0  0  0  0  0  0  0  0  0  0  0  0
   11.5941   12.9882   21.0347 O   0  0  0  0  0  0  0  0  0  0  0  0
    7.8874   11.7244   21.9373 H   0  0  0  0  0  0  0  0  0  0  0  0
    7.7089   13.0295   23.1067 H   0  0  0  0  0  0  0  0  0  0  0  0
    9.1645   13.1435   25.1524 H   0  0  0  0  0  0  0  0  0  0  0  0
   10.3893   11.9170   25.4647 H   0  0  0  0  0  0  0  0  0  0  0  0
    6.1390   11.7858   24.1939 H   0  0  0  0  0  0  0  0  0  0  0  0
    6.4095   10.4576   23.0616 H   0  0  0  0  0  0  0  0  0  0  0  0
    8.9016   10.6586   26.5845 H   0  0  0  0  0  0  0  0  0  0  0  0
    7.6766   11.9111   26.3619 H   0  0  0  0  0  0  0  0  0  0  0  0
    9.5157    9.7718   22.4611 H   0  0  0  0  0  0  0  0  0  0  0  0
   10.5393    9.8509   23.9009 H   0  0  0  0  0  0  0  0  0  0  0  0
    9.3524   13.6212   19.6916 H   0  0  0  0  0  0  0  0  0  0  0  0
   10.1983   15.1048   20.1871 H   0  0  0  0  0  0  0  0  0  0  0  0
   10.1371   14.6181   18.4791 H   0  0  0  0  0  0  0  0  0  0  0  0
   13.6671   13.7467   19.5420 H   0  0  0  0  0  0  0  0  0  0  0  0
   12.7907   15.1439   20.1412 H   0  0  0  0  0  0  0  0  0  0  0  0
   12.7275   14.7446   18.4102 H   0  0  0  0  0  0  0  0  0  0  0  0
   12.4502   11.6464   18.8798 H   0  0  0  0  0  0  0  0  0  0  0  0
   10.6768   11.5636   18.9535 H   0  0  0  0  0  0  0  0  0  0  0  0
   11.4931   12.5315   17.7048 H   0  0  0  0  0  0  0  0  0  0  0  0
    6.1447    8.7737   24.9081 H   0  0  0  0  0  0  0  0  0  0  0  0
    7.1624    8.8904   26.3837 H   0  0  0  0  0  0  0  0  0  0  0  0
    5.6136   10.1222   27.2378 H   0  0  0  0  0  0  0  0  0  0  0  0
    5.8185   11.2395   26.0647 H   0  0  0  0  0  0  0  0  0  0  0  0
   10.9567   13.0195   23.3003 H   0  0  0  0  0  0  0  0  0  0  0  0
  1 15  1  0  0  0  0
  1 16  2  0  0  0  0
  1 18  1  0  0  0  0
  2  4  1  0  0  0  0
  2  7  1  0  0  0  0
  3  5  1  0  0  0  0
  3  7  1  0  0  0  0
  4  8  1  0  0  0  0
  5  8  1  0  0  0  0
  6  7  1  0  0  0  0
  6 17  1  0  0  0  0
  7 15  1  0  0  0  0
  8 12  1  0  0  0  0
  8 17  1  0  0  0  0
  9 13  1  0  0  0  0
 10 13  1  0  0  0  0
 11 13  1  0  0  0  0
 12 14  1  0  0  0  0
 13 18  1  0  0  0  0
  2 19  1  0  0  0  0
  2 20  1  0  0  0  0
  3 21  1  0  0  0  0
  3 22  1  0  0  0  0
  4 23  1  0  0  0  0
  4 24  1  0  0  0  0
  5 25  1  0  0  0  0
  5 26  1  0  0  0  0
  6 27  1  0  0  0  0
  6 28  1  0  0  0  0
  9 29  1  0  0  0  0
  9 30  1  0  0  0  0
  9 31  1  0  0  0  0
 10 32  1  0  0  0  0
 10 33  1  0  0  0  0
 10 34  1  0  0  0  0
 11 35  1  0  0  0  0
 11 36  1  0  0  0  0
 11 37  1  0  0  0  0
 12 38  1  0  0  0  0
 12 39  1  0  0  0  0
 14 40  1  0  0  0  0
 14 41  1  0  0  0  0
 15 42  1  0  0  0  0
M  END
> <id>
EN300-44795030

> <smiles>
Cl.CC(C)(C)OC(=O)NC1(CCC2(CN)CC1)CO2

> <IUPAC Name>
tert-butyl N-[1-(aminomethyl)-2-oxabicyclo[2.2.2]octan-4-yl]carbamate hydrochloride

> <Purity>
95

> <URL>
https://www.enaminestore.com/catalog/EN300-44795030

> <ROCS_ShapeQuery>
x0812_0A_x1140_0A_x1097_0A_x0365_0A_x1097_0A_x0310_0A

> <ROCS_TanimotoCombo>
0.704 

> <ROCS_ShapeTanimoto>
0.227 

> <ROCS_ColorTanimoto>
0.477 

> <ROCS_RefTversky>
0.209 

> <ROCS_RefColorTversky>
0.586 

> <ROCS_RefTverskyCombo>
0.794 

> <ROCS_FitTversky>
1.639 

> <ROCS_FitColorTversky>
0.719 

> <ROCS_FitTverskyCombo>
2.359 

> <ROCS_ColorScore>
-8.773

> <ROCS_Overlap>
2110.646

> <ROCS_Rank>
311                 

$$$$
untitled-dbase-323951_1
  -OEChem-02092408543D

 29 30  0     1  0  0  0  0  0999 V2000
    6.9262   11.0352   26.4614 C   0  0  0  0  0  0  0  0  0  0  0  0
    8.5966   12.6915   24.0509 C   0  0  0  0  0  0  0  0  0  0  0  0
    7.4530   12.0558   23.2458 C   0  0  0  0  0  0  0  0  0  0  0  0
    9.2706   10.8200   25.6456 C   0  0  0  0  0  0  0  0  0  0  0  0
    7.2986    9.7520   24.3367 C   0  0  0  0  0  0  0  0  0  0  0  0
    7.8821   10.1611   25.6996 C   0  0  2  0  0  0  0  0  0  0  0  0
    9.5830   11.5462   24.3245 C   0  0  1  0  0  0  0  0  0  0  0  0
    7.8162   10.5690   23.1366 C   0  0  2  0  0  0  0  0  0  0  0  0
    9.3424   10.6237   23.1301 C   0  0  2  0  0  0  0  0  0  0  0  0
    4.7219   11.1170   27.3087 C   0  0  0  0  0  0  0  0  0  0  0  0
    7.2046   12.1492   26.8841 O   0  0  0  0  0  0  0  0  0  0  0  0
    9.9543    9.3594   23.2772 O   0  0  0  0  0  0  0  0  0  0  0  0
    5.7311   10.3933   26.5975 O   0  0  0  0  0  0  0  0  0  0  0  0
    9.0787   13.4661   23.4425 H   0  0  0  0  0  0  0  0  0  0  0  0
    8.2413   13.1744   24.9664 H   0  0  0  0  0  0  0  0  0  0  0  0
    6.4731   12.2259   23.7003 H   0  0  0  0  0  0  0  0  0  0  0  0
    7.4249   12.5066   22.2461 H   0  0  0  0  0  0  0  0  0  0  0  0
    9.4025   11.5176   26.4825 H   0  0  0  0  0  0  0  0  0  0  0  0
   10.0257   10.0356   25.7882 H   0  0  0  0  0  0  0  0  0  0  0  0
    7.5578    8.6992   24.1613 H   0  0  0  0  0  0  0  0  0  0  0  0
    6.2021    9.7900   24.3569 H   0  0  0  0  0  0  0  0  0  0  0  0
    7.9628    9.2590   26.3216 H   0  0  0  0  0  0  0  0  0  0  0  0
   10.6174   11.9049   24.3561 H   0  0  0  0  0  0  0  0  0  0  0  0
    7.4233   10.1271   22.2147 H   0  0  0  0  0  0  0  0  0  0  0  0
    9.7158   11.0835   22.2065 H   0  0  0  0  0  0  0  0  0  0  0  0
    3.8102   10.5168   27.3605 H   0  0  0  0  0  0  0  0  0  0  0  0
    4.5205   12.0615   26.7969 H   0  0  0  0  0  0  0  0  0  0  0  0
    5.0783   11.3222   28.3210 H   0  0  0  0  0  0  0  0  0  0  0  0
    9.7495    8.8442   22.4769 H   0  0  0  0  0  0  0  0  0  0  0  0
  1  6  1  1  0  0  0
  1 11  2  0  0  0  0
  1 13  1  0  0  0  0
  2  3  1  0  0  0  0
  2  7  1  1  0  0  0
  3  8  1  1  0  0  0
  4  6  1  0  0  0  0
  4  7  1  0  0  0  0
  5  6  1  0  0  0  0
  5  8  1  0  0  0  0
  7  9  1  0  0  0  0
  8  9  1  0  0  0  0
  9 12  1  6  0  0  0
 10 13  1  0  0  0  0
  2 14  1  0  0  0  0
  2 15  1  0  0  0  0
  3 16  1  0  0  0  0
  3 17  1  0  0  0  0
  4 18  1  0  0  0  0
  4 19  1  0  0  0  0
  5 20  1  0  0  0  0
  5 21  1  0  0  0  0
  6 22  1  0  0  0  0
  7 23  1  0  0  0  0
  8 24  1  0  0  0  0
  9 25  1  0  0  0  0
 10 26  1  0  0  0  0
 10 27  1  0  0  0  0
 10 28  1  0  0  0  0
 12 29  1  0  0  0  0
M  END
> <id>
EN300-7429814

> <smiles>
COC(=O)[C@@H]1C[C@@H]2CC[C@H](C1)[C@@H]2O

> <MDLNUMBER>
MFCD32069303

> <IUPAC Name>
methyl (1R,3S,5S,8R)-8-hydroxybicyclo[3.2.1]octane-3-carboxylate

> <CAS>
2375248-91-0

> <Purity>
95

> <URL>
https://www.enaminestore.com/catalog/EN300-7429814

> <ROCS_ShapeQuery>
x0812_0A_x1140_0A_x1097_0A_x0365_0A_x1097_0A_x0310_0A

> <ROCS_TanimotoCombo>
0.703 

> <ROCS_ShapeTanimoto>
0.213 

> <ROCS_ColorTanimoto>
0.490 

> <ROCS_RefTversky>
0.195 

> <ROCS_RefColorTversky>
0.530 

> <ROCS_RefTverskyCombo>
0.725 

> <ROCS_FitTversky>
1.838 

> <ROCS_FitColorTversky>
0.866 

> <ROCS_FitTverskyCombo>
2.704 

> <ROCS_ColorScore>
-7.855

> <ROCS_Overlap>
1967.060

> <ROCS_Rank>
312                 

$$$$
untitled-dbase-282240_2
  -OEChem-02092408543D

 27 28  0     0  0  0  0  0  0999 V2000
    9.8993   11.9867   22.4182 C   0  0  0  0  0  0  0  0  0  0  0  0
    8.9382   11.9218   24.9306 C   0  0  0  0  0  0  0  0  0  0  0  0
    7.4996   11.4091   23.4842 C   0  0  0  0  0  0  0  0  0  0  0  0
    8.3784    9.5891   24.7900 C   0  0  0  0  0  0  0  0  0  0  0  0
    9.0598   11.3281   23.4907 C   0  0  0  0  0  0  0  0  0  0  0  0
    7.7189   10.9516   24.9582 C   0  0  0  0  0  0  0  0  0  0  0  0
   10.4625   14.8590   21.2790 C   0  0  0  0  0  0  0  0  0  0  0  0
   11.3097   13.8377   22.0077 C   0  0  0  0  0  0  0  0  0  0  0  0
    6.6384   11.0745   25.9888 C   0  0  0  0  0  0  0  0  0  0  0  0
    9.3344    9.8896   23.7152 N   0  0  0  0  0  0  0  0  0  0  0  0
   10.0200   11.5536   21.2802 O   0  0  0  0  0  0  0  0  0  0  0  0
   10.4816   13.1120   22.9218 O   0  0  0  0  0  0  0  0  0  0  0  0
    6.0335   12.2816   25.9214 F   0  0  0  0  0  0  0  0  0  0  0  0
    5.6884   10.1285   25.8161 F   0  0  0  0  0  0  0  0  0  0  0  0
    7.1362   10.9337   27.2378 F   0  0  0  0  0  0  0  0  0  0  0  0
    9.7548   11.7078   25.6285 H   0  0  0  0  0  0  0  0  0  0  0  0
    8.7031   12.9915   24.9893 H   0  0  0  0  0  0  0  0  0  0  0  0
    7.0732   12.4107   23.3503 H   0  0  0  0  0  0  0  0  0  0  0  0
    6.9672   10.7144   22.8257 H   0  0  0  0  0  0  0  0  0  0  0  0
    8.8906    9.2619   25.7014 H   0  0  0  0  0  0  0  0  0  0  0  0
    7.6693    8.8167   24.4755 H   0  0  0  0  0  0  0  0  0  0  0  0
    9.6632   14.3712   20.7141 H   0  0  0  0  0  0  0  0  0  0  0  0
   10.0154   15.5650   21.9865 H   0  0  0  0  0  0  0  0  0  0  0  0
   11.0758   15.4465   20.5878 H   0  0  0  0  0  0  0  0  0  0  0  0
   12.1071   14.3320   22.5706 H   0  0  0  0  0  0  0  0  0  0  0  0
   11.7550   13.1326   21.2995 H   0  0  0  0  0  0  0  0  0  0  0  0
   10.2817    9.6945   24.0382 H   0  0  0  0  0  0  0  0  0  0  0  0
  1  5  1  0  0  0  0
  1 11  2  0  0  0  0
  1 12  1  0  0  0  0
  2  5  1  0  0  0  0
  2  6  1  0  0  0  0
  3  5  1  0  0  0  0
  3  6  1  0  0  0  0
  4  6  1  0  0  0  0
  4 10  1  0  0  0  0
  5 10  1  0  0  0  0
  6  9  1  0  0  0  0
  7  8  1  0  0  0  0
  8 12  1  0  0  0  0
  9 13  1  0  0  0  0
  9 14  1  0  0  0  0
  9 15  1  0  0  0  0
  2 16  1  0  0  0  0
  2 17  1  0  0  0  0
  3 18  1  0  0  0  0
  3 19  1  0  0  0  0
  4 20  1  0  0  0  0
  4 21  1  0  0  0  0
  7 22  1  0  0  0  0
  7 23  1  0  0  0  0
  7 24  1  0  0  0  0
  8 25  1  0  0  0  0
  8 26  1  0  0  0  0
 10 27  1  0  0  0  0
M  END
> <id>
EN300-6512058

> <smiles>
CCOC(=O)C1(CC2(C1)C(F)(F)F)NC2

> <IUPAC Name>
ethyl 4-(trifluoromethyl)-2-azabicyclo[2.1.1]hexane-1-carboxylate

> <CAS>
2248286-16-8

> <URL>
https://www.enaminestore.com/catalog/EN300-6512058

> <ROCS_ShapeQuery>
x0812_0A_x1140_0A_x1097_0A_x0365_0A_x1097_0A_x0310_0A

> <ROCS_TanimotoCombo>
0.703 

> <ROCS_ShapeTanimoto>
0.259 

> <ROCS_ColorTanimoto>
0.445 

> <ROCS_RefTversky>
0.229 

> <ROCS_RefColorTversky>
0.517 

> <ROCS_RefTverskyCombo>
0.746 

> <ROCS_FitTversky>
1.977 

> <ROCS_FitColorTversky>
0.761 

> <ROCS_FitTverskyCombo>
2.738 

> <ROCS_ColorScore>
-7.687

> <ROCS_Overlap>
2319.119

> <ROCS_Rank>
313                 

$$$$
untitled-dbase-548859_0
  -OEChem-02092408543D

 35 37  0     0  0  0  0  0  0999 V2000
   10.9904   14.7376   22.3193 C   0  0  0  0  0  0  0  0  0  0  0  0
   10.8598   13.4068   22.3772 C   0  0  0  0  0  0  0  0  0  0  0  0
   12.2360   15.3598   22.8070 C   0  0  0  0  0  0  0  0  0  0  0  0
    6.7058   11.2429   24.7807 C   0  0  0  0  0  0  0  0  0  0  0  0
    8.9610   10.9382   25.8338 C   0  0  0  0  0  0  0  0  0  0  0  0
    8.1262    9.2736   24.1545 C   0  0  0  0  0  0  0  0  0  0  0  0
    8.5867   12.7920   24.1866 C   0  0  0  0  0  0  0  0  0  0  0  0
    7.7499   11.1237   22.5035 C   0  0  0  0  0  0  0  0  0  0  0  0
   10.0101   10.8181   23.5589 C   0  0  0  0  0  0  0  0  0  0  0  0
    7.9461   11.9736   25.3213 C   0  0  0  0  0  0  0  0  0  0  0  0
    7.1072   10.3007   23.6336 C   0  0  0  0  0  0  0  0  0  0  0  0
    9.3736    9.9944   24.6921 C   0  0  0  0  0  0  0  0  0  0  0  0
    9.0055   11.8647   23.0213 C   0  0  0  0  0  0  0  0  0  0  0  0
    9.6422   12.6822   21.8943 C   0  0  0  0  0  0  0  0  0  0  0  0
   12.4089   16.5723   22.7782 O   0  0  0  0  0  0  0  0  0  0  0  0
   10.2144   15.3841   21.9275 H   0  0  0  0  0  0  0  0  0  0  0  0
   11.6660   12.7943   22.7742 H   0  0  0  0  0  0  0  0  0  0  0  0
   13.0043   14.6732   23.2001 H   0  0  0  0  0  0  0  0  0  0  0  0
    6.2280   10.6707   25.5854 H   0  0  0  0  0  0  0  0  0  0  0  0
    5.9665   11.9715   24.4259 H   0  0  0  0  0  0  0  0  0  0  0  0
    9.8449   11.4476   26.2370 H   0  0  0  0  0  0  0  0  0  0  0  0
    8.5232   10.3607   26.6572 H   0  0  0  0  0  0  0  0  0  0  0  0
    7.6735    8.6666   24.9481 H   0  0  0  0  0  0  0  0  0  0  0  0
    8.4094    8.5848   23.3492 H   0  0  0  0  0  0  0  0  0  0  0  0
    7.8756   13.5494   23.8322 H   0  0  0  0  0  0  0  0  0  0  0  0
    9.4593   13.3353   24.5717 H   0  0  0  0  0  0  0  0  0  0  0  0
    8.0172   10.4602   21.6709 H   0  0  0  0  0  0  0  0  0  0  0  0
    7.0198   11.8431   22.1107 H   0  0  0  0  0  0  0  0  0  0  0  0
   10.9154   11.3164   23.9294 H   0  0  0  0  0  0  0  0  0  0  0  0
   10.3286   10.1475   22.7504 H   0  0  0  0  0  0  0  0  0  0  0  0
    7.6543   12.6417   26.1394 H   0  0  0  0  0  0  0  0  0  0  0  0
    6.2202    9.7815   23.2539 H   0  0  0  0  0  0  0  0  0  0  0  0
   10.0950    9.2580   25.0636 H   0  0  0  0  0  0  0  0  0  0  0  0
    8.8945   13.3741   21.4982 H   0  0  0  0  0  0  0  0  0  0  0  0
    9.9248   12.0070   21.0831 H   0  0  0  0  0  0  0  0  0  0  0  0
  1  2  2  0  0  0  0
  1  3  1  4  0  0  0
  2 14  1  0  0  0  0
  3 15  2  0  0  0  0
  4 10  1  0  0  0  0
  4 11  1  0  0  0  0
  5 10  1  0  0  0  0
  5 12  1  0  0  0  0
  6 11  1  0  0  0  0
  6 12  1  0  0  0  0
  7 10  1  0  0  0  0
  7 13  1  0  0  0  0
  8 11  1  0  0  0  0
  8 13  1  0  0  0  0
  9 12  1  0  0  0  0
  9 13  1  0  0  0  0
 13 14  1  0  0  0  0
  1 16  1  0  0  0  0
  2 17  1  0  0  0  0
  3 18  1  0  0  0  0
  4 19  1  0  0  0  0
  4 20  1  0  0  0  0
  5 21  1  0  0  0  0
  5 22  1  0  0  0  0
  6 23  1  0  0  0  0
  6 24  1  0  0  0  0
  7 25  1  0  0  0  0
  7 26  1  0  0  0  0
  8 27  1  0  0  0  0
  8 28  1  0  0  0  0
  9 29  1  0  0  0  0
  9 30  1  0  0  0  0
 10 31  1  0  0  0  0
 11 32  1  0  0  0  0
 12 33  1  0  0  0  0
 14 34  1  0  0  0  0
 14 35  1  0  0  0  0
M  END
> <id>
EN300-1797502

> <smiles>
O=CC=CCC1(CC2CC3CC(C2)C1)C3

> <IUPAC Name>
4-(adamantan-1-yl)but-2-enal

> <CAS>
1956364-04-7

> <URL>
https://www.enaminestore.com/catalog/EN300-1797502

> <ROCS_ShapeQuery>
x0812_0A_x1140_0A_x1097_0A_x0365_0A_x1097_0A_x0310_0A

> <ROCS_TanimotoCombo>
0.703 

> <ROCS_ShapeTanimoto>
0.229 

> <ROCS_ColorTanimoto>
0.475 

> <ROCS_RefTversky>
0.207 

> <ROCS_RefColorTversky>
0.493 

> <ROCS_RefTverskyCombo>
0.701 

> <ROCS_FitTversky>
1.816 

> <ROCS_FitColorTversky>
0.927 

> <ROCS_FitTverskyCombo>
2.743 

> <ROCS_ColorScore>
-7.274

> <ROCS_Overlap>
2098.455

> <ROCS_Rank>
314                 

$$$$
untitled-dbase-486462_5
  -OEChem-02092408543D

 23 24  0     0  0  0  0  0  0999 V2000
    9.0151   11.7682   25.1525 C   0  0  0  0  0  0  0  0  0  0  0  0
    7.5904   11.8433   23.6184 C   0  0  0  0  0  0  0  0  0  0  0  0
    9.1579    9.9521   23.5003 C   0  0  0  0  0  0  0  0  0  0  0  0
    9.1249   11.4925   23.6065 C   0  0  0  0  0  0  0  0  0  0  0  0
    7.7032   10.9275   24.8993 C   0  0  0  0  0  0  0  0  0  0  0  0
   10.0893   12.2529   22.7472 C   0  0  0  0  0  0  0  0  0  0  0  0
    6.6041   10.8740   25.9164 C   0  0  0  0  0  0  0  0  0  0  0  0
   12.2463   10.7670   22.7866 O   0  0  0  0  0  0  0  0  0  0  0  0
   11.8464   12.3954   24.6848 O   0  0  0  0  0  0  0  0  0  0  0  0
    8.1260    9.6131   24.4423 O   0  0  0  0  0  0  0  0  0  0  0  0
    6.1490   12.1368   26.1534 F   0  0  0  0  0  0  0  0  0  0  0  0
   12.6041   13.1425   22.5139 F   0  0  0  0  0  0  0  0  0  0  0  0
   11.7610   12.0391   23.2827 S   0  0  0  0  0  0  0  0  0  0  0  0
    9.7741   11.2946   25.7820 H   0  0  0  0  0  0  0  0  0  0  0  0
    8.8854   12.8110   25.4626 H   0  0  0  0  0  0  0  0  0  0  0  0
    7.3223   12.8933   23.7795 H   0  0  0  0  0  0  0  0  0  0  0  0
    6.9975   11.4406   22.7921 H   0  0  0  0  0  0  0  0  0  0  0  0
    8.8841    9.5908   22.5049 H   0  0  0  0  0  0  0  0  0  0  0  0
   10.1111    9.5258   23.8257 H   0  0  0  0  0  0  0  0  0  0  0  0
    9.8882   13.3325   22.7707 H   0  0  0  0  0  0  0  0  0  0  0  0
   10.0499   11.9193   21.7016 H   0  0  0  0  0  0  0  0  0  0  0  0
    6.9519   10.4618   26.8724 H   0  0  0  0  0  0  0  0  0  0  0  0
    5.7533   10.2749   25.5668 H   0  0  0  0  0  0  0  0  0  0  0  0
  1  4  1  0  0  0  0
  1  5  1  0  0  0  0
  2  4  1  0  0  0  0
  2  5  1  0  0  0  0
  3  4  1  0  0  0  0
  3 10  1  0  0  0  0
  4  6  1  0  0  0  0
  5  7  1  0  0  0  0
  5 10  1  0  0  0  0
  6 13  1  0  0  0  0
  7 11  1  0  0  0  0
  8 13  2  0  0  0  0
  9 13  2  0  0  0  0
 12 13  1  0  0  0  0
  1 14  1  0  0  0  0
  1 15  1  0  0  0  0
  2 16  1  0  0  0  0
  2 17  1  0  0  0  0
  3 18  1  0  0  0  0
  3 19  1  0  0  0  0
  6 20  1  0  0  0  0
  6 21  1  0  0  0  0
  7 22  1  0  0  0  0
  7 23  1  0  0  0  0
M  END
> <id>
EN300-26865913

> <smiles>
FCC1(CC2(CS(=O)(=O)F)C1)OC2

> <IUPAC Name>
[1-(fluoromethyl)-2-oxabicyclo[2.1.1]hexan-4-yl]methanesulfonyl fluoride

> <CAS>
2648957-01-9

> <URL>
https://www.enaminestore.com/catalog/EN300-26865913

> <ROCS_ShapeQuery>
x0812_0A_x1140_0A_x1097_0A_x0365_0A_x1097_0A_x0310_0A

> <ROCS_TanimotoCombo>
0.703 

> <ROCS_ShapeTanimoto>
0.230 

> <ROCS_ColorTanimoto>
0.473 

> <ROCS_RefTversky>
0.207 

> <ROCS_RefColorTversky>
0.498 

> <ROCS_RefTverskyCombo>
0.705 

> <ROCS_FitTversky>
1.979 

> <ROCS_FitColorTversky>
0.903 

> <ROCS_FitTverskyCombo>
2.882 

> <ROCS_ColorScore>
-7.356

> <ROCS_Overlap>
2090.481

> <ROCS_Rank>
315                 

$$$$
untitled-dbase-510627_7
  -OEChem-02092408543D

 45 48  0     1  0  0  0  0  0999 V2000
    8.9881    5.6469   18.4771 C   0  0  0  0  0  0  0  0  0  0  0  0
    9.8481    6.2331   17.5485 C   0  0  0  0  0  0  0  0  0  0  0  0
    8.1319    6.4451   19.2357 C   0  0  0  0  0  0  0  0  0  0  0  0
    9.8520    7.6176   17.3785 C   0  0  0  0  0  0  0  0  0  0  0  0
    8.1358    7.8295   19.0657 C   0  0  0  0  0  0  0  0  0  0  0  0
    8.9958    8.4158   18.1371 C   0  0  0  0  0  0  0  0  0  0  0  0
    9.6832   10.8261   20.0353 C   0  0  0  0  0  0  0  0  0  0  0  0
    7.2504   11.3994   25.3795 C   0  0  0  0  0  0  0  0  0  0  0  0
    8.7281   11.5094   25.7933 C   0  0  0  0  0  0  0  0  0  0  0  0
    7.8176    9.5905   23.7525 C   0  0  0  0  0  0  0  0  0  0  0  0
    7.8680   11.7218   21.5407 C   0  0  0  0  0  0  0  0  0  0  0  0
   10.1632   11.9593   22.1952 C   0  0  0  0  0  0  0  0  0  0  0  0
    7.1370   10.9656   23.9026 C   0  0  2  0  0  0  0  0  0  0  0  0
    9.6364   11.1227   24.6065 C   0  0  2  0  0  0  0  0  0  0  0  0
    7.8566   12.0267   23.0382 C   0  0  1  0  0  0  0  0  0  0  0  0
    9.3422   12.1330   23.4677 C   0  0  2  0  0  0  0  0  0  0  0  0
    9.2749    9.6697   24.2260 C   0  0  2  0  0  0  0  0  0  0  0  0
    8.9996    9.9052   17.9550 C   0  0  0  0  0  0  0  0  0  0  0  0
    9.2497   11.4273   21.2062 N   0  0  0  0  0  0  0  0  0  0  0  0
   10.8608   10.5876   19.7766 O   0  0  0  0  0  0  0  0  0  0  0  0
   10.1323    9.1501   23.2201 O   0  0  0  0  0  0  0  0  0  0  0  0
    8.6446   10.5286   19.1943 O   0  0  0  0  0  0  0  0  0  0  0  0
    8.9843    4.5687   18.6084 H   0  0  0  0  0  0  0  0  0  0  0  0
   10.5141    5.6117   16.9570 H   0  0  0  0  0  0  0  0  0  0  0  0
    7.4614    5.9889   19.9580 H   0  0  0  0  0  0  0  0  0  0  0  0
   10.5257    8.0656   16.6528 H   0  0  0  0  0  0  0  0  0  0  0  0
    7.4653    8.4435   19.6612 H   0  0  0  0  0  0  0  0  0  0  0  0
    6.7381   10.6766   26.0260 H   0  0  0  0  0  0  0  0  0  0  0  0
    6.7503   12.3634   25.5318 H   0  0  0  0  0  0  0  0  0  0  0  0
    8.9462   12.5318   26.1247 H   0  0  0  0  0  0  0  0  0  0  0  0
    8.9232   10.8561   26.6523 H   0  0  0  0  0  0  0  0  0  0  0  0
    7.2807    8.8576   24.3684 H   0  0  0  0  0  0  0  0  0  0  0  0
    7.7506    9.2236   22.7225 H   0  0  0  0  0  0  0  0  0  0  0  0
    7.2021   10.9079   21.2399 H   0  0  0  0  0  0  0  0  0  0  0  0
    7.5842   12.6119   20.9667 H   0  0  0  0  0  0  0  0  0  0  0  0
   10.4943   12.9360   21.8217 H   0  0  0  0  0  0  0  0  0  0  0  0
   11.0540   11.3345   22.3026 H   0  0  0  0  0  0  0  0  0  0  0  0
    6.0825   10.8932   23.6135 H   0  0  0  0  0  0  0  0  0  0  0  0
   10.6923   11.1908   24.8918 H   0  0  0  0  0  0  0  0  0  0  0  0
    7.3650   12.9965   23.1927 H   0  0  0  0  0  0  0  0  0  0  0  0
    9.5307   13.1442   23.8540 H   0  0  0  0  0  0  0  0  0  0  0  0
    9.3994    9.0201   25.1012 H   0  0  0  0  0  0  0  0  0  0  0  0
    9.9893   10.2598   17.6475 H   0  0  0  0  0  0  0  0  0  0  0  0
    8.2810   10.2034   17.1840 H   0  0  0  0  0  0  0  0  0  0  0  0
    9.8682    8.2269   23.0749 H   0  0  0  0  0  0  0  0  0  0  0  0
  1  2  1  0  0  0  0
  1  3  2  0  0  0  0
  2  4  2  0  0  0  0
  3  5  1  0  0  0  0
  4  6  1  0  0  0  0
  5  6  2  0  0  0  0
  6 18  1  0  0  0  0
  7 19  1  0  0  0  0
  7 20  2  0  0  0  0
  7 22  1  0  0  0  0
  8  9  1  0  0  0  0
  8 13  1  0  0  0  0
  9 14  1  1  0  0  0
 10 13  1  6  0  0  0
 10 17  1  0  0  0  0
 11 15  1  6  0  0  0
 11 19  1  0  0  0  0
 12 16  1  6  0  0  0
 12 19  1  0  0  0  0
 13 15  1  0  0  0  0
 14 16  1  0  0  0  0
 14 17  1  0  0  0  0
 15 16  1  0  0  0  0
 17 21  1  6  0  0  0
 18 22  1  0  0  0  0
  1 23  1  0  0  0  0
  2 24  1  0  0  0  0
  3 25  1  0  0  0  0
  4 26  1  0  0  0  0
  5 27  1  0  0  0  0
  8 28  1  0  0  0  0
  8 29  1  0  0  0  0
  9 30  1  0  0  0  0
  9 31  1  0  0  0  0
 10 32  1  0  0  0  0
 10 33  1  0  0  0  0
 11 34  1  0  0  0  0
 11 35  1  0  0  0  0
 12 36  1  0  0  0  0
 12 37  1  0  0  0  0
 13 38  1  0  0  0  0
 14 39  1  0  0  0  0
 15 40  1  0  0  0  0
 16 41  1  0  0  0  0
 17 42  1  0  0  0  0
 18 43  1  0  0  0  0
 18 44  1  0  0  0  0
 21 45  1  0  0  0  0
M  END
> <id>
EN300-28290588

> <smiles>
O[C@@H]1C[C@H]2CC[C@@H]1[C@H]3CN(C[C@H]32)C(=O)OCC=4C=CC=CC4 |&1:1,3,6,7,11,r|

> <IUPAC Name>
rac-benzyl (1R,2S,6S,7R,8R)-8-hydroxy-4-azatricyclo[5.2.2.0,2,6]undecane-4-carboxylate

> <CAS>
2679838-87-8

> <URL>
https://www.enaminestore.com/catalog/EN300-28290588

> <ROCS_ShapeQuery>
x0812_0A_x1140_0A_x1097_0A_x0365_0A_x1097_0A_x0310_0A

> <ROCS_TanimotoCombo>
0.703 

> <ROCS_ShapeTanimoto>
0.197 

> <ROCS_ColorTanimoto>
0.506 

> <ROCS_RefTversky>
0.189 

> <ROCS_RefColorTversky>
0.590 

> <ROCS_RefTverskyCombo>
0.778 

> <ROCS_FitTversky>
1.292 

> <ROCS_FitColorTversky>
0.782 

> <ROCS_FitTverskyCombo>
2.073 

> <ROCS_ColorScore>
-8.804

> <ROCS_Overlap>
1910.511

> <ROCS_Rank>
316                 

$$$$
untitled-dbase-576492_8
  -OEChem-02092408543D

 24 25  0     0  0  0  0  0  0999 V2000
   10.1341   11.5852   22.7026 C   0  0  0  0  0  0  0  0  0  0  0  0
    9.0958   10.0964   24.7652 C   0  0  0  0  0  0  0  0  0  0  0  0
    7.6568   10.5670   23.3149 C   0  0  0  0  0  0  0  0  0  0  0  0
    9.0557   11.2002   23.6478 C   0  0  0  0  0  0  0  0  0  0  0  0
    7.6647   10.6817   24.8598 C   0  0  0  0  0  0  0  0  0  0  0  0
    8.2885   12.1047   24.7024 C   0  0  0  0  0  0  0  0  0  0  0  0
   11.5235   14.3733   23.1034 C   0  0  0  0  0  0  0  0  0  0  0  0
   12.0314   12.9931   22.7444 C   0  0  0  0  0  0  0  0  0  0  0  0
    6.6470   10.2627   25.7307 N   0  0  0  0  0  0  0  0  0  0  0  0
   10.0341   11.5182   21.4849 O   0  0  0  0  0  0  0  0  0  0  0  0
   11.2229   12.0130   23.4029 O   0  0  0  0  0  0  0  0  0  0  0  0
    9.2413   12.7862   26.0953 Cl  0  0  0  0  0  0  0  0  0  0  0  0
    7.2301   13.4436   24.0692 Cl  0  0  0  0  0  0  0  0  0  0  0  0
    9.1910    9.0551   24.4329 H   0  0  0  0  0  0  0  0  0  0  0  0
    9.7751   10.2358   25.6098 H   0  0  0  0  0  0  0  0  0  0  0  0
    6.9368   11.1643   22.7493 H   0  0  0  0  0  0  0  0  0  0  0  0
    7.6570    9.5570   22.8870 H   0  0  0  0  0  0  0  0  0  0  0  0
   10.4864   14.5033   22.7819 H   0  0  0  0  0  0  0  0  0  0  0  0
   11.5817   14.5368   24.1845 H   0  0  0  0  0  0  0  0  0  0  0  0
   12.1393   15.1459   22.6311 H   0  0  0  0  0  0  0  0  0  0  0  0
   13.0691   12.8697   23.0686 H   0  0  0  0  0  0  0  0  0  0  0  0
   11.9719   12.8311   21.6640 H   0  0  0  0  0  0  0  0  0  0  0  0
    6.3481   11.0161   26.3362 H   0  0  0  0  0  0  0  0  0  0  0  0
    5.8356    9.9410   25.2191 H   0  0  0  0  0  0  0  0  0  0  0  0
  1  4  1  0  0  0  0
  1 10  2  0  0  0  0
  1 11  1  0  0  0  0
  2  4  1  0  0  0  0
  2  5  1  0  0  0  0
  3  4  1  0  0  0  0
  3  5  1  0  0  0  0
  4  6  1  0  0  0  0
  5  6  1  0  0  0  0
  5  9  1  0  0  0  0
  6 12  1  0  0  0  0
  6 13  1  0  0  0  0
  7  8  1  0  0  0  0
  8 11  1  0  0  0  0
  2 14  1  0  0  0  0
  2 15  1  0  0  0  0
  3 16  1  0  0  0  0
  3 17  1  0  0  0  0
  7 18  1  0  0  0  0
  7 19  1  0  0  0  0
  7 20  1  0  0  0  0
  8 21  1  0  0  0  0
  8 22  1  0  0  0  0
  9 23  1  0  0  0  0
  9 24  1  0  0  0  0
M  END
> <id>
EN300-37459065

> <smiles>
CCOC(=O)C1(CC2(N)C1)C2(Cl)Cl

> <IUPAC Name>
ethyl 3-amino-2,2-dichlorobicyclo[1.1.1]pentane-1-carboxylate

> <URL>
https://www.enaminestore.com/catalog/EN300-37459065

> <ROCS_ShapeQuery>
x0812_0A_x1140_0A_x1097_0A_x0365_0A_x1097_0A_x0310_0A

> <ROCS_TanimotoCombo>
0.703 

> <ROCS_ShapeTanimoto>
0.223 

> <ROCS_ColorTanimoto>
0.480 

> <ROCS_RefTversky>
0.201 

> <ROCS_RefColorTversky>
0.558 

> <ROCS_RefTverskyCombo>
0.759 

> <ROCS_FitTversky>
1.939 

> <ROCS_FitColorTversky>
0.775 

> <ROCS_FitTverskyCombo>
2.714 

> <ROCS_ColorScore>
-8.319

> <ROCS_Overlap>
2032.714

> <ROCS_Rank>
317                 

$$$$
untitled-dbase-299416_2
  -OEChem-02092408543D

 23 24  0     0  0  0  0  0  0999 V2000
    9.5171   12.3841   22.3457 C   0  0  0  0  0  0  0  0  0  0  0  0
    9.1453   11.8279   24.9438 C   0  0  0  0  0  0  0  0  0  0  0  0
    7.3702   11.7979   23.8437 C   0  0  0  0  0  0  0  0  0  0  0  0
    8.9596   10.0045   23.3101 C   0  0  0  0  0  0  0  0  0  0  0  0
    8.8623   11.5409   23.4255 C   0  0  0  0  0  0  0  0  0  0  0  0
    7.8690   10.9084   25.0457 C   0  0  0  0  0  0  0  0  0  0  0  0
    7.0828   10.8033   26.3169 C   0  0  0  0  0  0  0  0  0  0  0  0
   10.8907   12.3272   22.3543 N   0  0  0  0  0  0  0  0  0  0  0  0
    5.9693    9.9138   26.1569 N   0  0  0  0  0  0  0  0  0  0  0  0
    8.8596   13.0360   21.5381 O   0  0  0  0  0  0  0  0  0  0  0  0
    8.2354    9.6159   24.4897 O   0  0  0  0  0  0  0  0  0  0  0  0
   10.0686   11.4052   25.3513 H   0  0  0  0  0  0  0  0  0  0  0  0
    9.0415   12.8650   25.2817 H   0  0  0  0  0  0  0  0  0  0  0  0
    7.0887   12.8320   24.0718 H   0  0  0  0  0  0  0  0  0  0  0  0
    6.6049   11.3472   23.2050 H   0  0  0  0  0  0  0  0  0  0  0  0
    8.4559    9.6146   22.4210 H   0  0  0  0  0  0  0  0  0  0  0  0
    9.9894    9.6407   23.3703 H   0  0  0  0  0  0  0  0  0  0  0  0
    7.7422   10.4228   27.1076 H   0  0  0  0  0  0  0  0  0  0  0  0
    6.7156   11.8018   26.5868 H   0  0  0  0  0  0  0  0  0  0  0  0
   11.3498   11.7505   23.0517 H   0  0  0  0  0  0  0  0  0  0  0  0
   11.4640   12.8387   21.6912 H   0  0  0  0  0  0  0  0  0  0  0  0
    5.1161   10.4071   26.3327 H   0  0  0  0  0  0  0  0  0  0  0  0
    5.9572    9.5547   25.2225 H   0  0  0  0  0  0  0  0  0  0  0  0
  1  5  1  0  0  0  0
  1  8  1  0  0  0  0
  1 10  2  0  0  0  0
  2  5  1  0  0  0  0
  2  6  1  0  0  0  0
  3  5  1  0  0  0  0
  3  6  1  0  0  0  0
  4  5  1  0  0  0  0
  4 11  1  0  0  0  0
  6  7  1  0  0  0  0
  6 11  1  0  0  0  0
  7  9  1  0  0  0  0
  2 12  1  0  0  0  0
  2 13  1  0  0  0  0
  3 14  1  0  0  0  0
  3 15  1  0  0  0  0
  4 16  1  0  0  0  0
  4 17  1  0  0  0  0
  7 18  1  0  0  0  0
  7 19  1  0  0  0  0
  8 20  1  0  0  0  0
  8 21  1  0  0  0  0
  9 22  1  0  0  0  0
  9 23  1  0  0  0  0
M  END
> <id>
EN300-6504787

> <smiles>
NCC1(CC2(C1)C(=O)N)OC2

> <MDLNUMBER>
MFCD31737039

> <IUPAC Name>
1-(aminomethyl)-2-oxabicyclo[2.1.1]hexane-4-carboxamide

> <CAS>
2260933-23-9

> <URL>
https://www.enaminestore.com/catalog/EN300-6504787

> <ROCS_ShapeQuery>
x0812_0A_x1140_0A_x1097_0A_x0365_0A_x1097_0A_x0310_0A

> <ROCS_TanimotoCombo>
0.703 

> <ROCS_ShapeTanimoto>
0.208 

> <ROCS_ColorTanimoto>
0.495 

> <ROCS_RefTversky>
0.189 

> <ROCS_RefColorTversky>
0.596 

> <ROCS_RefTverskyCombo>
0.784 

> <ROCS_FitTversky>
1.927 

> <ROCS_FitColorTversky>
0.746 

> <ROCS_FitTverskyCombo>
2.673 

> <ROCS_ColorScore>
-8.916

> <ROCS_Overlap>
1908.625

> <ROCS_Rank>
318                 

$$$$
untitled-dbase-299122_2
  -OEChem-02092408543D

 23 24  0     0  0  0  0  0  0999 V2000
    9.5171   12.3841   22.3457 C   0  0  0  0  0  0  0  0  0  0  0  0
    9.1453   11.8279   24.9438 C   0  0  0  0  0  0  0  0  0  0  0  0
    7.3702   11.7979   23.8437 C   0  0  0  0  0  0  0  0  0  0  0  0
    8.9596   10.0045   23.3101 C   0  0  0  0  0  0  0  0  0  0  0  0
    8.8623   11.5409   23.4255 C   0  0  0  0  0  0  0  0  0  0  0  0
    7.8690   10.9084   25.0457 C   0  0  0  0  0  0  0  0  0  0  0  0
    7.0828   10.8033   26.3169 C   0  0  0  0  0  0  0  0  0  0  0  0
   10.8907   12.3272   22.3543 N   0  0  0  0  0  0  0  0  0  0  0  0
    5.9693    9.9138   26.1569 N   0  0  0  0  0  0  0  0  0  0  0  0
    8.8596   13.0360   21.5381 O   0  0  0  0  0  0  0  0  0  0  0  0
    8.2354    9.6159   24.4897 O   0  0  0  0  0  0  0  0  0  0  0  0
   10.0686   11.4052   25.3513 H   0  0  0  0  0  0  0  0  0  0  0  0
    9.0415   12.8650   25.2817 H   0  0  0  0  0  0  0  0  0  0  0  0
    7.0887   12.8320   24.0718 H   0  0  0  0  0  0  0  0  0  0  0  0
    6.6049   11.3472   23.2050 H   0  0  0  0  0  0  0  0  0  0  0  0
    8.4559    9.6146   22.4210 H   0  0  0  0  0  0  0  0  0  0  0  0
    9.9894    9.6407   23.3703 H   0  0  0  0  0  0  0  0  0  0  0  0
    7.7422   10.4228   27.1076 H   0  0  0  0  0  0  0  0  0  0  0  0
    6.7156   11.8018   26.5868 H   0  0  0  0  0  0  0  0  0  0  0  0
   11.3498   11.7505   23.0517 H   0  0  0  0  0  0  0  0  0  0  0  0
   11.4640   12.8387   21.6912 H   0  0  0  0  0  0  0  0  0  0  0  0
    5.1161   10.4071   26.3327 H   0  0  0  0  0  0  0  0  0  0  0  0
    5.9572    9.5547   25.2225 H   0  0  0  0  0  0  0  0  0  0  0  0
  1  5  1  0  0  0  0
  1  8  1  0  0  0  0
  1 10  2  0  0  0  0
  2  5  1  0  0  0  0
  2  6  1  0  0  0  0
  3  5  1  0  0  0  0
  3  6  1  0  0  0  0
  4  5  1  0  0  0  0
  4 11  1  0  0  0  0
  6  7  1  0  0  0  0
  6 11  1  0  0  0  0
  7  9  1  0  0  0  0
  2 12  1  0  0  0  0
  2 13  1  0  0  0  0
  3 14  1  0  0  0  0
  3 15  1  0  0  0  0
  4 16  1  0  0  0  0
  4 17  1  0  0  0  0
  7 18  1  0  0  0  0
  7 19  1  0  0  0  0
  8 20  1  0  0  0  0
  8 21  1  0  0  0  0
  9 22  1  0  0  0  0
  9 23  1  0  0  0  0
M  END
> <id>
EN300-6733595

> <smiles>
Cl.NCC1(CC2(C1)C(=O)N)OC2

> <MDLNUMBER>
MFCD31736947

> <IUPAC Name>
1-(aminomethyl)-2-oxabicyclo[2.1.1]hexane-4-carboxamide hydrochloride

> <CAS>
2260933-34-2

> <Purity>
95

> <URL>
https://www.enaminestore.com/catalog/EN300-6733595

> <Saltdate>
Cl

> <ROCS_ShapeQuery>
x0812_0A_x1140_0A_x1097_0A_x0365_0A_x1097_0A_x0310_0A

> <ROCS_TanimotoCombo>
0.703 

> <ROCS_ShapeTanimoto>
0.208 

> <ROCS_ColorTanimoto>
0.495 

> <ROCS_RefTversky>
0.189 

> <ROCS_RefColorTversky>
0.596 

> <ROCS_RefTverskyCombo>
0.784 

> <ROCS_FitTversky>
1.927 

> <ROCS_FitColorTversky>
0.746 

> <ROCS_FitTverskyCombo>
2.673 

> <ROCS_ColorScore>
-8.916

> <ROCS_Overlap>
1908.625

> <ROCS_Rank>
319                 

$$$$
untitled-dbase-563997_5
  -OEChem-02092408543D

 41 43  0     0  0  0  0  0  0999 V2000
   10.0291   15.6178   17.4551 C   0  0  0  0  0  0  0  0  0  0  0  0
    9.4125   14.3842   17.6642 C   0  0  0  0  0  0  0  0  0  0  0  0
   11.3030   15.8570   17.9705 C   0  0  0  0  0  0  0  0  0  0  0  0
   10.0697   13.3899   18.3889 C   0  0  0  0  0  0  0  0  0  0  0  0
   11.9602   14.8627   18.6951 C   0  0  0  0  0  0  0  0  0  0  0  0
   11.3436   13.6292   18.9043 C   0  0  0  0  0  0  0  0  0  0  0  0
   10.6206   12.0031   21.4920 C   0  0  0  0  0  0  0  0  0  0  0  0
    7.9728   12.0591   23.0211 C   0  0  0  0  0  0  0  0  0  0  0  0
    9.4014   12.0779   25.0687 C   0  0  0  0  0  0  0  0  0  0  0  0
    6.8551   11.3431   23.7891 C   0  0  0  0  0  0  0  0  0  0  0  0
    8.2980   11.3657   25.8606 C   0  0  0  0  0  0  0  0  0  0  0  0
    9.4068   10.1007   23.5616 C   0  0  0  0  0  0  0  0  0  0  0  0
    9.3386   11.6363   23.5950 C   0  0  0  0  0  0  0  0  0  0  0  0
    7.4622   10.4861   24.9140 C   0  0  0  0  0  0  0  0  0  0  0  0
    6.3773    9.7346   25.6780 C   0  0  0  0  0  0  0  0  0  0  0  0
   12.0510   12.5601   19.6841 C   0  0  0  0  0  0  0  0  0  0  0  0
   10.4179   12.2232   22.8396 N   0  0  0  0  0  0  0  0  0  0  0  0
    9.9259   11.2947   20.7708 O   0  0  0  0  0  0  0  0  0  0  0  0
    8.3361    9.5099   24.3161 O   0  0  0  0  0  0  0  0  0  0  0  0
   11.7203   12.6965   21.0707 O   0  0  0  0  0  0  0  0  0  0  0  0
    9.5178   16.3914   16.8897 H   0  0  0  0  0  0  0  0  0  0  0  0
    8.4210   14.1974   17.2621 H   0  0  0  0  0  0  0  0  0  0  0  0
   11.7838   16.8169   17.8069 H   0  0  0  0  0  0  0  0  0  0  0  0
    9.5814   12.4319   18.5471 H   0  0  0  0  0  0  0  0  0  0  0  0
   12.9525   15.0581   19.0931 H   0  0  0  0  0  0  0  0  0  0  0  0
    7.9027   11.8052   21.9557 H   0  0  0  0  0  0  0  0  0  0  0  0
    7.8366   13.1452   23.0971 H   0  0  0  0  0  0  0  0  0  0  0  0
    9.2769   13.1645   25.1565 H   0  0  0  0  0  0  0  0  0  0  0  0
   10.3779   11.8351   25.5069 H   0  0  0  0  0  0  0  0  0  0  0  0
    6.1464   12.0772   24.1906 H   0  0  0  0  0  0  0  0  0  0  0  0
    6.3015   10.7063   23.0878 H   0  0  0  0  0  0  0  0  0  0  0  0
    8.7678   10.7454   26.6343 H   0  0  0  0  0  0  0  0  0  0  0  0
    7.6683   12.1025   26.3731 H   0  0  0  0  0  0  0  0  0  0  0  0
    9.3350    9.7196   22.5365 H   0  0  0  0  0  0  0  0  0  0  0  0
   10.3477    9.7322   23.9860 H   0  0  0  0  0  0  0  0  0  0  0  0
    6.8273    9.1349   26.4686 H   0  0  0  0  0  0  0  0  0  0  0  0
    5.8332    9.0775   25.0003 H   0  0  0  0  0  0  0  0  0  0  0  0
    5.6787   10.4423   26.1234 H   0  0  0  0  0  0  0  0  0  0  0  0
   11.7525   11.5632   19.3422 H   0  0  0  0  0  0  0  0  0  0  0  0
   13.1363   12.6462   19.5636 H   0  0  0  0  0  0  0  0  0  0  0  0
   11.0670   12.8344   23.3278 H   0  0  0  0  0  0  0  0  0  0  0  0
  1  2  1  0  0  0  0
  1  3  2  0  0  0  0
  2  4  2  0  0  0  0
  3  5  1  0  0  0  0
  4  6  1  0  0  0  0
  5  6  2  0  0  0  0
  6 16  1  0  0  0  0
  7 17  1  0  0  0  0
  7 18  2  0  0  0  0
  7 20  1  0  0  0  0
  8 10  1  0  0  0  0
  8 13  1  0  0  0  0
  9 11  1  0  0  0  0
  9 13  1  0  0  0  0
 10 14  1  0  0  0  0
 11 14  1  0  0  0  0
 12 13  1  0  0  0  0
 12 19  1  0  0  0  0
 13 17  1  0  0  0  0
 14 15  1  0  0  0  0
 14 19  1  0  0  0  0
 16 20  1  0  0  0  0
  1 21  1  0  0  0  0
  2 22  1  0  0  0  0
  3 23  1  0  0  0  0
  4 24  1  0  0  0  0
  5 25  1  0  0  0  0
  8 26  1  0  0  0  0
  8 27  1  0  0  0  0
  9 28  1  0  0  0  0
  9 29  1  0  0  0  0
 10 30  1  0  0  0  0
 10 31  1  0  0  0  0
 11 32  1  0  0  0  0
 11 33  1  0  0  0  0
 12 34  1  0  0  0  0
 12 35  1  0  0  0  0
 15 36  1  0  0  0  0
 15 37  1  0  0  0  0
 15 38  1  0  0  0  0
 16 39  1  0  0  0  0
 16 40  1  0  0  0  0
 17 41  1  0  0  0  0
M  END
> <id>
EN300-39879243

> <smiles>
CC1(CCC2(CC1)NC(=O)OCC=3C=CC=CC3)OC2

> <IUPAC Name>
benzyl N-{1-methyl-2-oxabicyclo[2.2.2]octan-4-yl}carbamate

> <Purity>
60

> <URL>
https://www.enaminestore.com/catalog/EN300-39879243

> <ROCS_ShapeQuery>
x0812_0A_x1140_0A_x1097_0A_x0365_0A_x1097_0A_x0310_0A

> <ROCS_TanimotoCombo>
0.703 

> <ROCS_ShapeTanimoto>
0.212 

> <ROCS_ColorTanimoto>
0.491 

> <ROCS_RefTversky>
0.199 

> <ROCS_RefColorTversky>
0.557 

> <ROCS_RefTverskyCombo>
0.756 

> <ROCS_FitTversky>
1.451 

> <ROCS_FitColorTversky>
0.805 

> <ROCS_FitTverskyCombo>
2.257 

> <ROCS_ColorScore>
-8.294

> <ROCS_Overlap>
2011.856

> <ROCS_Rank>
320                 

$$$$
untitled-dbase-560429_3
  -OEChem-02092408543D

 22 23  0     0  0  0  0  0  0999 V2000
    7.8994   11.7258   23.1958 C   0  0  0  0  0  0  0  0  0  0  0  0
    8.3615   11.8400   25.2359 C   0  0  0  0  0  0  0  0  0  0  0  0
    9.5826   10.1137   23.9803 C   0  0  0  0  0  0  0  0  0  0  0  0
    9.2680   11.6256   23.9670 C   0  0  0  0  0  0  0  0  0  0  0  0
    7.4957   10.8070   24.4143 C   0  0  0  0  0  0  0  0  0  0  0  0
    6.0587   10.5519   24.7538 C   0  0  0  0  0  0  0  0  0  0  0  0
   10.4045   12.5527   23.6575 C   0  0  0  0  0  0  0  0  0  0  0  0
    5.9264   10.0979   26.1077 N   0  0  0  0  0  0  0  0  0  0  0  0
    8.2836    9.5897   24.3039 O   0  0  0  0  0  0  0  0  0  0  0  0
    9.9932   13.8260   23.8463 F   0  0  0  0  0  0  0  0  0  0  0  0
   10.7320   12.4222   22.3530 F   0  0  0  0  0  0  0  0  0  0  0  0
    7.4308   12.7147   23.1425 H   0  0  0  0  0  0  0  0  0  0  0  0
    7.8661   11.2554   22.2088 H   0  0  0  0  0  0  0  0  0  0  0  0
    8.7673   11.4773   26.1847 H   0  0  0  0  0  0  0  0  0  0  0  0
    7.9380   12.8400   25.3808 H   0  0  0  0  0  0  0  0  0  0  0  0
    9.9006    9.7389   23.0032 H   0  0  0  0  0  0  0  0  0  0  0  0
   10.2982    9.8376   24.7600 H   0  0  0  0  0  0  0  0  0  0  0  0
    5.4963   11.4857   24.6261 H   0  0  0  0  0  0  0  0  0  0  0  0
    5.6673    9.7854   24.0726 H   0  0  0  0  0  0  0  0  0  0  0  0
   11.2725   12.3482   24.2791 H   0  0  0  0  0  0  0  0  0  0  0  0
    5.5039    9.1905   26.1190 H   0  0  0  0  0  0  0  0  0  0  0  0
    6.8301   10.0473   26.5352 H   0  0  0  0  0  0  0  0  0  0  0  0
  1  4  1  0  0  0  0
  1  5  1  0  0  0  0
  2  4  1  0  0  0  0
  2  5  1  0  0  0  0
  3  4  1  0  0  0  0
  3  9  1  0  0  0  0
  4  7  1  1  0  0  0
  5  6  1  1  0  0  0
  5  9  1  0  0  0  0
  6  8  1  0  0  0  0
  7 10  1  0  0  0  0
  7 11  1  0  0  0  0
  1 12  1  0  0  0  0
  1 13  1  0  0  0  0
  2 14  1  0  0  0  0
  2 15  1  0  0  0  0
  3 16  1  0  0  0  0
  3 17  1  0  0  0  0
  6 18  1  0  0  0  0
  6 19  1  0  0  0  0
  7 20  1  0  0  0  0
  8 21  1  0  0  0  0
  8 22  1  0  0  0  0
M  END
> <id>
EN300-37375405

> <smiles>
Cl.NC[C@]1(C[C@]2(C1)C(F)F)OC2

> <IUPAC Name>
1-[4-(difluoromethyl)-2-oxabicyclo[2.1.1]hexan-1-yl]methanamine hydrochloride

> <CAS>
2503207-19-8

> <URL>
https://www.enaminestore.com/catalog/EN300-37375405

> <ROCS_ShapeQuery>
x0812_0A_x1140_0A_x1097_0A_x0365_0A_x1097_0A_x0310_0A

> <ROCS_TanimotoCombo>
0.703 

> <ROCS_ShapeTanimoto>
0.213 

> <ROCS_ColorTanimoto>
0.490 

> <ROCS_RefTversky>
0.193 

> <ROCS_RefColorTversky>
0.551 

> <ROCS_RefTverskyCombo>
0.744 

> <ROCS_FitTversky>
1.964 

> <ROCS_FitColorTversky>
0.815 

> <ROCS_FitTverskyCombo>
2.779 

> <ROCS_ColorScore>
-8.190

> <ROCS_Overlap>
1949.333

> <ROCS_Rank>
321                 

$$$$
untitled-dbase-492587_3
  -OEChem-02092408543D

 22 23  0     0  0  0  0  0  0999 V2000
    7.8994   11.7258   23.1958 C   0  0  0  0  0  0  0  0  0  0  0  0
    8.3615   11.8400   25.2359 C   0  0  0  0  0  0  0  0  0  0  0  0
    9.5826   10.1137   23.9803 C   0  0  0  0  0  0  0  0  0  0  0  0
    9.2680   11.6256   23.9670 C   0  0  0  0  0  0  0  0  0  0  0  0
    7.4957   10.8070   24.4143 C   0  0  0  0  0  0  0  0  0  0  0  0
    6.0587   10.5519   24.7538 C   0  0  0  0  0  0  0  0  0  0  0  0
   10.4045   12.5527   23.6575 C   0  0  0  0  0  0  0  0  0  0  0  0
    5.9264   10.0979   26.1077 N   0  0  0  0  0  0  0  0  0  0  0  0
    8.2836    9.5897   24.3039 O   0  0  0  0  0  0  0  0  0  0  0  0
    9.9932   13.8260   23.8463 F   0  0  0  0  0  0  0  0  0  0  0  0
   10.7320   12.4222   22.3530 F   0  0  0  0  0  0  0  0  0  0  0  0
    7.4308   12.7147   23.1425 H   0  0  0  0  0  0  0  0  0  0  0  0
    7.8661   11.2554   22.2088 H   0  0  0  0  0  0  0  0  0  0  0  0
    8.7673   11.4773   26.1847 H   0  0  0  0  0  0  0  0  0  0  0  0
    7.9380   12.8400   25.3808 H   0  0  0  0  0  0  0  0  0  0  0  0
    9.9006    9.7389   23.0032 H   0  0  0  0  0  0  0  0  0  0  0  0
   10.2982    9.8376   24.7600 H   0  0  0  0  0  0  0  0  0  0  0  0
    5.4963   11.4857   24.6261 H   0  0  0  0  0  0  0  0  0  0  0  0
    5.6673    9.7854   24.0726 H   0  0  0  0  0  0  0  0  0  0  0  0
   11.2725   12.3482   24.2791 H   0  0  0  0  0  0  0  0  0  0  0  0
    5.5039    9.1905   26.1190 H   0  0  0  0  0  0  0  0  0  0  0  0
    6.8301   10.0473   26.5352 H   0  0  0  0  0  0  0  0  0  0  0  0
  1  4  1  0  0  0  0
  1  5  1  0  0  0  0
  2  4  1  0  0  0  0
  2  5  1  0  0  0  0
  3  4  1  0  0  0  0
  3  9  1  0  0  0  0
  4  7  1  1  0  0  0
  5  6  1  1  0  0  0
  5  9  1  0  0  0  0
  6  8  1  0  0  0  0
  7 10  1  0  0  0  0
  7 11  1  0  0  0  0
  1 12  1  0  0  0  0
  1 13  1  0  0  0  0
  2 14  1  0  0  0  0
  2 15  1  0  0  0  0
  3 16  1  0  0  0  0
  3 17  1  0  0  0  0
  6 18  1  0  0  0  0
  6 19  1  0  0  0  0
  7 20  1  0  0  0  0
  8 21  1  0  0  0  0
  8 22  1  0  0  0  0
M  END
> <id>
EN300-27194044

> <smiles>
NC[C@]1(C[C@]2(C1)C(F)F)OC2

> <IUPAC Name>
1-[4-(difluoromethyl)-2-oxabicyclo[2.1.1]hexan-1-yl]methanamine

> <URL>
https://www.enaminestore.com/catalog/EN300-27194044

> <ROCS_ShapeQuery>
x0812_0A_x1140_0A_x1097_0A_x0365_0A_x1097_0A_x0310_0A

> <ROCS_TanimotoCombo>
0.703 

> <ROCS_ShapeTanimoto>
0.213 

> <ROCS_ColorTanimoto>
0.490 

> <ROCS_RefTversky>
0.193 

> <ROCS_RefColorTversky>
0.551 

> <ROCS_RefTverskyCombo>
0.744 

> <ROCS_FitTversky>
1.964 

> <ROCS_FitColorTversky>
0.815 

> <ROCS_FitTverskyCombo>
2.779 

> <ROCS_ColorScore>
-8.190

> <ROCS_Overlap>
1949.333

> <ROCS_Rank>
322                 

$$$$
untitled-dbase-561003_4
  -OEChem-02092408543D

 21 22  0     0  0  0  0  0  0999 V2000
   10.1190   11.6232   22.7055 C   0  0  0  0  0  0  0  0  0  0  0  0
    9.1164   10.1381   24.7881 C   0  0  0  0  0  0  0  0  0  0  0  0
    7.6575   10.5665   23.3141 C   0  0  0  0  0  0  0  0  0  0  0  0
    9.0489   11.2057   23.6438 C   0  0  0  0  0  0  0  0  0  0  0  0
    7.6669   10.6638   24.8546 C   0  0  0  0  0  0  0  0  0  0  0  0
    8.2593   12.0771   24.6788 C   0  0  0  0  0  0  0  0  0  0  0  0
   12.2839   12.5666   22.6236 C   0  0  0  0  0  0  0  0  0  0  0  0
    6.6548   10.2633   25.7386 N   0  0  0  0  0  0  0  0  0  0  0  0
   10.0411   11.5220   21.4886 O   0  0  0  0  0  0  0  0  0  0  0  0
   11.1734   12.1238   23.4102 O   0  0  0  0  0  0  0  0  0  0  0  0
    8.9552   12.6069   25.7082 F   0  0  0  0  0  0  0  0  0  0  0  0
    7.4546   13.0470   24.1926 F   0  0  0  0  0  0  0  0  0  0  0  0
    9.2580    9.0939   24.4885 H   0  0  0  0  0  0  0  0  0  0  0  0
    9.7702   10.3565   25.6391 H   0  0  0  0  0  0  0  0  0  0  0  0
    6.9354   11.1891   22.7751 H   0  0  0  0  0  0  0  0  0  0  0  0
    7.6611    9.5631   22.8746 H   0  0  0  0  0  0  0  0  0  0  0  0
   13.0691   12.9467   23.2818 H   0  0  0  0  0  0  0  0  0  0  0  0
   11.9560   13.3525   21.9385 H   0  0  0  0  0  0  0  0  0  0  0  0
   12.6711   11.7225   22.0482 H   0  0  0  0  0  0  0  0  0  0  0  0
    6.3246   11.0400   26.2975 H   0  0  0  0  0  0  0  0  0  0  0  0
    5.8586    9.8861   25.2403 H   0  0  0  0  0  0  0  0  0  0  0  0
  1  4  1  0  0  0  0
  1  9  2  0  0  0  0
  1 10  1  0  0  0  0
  2  4  1  0  0  0  0
  2  5  1  0  0  0  0
  3  4  1  0  0  0  0
  3  5  1  0  0  0  0
  4  6  1  0  0  0  0
  5  6  1  0  0  0  0
  5  8  1  0  0  0  0
  6 11  1  0  0  0  0
  6 12  1  0  0  0  0
  7 10  1  0  0  0  0
  2 13  1  0  0  0  0
  2 14  1  0  0  0  0
  3 15  1  0  0  0  0
  3 16  1  0  0  0  0
  7 17  1  0  0  0  0
  7 18  1  0  0  0  0
  7 19  1  0  0  0  0
  8 20  1  0  0  0  0
  8 21  1  0  0  0  0
M  END
> <id>
EN300-37375995

> <smiles>
Cl.COC(=O)C1(CC2(N)C1)C2(F)F

> <IUPAC Name>
methyl 3-amino-2,2-difluorobicyclo[1.1.1]pentane-1-carboxylate hydrochloride

> <CAS>
2763777-54-2

> <Purity>
95

> <URL>
https://www.enaminestore.com/catalog/EN300-37375995

> <ROCS_ShapeQuery>
x0812_0A_x1140_0A_x1097_0A_x0365_0A_x1097_0A_x0310_0A

> <ROCS_TanimotoCombo>
0.703 

> <ROCS_ShapeTanimoto>
0.223 

> <ROCS_ColorTanimoto>
0.480 

> <ROCS_RefTversky>
0.201 

> <ROCS_RefColorTversky>
0.558 

> <ROCS_RefTverskyCombo>
0.759 

> <ROCS_FitTversky>
1.946 

> <ROCS_FitColorTversky>
0.773 

> <ROCS_FitTverskyCombo>
2.719 

> <ROCS_ColorScore>
-8.319

> <ROCS_Overlap>
2034.728

> <ROCS_Rank>
323                 

$$$$
untitled-dbase-562811_4
  -OEChem-02092408543D

 21 22  0     0  0  0  0  0  0999 V2000
   10.1190   11.6232   22.7055 C   0  0  0  0  0  0  0  0  0  0  0  0
    9.1164   10.1381   24.7881 C   0  0  0  0  0  0  0  0  0  0  0  0
    7.6575   10.5665   23.3141 C   0  0  0  0  0  0  0  0  0  0  0  0
    9.0489   11.2057   23.6438 C   0  0  0  0  0  0  0  0  0  0  0  0
    7.6669   10.6638   24.8546 C   0  0  0  0  0  0  0  0  0  0  0  0
    8.2593   12.0771   24.6788 C   0  0  0  0  0  0  0  0  0  0  0  0
   12.2839   12.5666   22.6236 C   0  0  0  0  0  0  0  0  0  0  0  0
    6.6548   10.2633   25.7386 N   0  0  0  0  0  0  0  0  0  0  0  0
   10.0411   11.5220   21.4886 O   0  0  0  0  0  0  0  0  0  0  0  0
   11.1734   12.1238   23.4102 O   0  0  0  0  0  0  0  0  0  0  0  0
    8.9552   12.6069   25.7082 F   0  0  0  0  0  0  0  0  0  0  0  0
    7.4546   13.0470   24.1926 F   0  0  0  0  0  0  0  0  0  0  0  0
    9.2580    9.0939   24.4885 H   0  0  0  0  0  0  0  0  0  0  0  0
    9.7702   10.3565   25.6391 H   0  0  0  0  0  0  0  0  0  0  0  0
    6.9354   11.1891   22.7751 H   0  0  0  0  0  0  0  0  0  0  0  0
    7.6611    9.5631   22.8746 H   0  0  0  0  0  0  0  0  0  0  0  0
   13.0691   12.9467   23.2818 H   0  0  0  0  0  0  0  0  0  0  0  0
   11.9560   13.3525   21.9385 H   0  0  0  0  0  0  0  0  0  0  0  0
   12.6711   11.7225   22.0482 H   0  0  0  0  0  0  0  0  0  0  0  0
    6.3246   11.0400   26.2975 H   0  0  0  0  0  0  0  0  0  0  0  0
    5.8586    9.8861   25.2403 H   0  0  0  0  0  0  0  0  0  0  0  0
  1  4  1  0  0  0  0
  1  9  2  0  0  0  0
  1 10  1  0  0  0  0
  2  4  1  0  0  0  0
  2  5  1  0  0  0  0
  3  4  1  0  0  0  0
  3  5  1  0  0  0  0
  4  6  1  0  0  0  0
  5  6  1  0  0  0  0
  5  8  1  0  0  0  0
  6 11  1  0  0  0  0
  6 12  1  0  0  0  0
  7 10  1  0  0  0  0
  2 13  1  0  0  0  0
  2 14  1  0  0  0  0
  3 15  1  0  0  0  0
  3 16  1  0  0  0  0
  7 17  1  0  0  0  0
  7 18  1  0  0  0  0
  7 19  1  0  0  0  0
  8 20  1  0  0  0  0
  8 21  1  0  0  0  0
M  END
> <id>
EN300-27727012

> <smiles>
COC(=O)C1(CC2(N)C1)C2(F)F

> <IUPAC Name>
methyl 3-amino-2,2-difluorobicyclo[1.1.1]pentane-1-carboxylate

> <CAS>
2580187-23-9

> <URL>
https://www.enaminestore.com/catalog/EN300-27727012

> <ROCS_ShapeQuery>
x0812_0A_x1140_0A_x1097_0A_x0365_0A_x1097_0A_x0310_0A

> <ROCS_TanimotoCombo>
0.703 

> <ROCS_ShapeTanimoto>
0.223 

> <ROCS_ColorTanimoto>
0.480 

> <ROCS_RefTversky>
0.201 

> <ROCS_RefColorTversky>
0.558 

> <ROCS_RefTverskyCombo>
0.759 

> <ROCS_FitTversky>
1.946 

> <ROCS_FitColorTversky>
0.773 

> <ROCS_FitTverskyCombo>
2.719 

> <ROCS_ColorScore>
-8.319

> <ROCS_Overlap>
2034.728

> <ROCS_Rank>
324                 

$$$$
untitled-dbase-564639_8
  -OEChem-02092408543D

 21 22  0     0  0  0  0  0  0999 V2000
    9.1289   11.7903   25.0617 C   0  0  0  0  0  0  0  0  0  0  0  0
    7.7337   11.8875   23.5074 C   0  0  0  0  0  0  0  0  0  0  0  0
    9.1372    9.8648   23.5273 C   0  0  0  0  0  0  0  0  0  0  0  0
    9.2116   11.3928   23.5568 C   0  0  0  0  0  0  0  0  0  0  0  0
    7.7498   11.0427   24.8463 C   0  0  0  0  0  0  0  0  0  0  0  0
    6.6404   11.1421   25.8482 C   0  0  0  0  0  0  0  0  0  0  0  0
    5.1637   13.9983   25.1045 N   0  5  0  0  0  0  0  0  0  0  0  0
    6.5520   12.5176   26.3532 N   0  0  0  0  0  0  0  0  0  0  0  0
    5.8270   13.2854   25.6984 N   0  3  0  0  0  0  0  0  0  0  0  0
   10.1392   12.1556   22.7745 N   0  0  0  0  0  0  0  0  0  0  0  0
    8.0687    9.6687   24.4737 O   0  0  0  0  0  0  0  0  0  0  0  0
    9.8399   11.2995   25.7332 H   0  0  0  0  0  0  0  0  0  0  0  0
    9.0747   12.8570   25.3083 H   0  0  0  0  0  0  0  0  0  0  0  0
    7.5506   12.9636   23.6074 H   0  0  0  0  0  0  0  0  0  0  0  0
    7.1148   11.4894   22.6978 H   0  0  0  0  0  0  0  0  0  0  0  0
    8.8443    9.4675   22.5513 H   0  0  0  0  0  0  0  0  0  0  0  0
   10.0481    9.3828   23.8931 H   0  0  0  0  0  0  0  0  0  0  0  0
    6.8115   10.4644   26.6979 H   0  0  0  0  0  0  0  0  0  0  0  0
    5.6741   10.8686   25.3987 H   0  0  0  0  0  0  0  0  0  0  0  0
   10.8308   11.5469   22.3823 H   0  0  0  0  0  0  0  0  0  0  0  0
    9.6523   12.6224   22.0345 H   0  0  0  0  0  0  0  0  0  0  0  0
  1  4  1  0  0  0  0
  1  5  1  0  0  0  0
  2  4  1  0  0  0  0
  2  5  1  0  0  0  0
  3  4  1  0  0  0  0
  3 11  1  0  0  0  0
  4 10  1  0  0  0  0
  5  6  1  0  0  0  0
  5 11  1  0  0  0  0
  6  8  1  0  0  0  0
  7  9  2  0  0  0  0
  8  9  2  0  0  0  0
  1 12  1  0  0  0  0
  1 13  1  0  0  0  0
  2 14  1  0  0  0  0
  2 15  1  0  0  0  0
  3 16  1  0  0  0  0
  3 17  1  0  0  0  0
  6 18  1  0  0  0  0
  6 19  1  0  0  0  0
 10 20  1  0  0  0  0
 10 21  1  0  0  0  0
M  CHG  2   7  -1   9   1
M  END
> <id>
EN300-39847799

> <smiles>
NC1(CC2(CN=[N+]=[N-])C1)CO2

> <IUPAC Name>
1-(azidomethyl)-2-oxabicyclo[2.1.1]hexan-4-amine

> <URL>
https://www.enaminestore.com/catalog/EN300-39847799

> <ROCS_ShapeQuery>
x0812_0A_x1140_0A_x1097_0A_x0365_0A_x1097_0A_x0310_0A

> <ROCS_TanimotoCombo>
0.703 

> <ROCS_ShapeTanimoto>
0.210 

> <ROCS_ColorTanimoto>
0.493 

> <ROCS_RefTversky>
0.191 

> <ROCS_RefColorTversky>
0.553 

> <ROCS_RefTverskyCombo>
0.744 

> <ROCS_FitTversky>
1.941 

> <ROCS_FitColorTversky>
0.819 

> <ROCS_FitTverskyCombo>
2.759 

> <ROCS_ColorScore>
-8.222

> <ROCS_Overlap>
1926.159

> <ROCS_Rank>
325                 

$$$$
untitled-dbase-526976_8
  -OEChem-02092408543D

 21 22  0     0  0  0  0  0  0999 V2000
    9.1289   11.7903   25.0617 C   0  0  0  0  0  0  0  0  0  0  0  0
    7.7337   11.8875   23.5074 C   0  0  0  0  0  0  0  0  0  0  0  0
    9.1372    9.8648   23.5273 C   0  0  0  0  0  0  0  0  0  0  0  0
    9.2116   11.3928   23.5568 C   0  0  0  0  0  0  0  0  0  0  0  0
    7.7498   11.0427   24.8463 C   0  0  0  0  0  0  0  0  0  0  0  0
    6.6404   11.1421   25.8482 C   0  0  0  0  0  0  0  0  0  0  0  0
    5.1637   13.9983   25.1045 N   0  5  0  0  0  0  0  0  0  0  0  0
    6.5520   12.5176   26.3532 N   0  0  0  0  0  0  0  0  0  0  0  0
    5.8270   13.2854   25.6984 N   0  3  0  0  0  0  0  0  0  0  0  0
   10.1392   12.1556   22.7745 N   0  0  0  0  0  0  0  0  0  0  0  0
    8.0687    9.6687   24.4737 O   0  0  0  0  0  0  0  0  0  0  0  0
    9.8399   11.2995   25.7332 H   0  0  0  0  0  0  0  0  0  0  0  0
    9.0747   12.8570   25.3083 H   0  0  0  0  0  0  0  0  0  0  0  0
    7.5506   12.9636   23.6074 H   0  0  0  0  0  0  0  0  0  0  0  0
    7.1148   11.4894   22.6978 H   0  0  0  0  0  0  0  0  0  0  0  0
    8.8443    9.4675   22.5513 H   0  0  0  0  0  0  0  0  0  0  0  0
   10.0481    9.3828   23.8931 H   0  0  0  0  0  0  0  0  0  0  0  0
    6.8115   10.4644   26.6979 H   0  0  0  0  0  0  0  0  0  0  0  0
    5.6741   10.8686   25.3987 H   0  0  0  0  0  0  0  0  0  0  0  0
   10.8308   11.5469   22.3823 H   0  0  0  0  0  0  0  0  0  0  0  0
    9.6523   12.6224   22.0345 H   0  0  0  0  0  0  0  0  0  0  0  0
  1  4  1  0  0  0  0
  1  5  1  0  0  0  0
  2  4  1  0  0  0  0
  2  5  1  0  0  0  0
  3  4  1  0  0  0  0
  3 11  1  0  0  0  0
  4 10  1  0  0  0  0
  5  6  1  0  0  0  0
  5 11  1  0  0  0  0
  6  8  1  0  0  0  0
  7  9  2  0  0  0  0
  8  9  2  0  0  0  0
  1 12  1  0  0  0  0
  1 13  1  0  0  0  0
  2 14  1  0  0  0  0
  2 15  1  0  0  0  0
  3 16  1  0  0  0  0
  3 17  1  0  0  0  0
  6 18  1  0  0  0  0
  6 19  1  0  0  0  0
 10 20  1  0  0  0  0
 10 21  1  0  0  0  0
M  CHG  2   7  -1   9   1
M  END
> <id>
EN300-39847798

> <smiles>
Cl.NC1(CC2(CN=[N+]=[N-])C1)CO2

> <IUPAC Name>
1-(azidomethyl)-2-oxabicyclo[2.1.1]hexan-4-amine hydrochloride

> <CAS>
2866307-69-7

> <Purity>
95

> <URL>
https://www.enaminestore.com/catalog/EN300-39847798

> <ROCS_ShapeQuery>
x0812_0A_x1140_0A_x1097_0A_x0365_0A_x1097_0A_x0310_0A

> <ROCS_TanimotoCombo>
0.703 

> <ROCS_ShapeTanimoto>
0.210 

> <ROCS_ColorTanimoto>
0.493 

> <ROCS_RefTversky>
0.191 

> <ROCS_RefColorTversky>
0.553 

> <ROCS_RefTverskyCombo>
0.744 

> <ROCS_FitTversky>
1.941 

> <ROCS_FitColorTversky>
0.819 

> <ROCS_FitTverskyCombo>
2.759 

> <ROCS_ColorScore>
-8.222

> <ROCS_Overlap>
1926.159

> <ROCS_Rank>
326                 

$$$$
untitled-dbase-299875_0
  -OEChem-02092408543D

 26 27  0     1  0  0  0  0  0999 V2000
    8.0369   12.1884   23.2107 C   0  0  0  0  0  0  0  0  0  0  0  0
    7.0039   11.7339   24.2542 C   0  0  0  0  0  0  0  0  0  0  0  0
    9.2111   11.4749   25.1573 C   0  0  0  0  0  0  0  0  0  0  0  0
    9.0680    9.9291   23.4097 C   0  0  0  0  0  0  0  0  0  0  0  0
    9.3087   11.4253   23.6373 C   0  0  1  0  0  0  0  0  0  0  0  0
    7.8417   10.8074   25.1495 C   0  0  1  0  0  0  0  0  0  0  0  0
   10.5855   11.9569   23.0300 C   0  0  0  0  0  0  0  0  0  0  0  0
    7.2363   10.5063   26.4986 C   0  0  0  0  0  0  0  0  0  0  0  0
    5.9636    9.8719   26.3454 N   0  0  0  0  0  0  0  0  0  0  0  0
    8.0649    9.5899   24.3964 O   0  0  0  0  0  0  0  0  0  0  0  0
   10.5034   11.8608   21.6149 O   0  0  0  0  0  0  0  0  0  0  0  0
    7.7220   11.9420   22.1913 H   0  0  0  0  0  0  0  0  0  0  0  0
    8.1796   13.2737   23.2701 H   0  0  0  0  0  0  0  0  0  0  0  0
    6.6125   12.5971   24.8032 H   0  0  0  0  0  0  0  0  0  0  0  0
    6.1728   11.2053   23.7758 H   0  0  0  0  0  0  0  0  0  0  0  0
    9.9830   10.8707   25.6469 H   0  0  0  0  0  0  0  0  0  0  0  0
    9.2082   12.4875   25.5739 H   0  0  0  0  0  0  0  0  0  0  0  0
    8.6896    9.6932   22.4105 H   0  0  0  0  0  0  0  0  0  0  0  0
    9.9572    9.3224   23.6111 H   0  0  0  0  0  0  0  0  0  0  0  0
   11.4481   11.3745   23.3711 H   0  0  0  0  0  0  0  0  0  0  0  0
   10.7356   13.0072   23.3016 H   0  0  0  0  0  0  0  0  0  0  0  0
    7.9194    9.8434   27.0383 H   0  0  0  0  0  0  0  0  0  0  0  0
    7.1181   11.4511   27.0376 H   0  0  0  0  0  0  0  0  0  0  0  0
    5.2527   10.4230   26.7877 H   0  0  0  0  0  0  0  0  0  0  0  0
    5.7460    9.7767   25.3716 H   0  0  0  0  0  0  0  0  0  0  0  0
   11.3375   12.2099   21.2610 H   0  0  0  0  0  0  0  0  0  0  0  0
  1  2  1  0  0  0  0
  1  5  1  0  0  0  0
  2  6  1  0  0  0  0
  3  5  1  0  0  0  0
  3  6  1  0  0  0  0
  4  5  1  0  0  0  0
  4 10  1  0  0  0  0
  5  7  1  0  0  0  0
  6  8  1  0  0  0  0
  6 10  1  0  0  0  0
  7 11  1  0  0  0  0
  8  9  1  0  0  0  0
  1 12  1  0  0  0  0
  1 13  1  0  0  0  0
  2 14  1  0  0  0  0
  2 15  1  0  0  0  0
  3 16  1  0  0  0  0
  3 17  1  0  0  0  0
  4 18  1  0  0  0  0
  4 19  1  0  0  0  0
  7 20  1  0  0  0  0
  7 21  1  0  0  0  0
  8 22  1  0  0  0  0
  8 23  1  0  0  0  0
  9 24  1  0  0  0  0
  9 25  1  0  0  0  0
 11 26  1  0  0  0  0
M  END
> <id>
EN300-6735076

> <smiles>
NCC1(CCC2(CO)CO1)C2

> <MDLNUMBER>
MFCD31737130

> <IUPAC Name>
[1-(aminomethyl)-2-oxabicyclo[2.2.1]heptan-4-yl]methanol

> <CAS>
2260936-41-0

> <Purity>
95

> <URL>
https://www.enaminestore.com/catalog/EN300-6735076

> <ROCS_ShapeQuery>
x0812_0A_x1140_0A_x1097_0A_x0365_0A_x1097_0A_x0310_0A

> <ROCS_TanimotoCombo>
0.703 

> <ROCS_ShapeTanimoto>
0.212 

> <ROCS_ColorTanimoto>
0.491 

> <ROCS_RefTversky>
0.192 

> <ROCS_RefColorTversky>
0.584 

> <ROCS_RefTverskyCombo>
0.776 

> <ROCS_FitTversky>
1.957 

> <ROCS_FitColorTversky>
0.754 

> <ROCS_FitTverskyCombo>
2.712 

> <ROCS_ColorScore>
-8.731

> <ROCS_Overlap>
1940.086

> <ROCS_Rank>
327                 

$$$$
untitled-dbase-476271_3
  -OEChem-02092408543D

 30 32  0     0  0  0  0  0  0999 V2000
    9.7594   12.1263   22.3620 C   0  0  0  0  0  0  0  0  0  0  0  0
    8.9799   11.9780   24.9294 C   0  0  0  0  0  0  0  0  0  0  0  0
    7.4452   11.5137   23.5821 C   0  0  0  0  0  0  0  0  0  0  0  0
    9.1391    8.9585   22.5338 C   0  0  0  0  0  0  0  0  0  0  0  0
   10.6732    9.4225   23.8798 C   0  0  0  0  0  0  0  0  0  0  0  0
    9.0172   11.3875   23.4626 C   0  0  0  0  0  0  0  0  0  0  0  0
    9.2101    9.8611   23.7688 C   0  0  0  0  0  0  0  0  0  0  0  0
    7.7882   10.9415   25.0164 C   0  0  0  0  0  0  0  0  0  0  0  0
   11.0455   14.0620   21.9343 C   0  0  0  0  0  0  0  0  0  0  0  0
    6.7815   11.0494   26.1257 C   0  0  0  0  0  0  0  0  0  0  0  0
   10.6125    8.9633   22.4800 N   0  0  0  0  0  0  0  0  0  0  0  0
    9.8344   11.7359   21.2048 O   0  0  0  0  0  0  0  0  0  0  0  0
    8.3199    9.5833   24.8790 O   0  0  0  0  0  0  0  0  0  0  0  0
    5.5912   10.3623   25.7544 O   0  0  0  0  0  0  0  0  0  0  0  0
   10.3118   13.2649   22.8694 O   0  0  0  0  0  0  0  0  0  0  0  0
    9.8442   11.7606   25.5639 H   0  0  0  0  0  0  0  0  0  0  0  0
    8.7228   13.0391   25.0250 H   0  0  0  0  0  0  0  0  0  0  0  0
    7.0294   12.5268   23.5384 H   0  0  0  0  0  0  0  0  0  0  0  0
    6.8535   10.8559   22.9386 H   0  0  0  0  0  0  0  0  0  0  0  0
    8.7096    7.9691   22.7307 H   0  0  0  0  0  0  0  0  0  0  0  0
    8.6549    9.3743   21.6454 H   0  0  0  0  0  0  0  0  0  0  0  0
   11.4117   10.2081   24.0641 H   0  0  0  0  0  0  0  0  0  0  0  0
   10.8411    8.6138   24.6008 H   0  0  0  0  0  0  0  0  0  0  0  0
   11.4435   14.9449   22.4405 H   0  0  0  0  0  0  0  0  0  0  0  0
   10.3870   14.3639   21.1160 H   0  0  0  0  0  0  0  0  0  0  0  0
   11.8724   13.4702   21.5346 H   0  0  0  0  0  0  0  0  0  0  0  0
    6.5251   12.0983   26.3267 H   0  0  0  0  0  0  0  0  0  0  0  0
    7.1636   10.6002   27.0522 H   0  0  0  0  0  0  0  0  0  0  0  0
   11.0385    8.0544   22.3077 H   0  0  0  0  0  0  0  0  0  0  0  0
    4.9727   10.4576   26.4959 H   0  0  0  0  0  0  0  0  0  0  0  0
  1  6  1  0  0  0  0
  1 12  2  0  0  0  0
  1 15  1  0  0  0  0
  2  6  1  0  0  0  0
  2  8  1  0  0  0  0
  3  6  1  0  0  0  0
  3  8  1  0  0  0  0
  4  7  1  0  0  0  0
  4 11  1  0  0  0  0
  5  7  1  0  0  0  0
  5 11  1  0  0  0  0
  6  7  1  0  0  0  0
  7 13  1  0  0  0  0
  8 10  1  0  0  0  0
  8 13  1  0  0  0  0
  9 15  1  0  0  0  0
 10 14  1  0  0  0  0
  2 16  1  0  0  0  0
  2 17  1  0  0  0  0
  3 18  1  0  0  0  0
  3 19  1  0  0  0  0
  4 20  1  0  0  0  0
  4 21  1  0  0  0  0
  5 22  1  0  0  0  0
  5 23  1  0  0  0  0
  9 24  1  0  0  0  0
  9 25  1  0  0  0  0
  9 26  1  0  0  0  0
 10 27  1  0  0  0  0
 10 28  1  0  0  0  0
 11 29  1  0  0  0  0
 14 30  1  0  0  0  0
M  END
> <id>
EN300-27731573

> <smiles>
COC(=O)C1(CC2(CO)C1)C3(CNC3)O2

> <IUPAC Name>
methyl 4'-(hydroxymethyl)-3'-oxaspiro[azetidine-3,2'-bicyclo[2.1.1]hexane]-1'-carboxylate

> <CAS>
2580215-76-3

> <URL>
https://www.enaminestore.com/catalog/EN300-27731573

> <ROCS_ShapeQuery>
x0812_0A_x1140_0A_x1097_0A_x0365_0A_x1097_0A_x0310_0A

> <ROCS_TanimotoCombo>
0.703 

> <ROCS_ShapeTanimoto>
0.264 

> <ROCS_ColorTanimoto>
0.439 

> <ROCS_RefTversky>
0.233 

> <ROCS_RefColorTversky>
0.585 

> <ROCS_RefTverskyCombo>
0.818 

> <ROCS_FitTversky>
2.007 

> <ROCS_FitColorTversky>
0.637 

> <ROCS_FitTverskyCombo>
2.644 

> <ROCS_ColorScore>
-8.823

> <ROCS_Overlap>
2355.816

> <ROCS_Rank>
328                 

$$$$
untitled-dbase-561169_4
  -OEChem-02092408543D

 23 24  0     0  0  0  0  0  0999 V2000
    7.5773   11.8460   23.6399 C   0  0  0  0  0  0  0  0  0  0  0  0
    9.0352   11.7625   25.1420 C   0  0  0  0  0  0  0  0  0  0  0  0
    9.1388    9.9529   23.4799 C   0  0  0  0  0  0  0  0  0  0  0  0
    9.1106   11.4929   23.5930 C   0  0  0  0  0  0  0  0  0  0  0  0
    7.7167   10.9249   24.9143 C   0  0  0  0  0  0  0  0  0  0  0  0
   10.0576   12.2552   22.7161 C   0  0  0  0  0  0  0  0  0  0  0  0
    6.6404   10.8690   25.9553 C   0  0  0  0  0  0  0  0  0  0  0  0
   12.0958   10.6838   23.2147 O   0  0  0  0  0  0  0  0  0  0  0  0
   11.9259   12.8941   24.4407 O   0  0  0  0  0  0  0  0  0  0  0  0
    8.1272    9.6118   24.4428 O   0  0  0  0  0  0  0  0  0  0  0  0
    6.1638   12.1266   26.1772 F   0  0  0  0  0  0  0  0  0  0  0  0
   11.7343   12.0869   23.2523 S   0  0  0  0  0  0  0  0  0  0  0  0
   12.8957   12.9722   21.8169 Cl  0  0  0  0  0  0  0  0  0  0  0  0
    7.3147   12.8957   23.8118 H   0  0  0  0  0  0  0  0  0  0  0  0
    6.9654   11.4481   22.8252 H   0  0  0  0  0  0  0  0  0  0  0  0
    9.8069   11.2846   25.7524 H   0  0  0  0  0  0  0  0  0  0  0  0
    8.9143   12.8040   25.4598 H   0  0  0  0  0  0  0  0  0  0  0  0
    8.8431    9.5957   22.4893 H   0  0  0  0  0  0  0  0  0  0  0  0
   10.0983    9.5242   23.7831 H   0  0  0  0  0  0  0  0  0  0  0  0
    9.8344   13.3307   22.7181 H   0  0  0  0  0  0  0  0  0  0  0  0
   10.0232   11.8995   21.6777 H   0  0  0  0  0  0  0  0  0  0  0  0
    7.0166   10.4833   26.9117 H   0  0  0  0  0  0  0  0  0  0  0  0
    5.7953   10.2457   25.6356 H   0  0  0  0  0  0  0  0  0  0  0  0
  1  4  1  0  0  0  0
  1  5  1  0  0  0  0
  2  4  1  0  0  0  0
  2  5  1  0  0  0  0
  3  4  1  0  0  0  0
  3 10  1  0  0  0  0
  4  6  1  1  0  0  0
  5  7  1  1  0  0  0
  5 10  1  0  0  0  0
  6 12  1  0  0  0  0
  7 11  1  0  0  0  0
  8 12  2  0  0  0  0
  9 12  2  0  0  0  0
 12 13  1  0  0  0  0
  1 14  1  0  0  0  0
  1 15  1  0  0  0  0
  2 16  1  0  0  0  0
  2 17  1  0  0  0  0
  3 18  1  0  0  0  0
  3 19  1  0  0  0  0
  6 20  1  0  0  0  0
  6 21  1  0  0  0  0
  7 22  1  0  0  0  0
  7 23  1  0  0  0  0
M  END
> <id>
EN300-37375365

> <smiles>
FC[C@]1(C[C@@]2(CS(=O)(=O)Cl)C1)OC2

> <IUPAC Name>
[(1r,4r)-1-(fluoromethyl)-2-oxabicyclo[2.1.1]hexan-4-yl]methanesulfonyl chloride

> <CAS>
2418695-81-3

> <URL>
https://www.enaminestore.com/catalog/EN300-37375365

> <ROCS_ShapeQuery>
x0812_0A_x1140_0A_x1097_0A_x0365_0A_x1097_0A_x0310_0A

> <ROCS_TanimotoCombo>
0.703 

> <ROCS_ShapeTanimoto>
0.230 

> <ROCS_ColorTanimoto>
0.473 

> <ROCS_RefTversky>
0.206 

> <ROCS_RefColorTversky>
0.498 

> <ROCS_RefTverskyCombo>
0.704 

> <ROCS_FitTversky>
1.995 

> <ROCS_FitColorTversky>
0.903 

> <ROCS_FitTverskyCombo>
2.898 

> <ROCS_ColorScore>
-7.356

> <ROCS_Overlap>
2084.313

> <ROCS_Rank>
329                 

$$$$
untitled-dbase-585565_9
  -OEChem-02092408543D

 32 34  0     1  0  0  0  0  0999 V2000
   10.0225   11.9442   22.4359 C   0  0  0  0  0  0  0  0  0  0  0  0
    8.1077   11.7136   25.6585 C   0  0  0  0  0  0  0  0  0  0  0  0
    9.3915   12.0658   24.8824 C   0  0  0  0  0  0  0  0  0  0  0  0
    7.6727   11.5558   23.3155 C   0  0  0  0  0  0  0  0  0  0  0  0
   10.5191    9.1500   24.2367 C   0  0  0  0  0  0  0  0  0  0  0  0
    9.3778    8.9118   22.5086 C   0  0  0  0  0  0  0  0  0  0  0  0
    7.3274   10.8826   24.6381 C   0  0  1  0  0  0  0  0  0  0  0  0
    9.1816   11.3686   23.5201 C   0  0  1  0  0  0  0  0  0  0  0  0
    9.2266    9.8456   23.7417 C   0  0  0  0  0  0  0  0  0  0  0  0
   12.9796   12.9023   21.9864 C   0  0  0  0  0  0  0  0  0  0  0  0
   11.6408   13.6089   21.9956 C   0  0  0  0  0  0  0  0  0  0  0  0
   10.8036    8.7590   22.8446 N   0  0  0  0  0  0  0  0  0  0  0  0
   10.0165   11.5454   21.2791 O   0  0  0  0  0  0  0  0  0  0  0  0
    8.0169    9.6134   24.5254 O   0  0  0  0  0  0  0  0  0  0  0  0
   10.7788   12.9619   22.9372 O   0  0  0  0  0  0  0  0  0  0  0  0
    8.3417   11.1440   26.5634 H   0  0  0  0  0  0  0  0  0  0  0  0
    7.5667   12.6250   25.9332 H   0  0  0  0  0  0  0  0  0  0  0  0
    9.4788   13.1533   24.7692 H   0  0  0  0  0  0  0  0  0  0  0  0
   10.2844   11.7186   25.4108 H   0  0  0  0  0  0  0  0  0  0  0  0
    7.2965   11.0034   22.4474 H   0  0  0  0  0  0  0  0  0  0  0  0
    7.3571   12.6025   23.2529 H   0  0  0  0  0  0  0  0  0  0  0  0
   11.2852    9.7876   24.6857 H   0  0  0  0  0  0  0  0  0  0  0  0
   10.3453    8.2976   24.9039 H   0  0  0  0  0  0  0  0  0  0  0  0
    8.8111    7.9756   22.5780 H   0  0  0  0  0  0  0  0  0  0  0  0
    9.1856    9.3559   21.5276 H   0  0  0  0  0  0  0  0  0  0  0  0
    6.2670   10.7424   24.8533 H   0  0  0  0  0  0  0  0  0  0  0  0
   13.4486   12.9420   22.9734 H   0  0  0  0  0  0  0  0  0  0  0  0
   12.8608   11.8540   21.6933 H   0  0  0  0  0  0  0  0  0  0  0  0
   13.6537   13.3624   21.2562 H   0  0  0  0  0  0  0  0  0  0  0  0
   11.1772   13.5655   21.0056 H   0  0  0  0  0  0  0  0  0  0  0  0
   11.7612   14.6558   22.2895 H   0  0  0  0  0  0  0  0  0  0  0  0
   11.4030    9.4253   22.3570 H   0  0  0  0  0  0  0  0  0  0  0  0
  1  8  1  0  0  0  0
  1 13  2  0  0  0  0
  1 15  1  0  0  0  0
  2  3  1  0  0  0  0
  2  7  1  0  0  0  0
  3  8  1  0  0  0  0
  4  7  1  0  0  0  0
  4  8  1  0  0  0  0
  5  9  1  0  0  0  0
  5 12  1  0  0  0  0
  6  9  1  0  0  0  0
  6 12  1  0  0  0  0
  7 14  1  0  0  0  0
  8  9  1  0  0  0  0
  9 14  1  0  0  0  0
 10 11  1  0  0  0  0
 11 15  1  0  0  0  0
  2 16  1  0  0  0  0
  2 17  1  0  0  0  0
  3 18  1  0  0  0  0
  3 19  1  0  0  0  0
  4 20  1  0  0  0  0
  4 21  1  0  0  0  0
  5 22  1  0  0  0  0
  5 23  1  0  0  0  0
  6 24  1  0  0  0  0
  6 25  1  0  0  0  0
  7 26  1  0  0  0  0
 10 27  1  0  0  0  0
 10 28  1  0  0  0  0
 10 29  1  0  0  0  0
 11 30  1  0  0  0  0
 11 31  1  0  0  0  0
 12 32  1  0  0  0  0
M  END
> <id>
EN300-43381894

> <smiles>
CCOC(=O)C1(CCC2C1)C3(CNC3)O2

> <IUPAC Name>
ethyl 3'-oxaspiro[azetidine-3,2'-bicyclo[2.2.1]heptane]-1'-carboxylate

> <URL>
https://www.enaminestore.com/catalog/EN300-43381894

> <ROCS_ShapeQuery>
x0812_0A_x1140_0A_x1097_0A_x0365_0A_x1097_0A_x0310_0A

> <ROCS_TanimotoCombo>
0.702 

> <ROCS_ShapeTanimoto>
0.250 

> <ROCS_ColorTanimoto>
0.453 

> <ROCS_RefTversky>
0.223 

> <ROCS_RefColorTversky>
0.553 

> <ROCS_RefTverskyCombo>
0.776 

> <ROCS_FitTversky>
1.914 

> <ROCS_FitColorTversky>
0.713 

> <ROCS_FitTverskyCombo>
2.628 

> <ROCS_ColorScore>
-8.270

> <ROCS_Overlap>
2257.033

> <ROCS_Rank>
330                 

$$$$
untitled-dbase-183689_2
  -OEChem-02092408543D

 36 38  0     0  0  0  0  0  0999 V2000
   11.5207   15.6825   22.0743 C   0  0  0  0  0  0  0  0  0  0  0  0
    8.8654   10.5278   25.6932 C   0  0  0  0  0  0  0  0  0  0  0  0
    8.7253    9.5691   23.3804 C   0  0  0  0  0  0  0  0  0  0  0  0
    6.7334   10.7130   24.3862 C   0  0  0  0  0  0  0  0  0  0  0  0
   10.1177   11.6104   23.8091 C   0  0  0  0  0  0  0  0  0  0  0  0
    8.1214   12.7570   24.8173 C   0  0  0  0  0  0  0  0  0  0  0  0
    7.9807   11.7962   22.4994 C   0  0  0  0  0  0  0  0  0  0  0  0
    9.6464   10.2677   24.3944 C   0  0  0  0  0  0  0  0  0  0  0  0
    7.6446   11.4173   25.4052 C   0  0  0  0  0  0  0  0  0  0  0  0
    7.5037   10.4538   23.0809 C   0  0  0  0  0  0  0  0  0  0  0  0
    8.9058   12.5225   23.5046 C   0  0  0  0  0  0  0  0  0  0  0  0
   10.6891   14.9774   21.0900 C   0  0  0  0  0  0  0  0  0  0  0  0
    9.3784   13.8574   22.9227 C   0  0  0  0  0  0  0  0  0  0  0  0
   10.1873   13.6456   21.6475 C   0  0  0  0  0  0  0  0  0  0  0  0
   12.1786   16.2406   22.8503 N   0  0  0  0  0  0  0  0  0  0  0  0
    8.5401    9.5762   26.1314 H   0  0  0  0  0  0  0  0  0  0  0  0
    9.5163   11.0122   26.4314 H   0  0  0  0  0  0  0  0  0  0  0  0
    9.2755    9.3635   22.4539 H   0  0  0  0  0  0  0  0  0  0  0  0
    8.3977    8.6005   23.7776 H   0  0  0  0  0  0  0  0  0  0  0  0
    6.3705    9.7647   24.8014 H   0  0  0  0  0  0  0  0  0  0  0  0
    5.8498   11.3306   24.1836 H   0  0  0  0  0  0  0  0  0  0  0  0
   10.7951   12.1037   24.5182 H   0  0  0  0  0  0  0  0  0  0  0  0
   10.6966   11.4304   22.8941 H   0  0  0  0  0  0  0  0  0  0  0  0
    7.2562   13.4064   24.6316 H   0  0  0  0  0  0  0  0  0  0  0  0
    8.7533   13.2763   25.5493 H   0  0  0  0  0  0  0  0  0  0  0  0
    8.5109   11.6206   21.5543 H   0  0  0  0  0  0  0  0  0  0  0  0
    7.1123   12.4237   22.2612 H   0  0  0  0  0  0  0  0  0  0  0  0
   10.5136    9.6320   24.6054 H   0  0  0  0  0  0  0  0  0  0  0  0
    7.0910   11.5975   26.3335 H   0  0  0  0  0  0  0  0  0  0  0  0
    6.8504    9.9501   22.3597 H   0  0  0  0  0  0  0  0  0  0  0  0
   11.2719   14.8032   20.1781 H   0  0  0  0  0  0  0  0  0  0  0  0
    9.8376   15.6092   20.8120 H   0  0  0  0  0  0  0  0  0  0  0  0
    8.5030   14.4787   22.7182 H   0  0  0  0  0  0  0  0  0  0  0  0
    9.9825   14.3711   23.6746 H   0  0  0  0  0  0  0  0  0  0  0  0
    9.5694   13.1378   20.8957 H   0  0  0  0  0  0  0  0  0  0  0  0
   11.0392   12.9848   21.8533 H   0  0  0  0  0  0  0  0  0  0  0  0
  1 12  1  0  0  0  0
  1 15  3  0  0  0  0
  2  8  1  0  0  0  0
  2  9  1  0  0  0  0
  3  8  1  0  0  0  0
  3 10  1  0  0  0  0
  4  9  1  0  0  0  0
  4 10  1  0  0  0  0
  5  8  1  0  0  0  0
  5 11  1  0  0  0  0
  6  9  1  0  0  0  0
  6 11  1  0  0  0  0
  7 10  1  0  0  0  0
  7 11  1  0  0  0  0
 11 13  1  0  0  0  0
 12 14  1  0  0  0  0
 13 14  1  0  0  0  0
  2 16  1  0  0  0  0
  2 17  1  0  0  0  0
  3 18  1  0  0  0  0
  3 19  1  0  0  0  0
  4 20  1  0  0  0  0
  4 21  1  0  0  0  0
  5 22  1  0  0  0  0
  5 23  1  0  0  0  0
  6 24  1  0  0  0  0
  6 25  1  0  0  0  0
  7 26  1  0  0  0  0
  7 27  1  0  0  0  0
  8 28  1  0  0  0  0
  9 29  1  0  0  0  0
 10 30  1  0  0  0  0
 12 31  1  0  0  0  0
 12 32  1  0  0  0  0
 13 33  1  0  0  0  0
 13 34  1  0  0  0  0
 14 35  1  0  0  0  0
 14 36  1  0  0  0  0
M  END
> <id>
EN300-1856193

> <smiles>
N#CCCCC1(CC2CC3CC(C2)C1)C3

> <IUPAC Name>
4-(adamantan-1-yl)butanenitrile

> <CAS>
1782262-71-8

> <URL>
https://www.enaminestore.com/catalog/EN300-1856193

> <ROCS_ShapeQuery>
x0812_0A_x1140_0A_x1097_0A_x0365_0A_x1097_0A_x0310_0A

> <ROCS_TanimotoCombo>
0.702 

> <ROCS_ShapeTanimoto>
0.223 

> <ROCS_ColorTanimoto>
0.479 

> <ROCS_RefTversky>
0.203 

> <ROCS_RefColorTversky>
0.496 

> <ROCS_RefTverskyCombo>
0.700 

> <ROCS_FitTversky>
1.785 

> <ROCS_FitColorTversky>
0.933 

> <ROCS_FitTverskyCombo>
2.718 

> <ROCS_ColorScore>
-7.325

> <ROCS_Overlap>
2053.445

> <ROCS_Rank>
331                 

$$$$
untitled-dbase-350131_5
  -OEChem-02092408543D

 40 41  0     1  0  0  0  0  0999 V2000
    7.0795   13.7446   25.2522 C   0  0  0  0  0  0  0  0  0  0  0  0
    7.3276    9.8499   23.8675 C   0  0  0  0  0  0  0  0  0  0  0  0
    8.0684    9.7426   25.2087 C   0  0  0  0  0  0  0  0  0  0  0  0
    7.6838   12.2797   23.2981 C   0  0  0  0  0  0  0  0  0  0  0  0
    8.9070   12.1003   25.5044 C   0  0  0  0  0  0  0  0  0  0  0  0
    8.1607   10.8432   23.0287 C   0  0  1  0  0  0  0  0  0  0  0  0
    9.2891   10.6777   25.0673 C   0  0  2  0  0  0  0  0  0  0  0  0
    9.5841   10.6167   23.5610 C   0  0  0  0  0  0  0  0  0  0  0  0
    6.8376   16.2956   26.5243 C   0  0  0  0  0  0  0  0  0  0  0  0
    8.0862   15.2533   28.4384 C   0  0  0  0  0  0  0  0  0  0  0  0
    9.1846   15.4511   26.1884 C   0  0  0  0  0  0  0  0  0  0  0  0
   10.6508   11.5808   23.0531 C   0  0  0  0  0  0  0  0  0  0  0  0
    7.8643   15.2383   26.9276 C   0  0  0  0  0  0  0  0  0  0  0  0
    7.8171   12.6838   24.7094 N   0  0  0  0  0  0  0  0  0  0  0  0
    6.2720   14.4211   24.6177 O   0  0  0  0  0  0  0  0  0  0  0  0
   10.0245    9.2959   23.2262 O   0  0  0  0  0  0  0  0  0  0  0  0
    7.3500   13.9477   26.5799 O   0  0  0  0  0  0  0  0  0  0  0  0
   10.3335   12.8408   23.3905 F   0  0  0  0  0  0  0  0  0  0  0  0
   11.8427   11.2761   23.5905 F   0  0  0  0  0  0  0  0  0  0  0  0
   10.7461   11.5020   21.7163 F   0  0  0  0  0  0  0  0  0  0  0  0
    7.3028    8.8671   23.3820 H   0  0  0  0  0  0  0  0  0  0  0  0
    6.2900   10.1736   23.9991 H   0  0  0  0  0  0  0  0  0  0  0  0
    7.4253   10.0109   26.0534 H   0  0  0  0  0  0  0  0  0  0  0  0
    8.3968    8.7080   25.3645 H   0  0  0  0  0  0  0  0  0  0  0  0
    8.2530   13.0005   22.7006 H   0  0  0  0  0  0  0  0  0  0  0  0
    6.6357   12.3802   22.9935 H   0  0  0  0  0  0  0  0  0  0  0  0
    8.6143   12.1025   26.5612 H   0  0  0  0  0  0  0  0  0  0  0  0
    9.7653   12.7769   25.4209 H   0  0  0  0  0  0  0  0  0  0  0  0
    8.0702   10.6045   21.9636 H   0  0  0  0  0  0  0  0  0  0  0  0
   10.1218   10.3037   25.6726 H   0  0  0  0  0  0  0  0  0  0  0  0
    6.6755   16.2880   25.4405 H   0  0  0  0  0  0  0  0  0  0  0  0
    5.8753   16.1336   27.0210 H   0  0  0  0  0  0  0  0  0  0  0  0
    7.1923   17.3015   26.7768 H   0  0  0  0  0  0  0  0  0  0  0  0
    8.8222   14.4962   28.7322 H   0  0  0  0  0  0  0  0  0  0  0  0
    7.1606   15.0072   28.9713 H   0  0  0  0  0  0  0  0  0  0  0  0
    8.4367   16.2306   28.7856 H   0  0  0  0  0  0  0  0  0  0  0  0
    9.9212   14.6928   26.4775 H   0  0  0  0  0  0  0  0  0  0  0  0
    9.0507   15.4066   25.1027 H   0  0  0  0  0  0  0  0  0  0  0  0
    9.6231   16.4220   26.4458 H   0  0  0  0  0  0  0  0  0  0  0  0
   10.0041    9.2419   22.2601 H   0  0  0  0  0  0  0  0  0  0  0  0
  1 14  1  0  0  0  0
  1 15  2  0  0  0  0
  1 17  1  0  0  0  0
  2  3  1  0  0  0  0
  2  6  1  0  0  0  0
  3  7  1  0  0  0  0
  4  6  1  0  0  0  0
  4 14  1  0  0  0  0
  5  7  1  0  0  0  0
  5 14  1  0  0  0  0
  6  8  1  0  0  0  0
  7  8  1  0  0  0  0
  8 12  1  0  0  0  0
  8 16  1  0  0  0  0
  9 13  1  0  0  0  0
 10 13  1  0  0  0  0
 11 13  1  0  0  0  0
 12 18  1  0  0  0  0
 12 19  1  0  0  0  0
 12 20  1  0  0  0  0
 13 17  1  0  0  0  0
  2 21  1  0  0  0  0
  2 22  1  0  0  0  0
  3 23  1  0  0  0  0
  3 24  1  0  0  0  0
  4 25  1  0  0  0  0
  4 26  1  0  0  0  0
  5 27  1  0  0  0  0
  5 28  1  0  0  0  0
  6 29  1  0  0  0  0
  7 30  1  0  0  0  0
  9 31  1  0  0  0  0
  9 32  1  0  0  0  0
  9 33  1  0  0  0  0
 10 34  1  0  0  0  0
 10 35  1  0  0  0  0
 10 36  1  0  0  0  0
 11 37  1  0  0  0  0
 11 38  1  0  0  0  0
 11 39  1  0  0  0  0
 16 40  1  0  0  0  0
M  END
> <id>
EN300-26665937

> <smiles>
CC(C)(C)OC(=O)N1CC2CCC(C1)C2(O)C(F)(F)F

> <IUPAC Name>
tert-butyl 8-hydroxy-8-(trifluoromethyl)-3-azabicyclo[3.2.1]octane-3-carboxylate

> <CAS>
2413886-80-1

> <URL>
https://www.enaminestore.com/catalog/EN300-26665937

> <ROCS_ShapeQuery>
x0812_0A_x1140_0A_x1097_0A_x0365_0A_x1097_0A_x0310_0A

> <ROCS_TanimotoCombo>
0.702 

> <ROCS_ShapeTanimoto>
0.250 

> <ROCS_ColorTanimoto>
0.452 

> <ROCS_RefTversky>
0.228 

> <ROCS_RefColorTversky>
0.522 

> <ROCS_RefTverskyCombo>
0.750 

> <ROCS_FitTversky>
1.652 

> <ROCS_FitColorTversky>
0.771 

> <ROCS_FitTverskyCombo>
2.423 

> <ROCS_ColorScore>
-7.764

> <ROCS_Overlap>
2306.975

> <ROCS_Rank>
332                 

$$$$
untitled-dbase-474029_2
  -OEChem-02092408543D

 30 31  0     1  0  0  0  0  0999 V2000
   10.3865   11.9024   22.4688 C   0  0  0  0  0  0  0  0  0  0  0  0
    7.7860   12.1181   25.2614 C   0  0  0  0  0  0  0  0  0  0  0  0
    7.6863   10.6331   25.6403 C   0  0  0  0  0  0  0  0  0  0  0  0
    7.5176   10.8368   23.2802 C   0  0  0  0  0  0  0  0  0  0  0  0
    9.7410   11.5999   23.7905 C   0  0  1  0  0  0  0  0  0  0  0  0
    8.2671   12.0667   23.8012 C   0  0  2  0  0  0  0  0  0  0  0  0
    8.1077    9.9112   24.3446 C   0  0  1  0  0  0  0  0  0  0  0  0
    9.6346   10.0917   24.1455 C   0  0  1  0  0  0  0  0  0  0  0  0
   11.5903   14.3589   20.9258 C   0  0  0  0  0  0  0  0  0  0  0  0
   12.1806   13.0794   21.4791 C   0  0  0  0  0  0  0  0  0  0  0  0
   10.1563    9.1914   23.1204 N   0  0  0  0  0  0  0  0  0  0  0  0
    9.9835   11.4747   21.3956 O   0  0  0  0  0  0  0  0  0  0  0  0
   11.4670   12.7109   22.6636 O   0  0  0  0  0  0  0  0  0  0  0  0
    6.7997   12.5910   25.3303 H   0  0  0  0  0  0  0  0  0  0  0  0
    8.4725   12.6658   25.9146 H   0  0  0  0  0  0  0  0  0  0  0  0
    8.3285   10.3809   26.4901 H   0  0  0  0  0  0  0  0  0  0  0  0
    6.6535   10.3819   25.9072 H   0  0  0  0  0  0  0  0  0  0  0  0
    6.4290   10.9359   23.3531 H   0  0  0  0  0  0  0  0  0  0  0  0
    7.7840   10.5620   22.2556 H   0  0  0  0  0  0  0  0  0  0  0  0
   10.3347   12.1263   24.5477 H   0  0  0  0  0  0  0  0  0  0  0  0
    8.0778   12.9881   23.2454 H   0  0  0  0  0  0  0  0  0  0  0  0
    7.7668    8.8736   24.3061 H   0  0  0  0  0  0  0  0  0  0  0  0
   10.1706    9.8869   25.0795 H   0  0  0  0  0  0  0  0  0  0  0  0
   10.5358   14.2233   20.6698 H   0  0  0  0  0  0  0  0  0  0  0  0
   11.6755   15.1706   21.6557 H   0  0  0  0  0  0  0  0  0  0  0  0
   12.1330   14.6783   20.0299 H   0  0  0  0  0  0  0  0  0  0  0  0
   13.2353   13.2218   21.7330 H   0  0  0  0  0  0  0  0  0  0  0  0
   12.0940   12.2693   20.7489 H   0  0  0  0  0  0  0  0  0  0  0  0
    9.4071    8.6315   22.7886 H   0  0  0  0  0  0  0  0  0  0  0  0
   10.5340    9.7429   22.3869 H   0  0  0  0  0  0  0  0  0  0  0  0
  1  5  1  1  0  0  0
  1 12  2  0  0  0  0
  1 13  1  0  0  0  0
  2  3  1  0  0  0  0
  2  6  1  0  0  0  0
  3  7  1  0  0  0  0
  4  6  1  1  0  0  0
  4  7  1  1  0  0  0
  5  6  1  0  0  0  0
  5  8  1  0  0  0  0
  7  8  1  0  0  0  0
  8 11  1  1  0  0  0
  9 10  1  0  0  0  0
 10 13  1  0  0  0  0
  2 14  1  0  0  0  0
  2 15  1  0  0  0  0
  3 16  1  0  0  0  0
  3 17  1  0  0  0  0
  4 18  1  0  0  0  0
  4 19  1  0  0  0  0
  5 20  1  0  0  0  0
  6 21  1  0  0  0  0
  7 22  1  0  0  0  0
  8 23  1  0  0  0  0
  9 24  1  0  0  0  0
  9 25  1  0  0  0  0
  9 26  1  0  0  0  0
 10 27  1  0  0  0  0
 10 28  1  0  0  0  0
 11 29  1  0  0  0  0
 11 30  1  0  0  0  0
M  END
> <id>
EN300-27732267

> <smiles>
CCOC(=O)[C@@H]1[C@H](N)[C@H]2CC[C@@H]1C2 |o1:5,6,8,11,r|

> <IUPAC Name>
rel-ethyl (1R,2S,3R,4S)-3-aminobicyclo[2.2.1]heptane-2-carboxylate

> <CAS>
342419-22-1

> <URL>
https://www.enaminestore.com/catalog/EN300-27732267

> <ROCS_ShapeQuery>
x0812_0A_x1140_0A_x1097_0A_x0365_0A_x1097_0A_x0310_0A

> <ROCS_TanimotoCombo>
0.702 

> <ROCS_ShapeTanimoto>
0.229 

> <ROCS_ColorTanimoto>
0.473 

> <ROCS_RefTversky>
0.206 

> <ROCS_RefColorTversky>
0.529 

> <ROCS_RefTverskyCombo>
0.735 

> <ROCS_FitTversky>
1.951 

> <ROCS_FitColorTversky>
0.817 

> <ROCS_FitTverskyCombo>
2.768 

> <ROCS_ColorScore>
-7.850

> <ROCS_Overlap>
2085.681

> <ROCS_Rank>
333                 

$$$$
untitled-dbase-590898_2
  -OEChem-02092408543D

 30 31  0     1  0  0  0  0  0999 V2000
   10.3865   11.9024   22.4688 C   0  0  0  0  0  0  0  0  0  0  0  0
    7.7860   12.1181   25.2614 C   0  0  0  0  0  0  0  0  0  0  0  0
    7.6863   10.6331   25.6403 C   0  0  0  0  0  0  0  0  0  0  0  0
    7.5176   10.8368   23.2802 C   0  0  0  0  0  0  0  0  0  0  0  0
    9.7410   11.5999   23.7905 C   0  0  1  0  0  0  0  0  0  0  0  0
    8.2671   12.0667   23.8012 C   0  0  2  0  0  0  0  0  0  0  0  0
    8.1077    9.9112   24.3446 C   0  0  1  0  0  0  0  0  0  0  0  0
    9.6346   10.0917   24.1455 C   0  0  1  0  0  0  0  0  0  0  0  0
   11.5903   14.3589   20.9258 C   0  0  0  0  0  0  0  0  0  0  0  0
   12.1806   13.0794   21.4791 C   0  0  0  0  0  0  0  0  0  0  0  0
   10.1563    9.1914   23.1204 N   0  0  0  0  0  0  0  0  0  0  0  0
    9.9835   11.4747   21.3956 O   0  0  0  0  0  0  0  0  0  0  0  0
   11.4670   12.7109   22.6636 O   0  0  0  0  0  0  0  0  0  0  0  0
    6.7997   12.5910   25.3303 H   0  0  0  0  0  0  0  0  0  0  0  0
    8.4725   12.6658   25.9146 H   0  0  0  0  0  0  0  0  0  0  0  0
    8.3285   10.3809   26.4901 H   0  0  0  0  0  0  0  0  0  0  0  0
    6.6535   10.3819   25.9072 H   0  0  0  0  0  0  0  0  0  0  0  0
    6.4290   10.9359   23.3531 H   0  0  0  0  0  0  0  0  0  0  0  0
    7.7840   10.5620   22.2556 H   0  0  0  0  0  0  0  0  0  0  0  0
   10.3347   12.1263   24.5477 H   0  0  0  0  0  0  0  0  0  0  0  0
    8.0778   12.9881   23.2454 H   0  0  0  0  0  0  0  0  0  0  0  0
    7.7668    8.8736   24.3061 H   0  0  0  0  0  0  0  0  0  0  0  0
   10.1706    9.8869   25.0795 H   0  0  0  0  0  0  0  0  0  0  0  0
   10.5358   14.2233   20.6698 H   0  0  0  0  0  0  0  0  0  0  0  0
   11.6755   15.1706   21.6557 H   0  0  0  0  0  0  0  0  0  0  0  0
   12.1330   14.6783   20.0299 H   0  0  0  0  0  0  0  0  0  0  0  0
   13.2353   13.2218   21.7330 H   0  0  0  0  0  0  0  0  0  0  0  0
   12.0940   12.2693   20.7489 H   0  0  0  0  0  0  0  0  0  0  0  0
    9.4071    8.6315   22.7886 H   0  0  0  0  0  0  0  0  0  0  0  0
   10.5340    9.7429   22.3869 H   0  0  0  0  0  0  0  0  0  0  0  0
  1  5  1  1  0  0  0
  1 12  2  0  0  0  0
  1 13  1  0  0  0  0
  2  3  1  0  0  0  0
  2  6  1  0  0  0  0
  3  7  1  0  0  0  0
  4  6  1  1  0  0  0
  4  7  1  1  0  0  0
  5  6  1  0  0  0  0
  5  8  1  0  0  0  0
  7  8  1  0  0  0  0
  8 11  1  1  0  0  0
  9 10  1  0  0  0  0
 10 13  1  0  0  0  0
  2 14  1  0  0  0  0
  2 15  1  0  0  0  0
  3 16  1  0  0  0  0
  3 17  1  0  0  0  0
  4 18  1  0  0  0  0
  4 19  1  0  0  0  0
  5 20  1  0  0  0  0
  6 21  1  0  0  0  0
  7 22  1  0  0  0  0
  8 23  1  0  0  0  0
  9 24  1  0  0  0  0
  9 25  1  0  0  0  0
  9 26  1  0  0  0  0
 10 27  1  0  0  0  0
 10 28  1  0  0  0  0
 11 29  1  0  0  0  0
 11 30  1  0  0  0  0
M  END
> <id>
EN300-19721572

> <smiles>
CCOC(=O)[C@@H]1[C@H](N)[C@H]2CC[C@@H]1C2

> <MDLNUMBER>
MFCD20760299

> <IUPAC Name>
ethyl (1R,2S,3R,4S)-3-aminobicyclo[2.2.1]heptane-2-carboxylate

> <URL>
https://www.enaminestore.com/catalog/EN300-19721572

> <ROCS_ShapeQuery>
x0812_0A_x1140_0A_x1097_0A_x0365_0A_x1097_0A_x0310_0A

> <ROCS_TanimotoCombo>
0.702 

> <ROCS_ShapeTanimoto>
0.229 

> <ROCS_ColorTanimoto>
0.473 

> <ROCS_RefTversky>
0.206 

> <ROCS_RefColorTversky>
0.529 

> <ROCS_RefTverskyCombo>
0.735 

> <ROCS_FitTversky>
1.951 

> <ROCS_FitColorTversky>
0.817 

> <ROCS_FitTverskyCombo>
2.768 

> <ROCS_ColorScore>
-7.850

> <ROCS_Overlap>
2085.681

> <ROCS_Rank>
334                 

$$$$
untitled-dbase-395130_2
  -OEChem-02092408543D

 30 31  0     1  0  0  0  0  0999 V2000
   10.3865   11.9024   22.4688 C   0  0  0  0  0  0  0  0  0  0  0  0
    7.7860   12.1181   25.2614 C   0  0  0  0  0  0  0  0  0  0  0  0
    7.6863   10.6331   25.6403 C   0  0  0  0  0  0  0  0  0  0  0  0
    7.5176   10.8368   23.2802 C   0  0  0  0  0  0  0  0  0  0  0  0
    9.7410   11.5999   23.7905 C   0  0  1  0  0  0  0  0  0  0  0  0
    8.2671   12.0667   23.8012 C   0  0  2  0  0  0  0  0  0  0  0  0
    8.1077    9.9112   24.3446 C   0  0  1  0  0  0  0  0  0  0  0  0
    9.6346   10.0917   24.1455 C   0  0  1  0  0  0  0  0  0  0  0  0
   11.5903   14.3589   20.9258 C   0  0  0  0  0  0  0  0  0  0  0  0
   12.1806   13.0794   21.4791 C   0  0  0  0  0  0  0  0  0  0  0  0
   10.1563    9.1914   23.1204 N   0  0  0  0  0  0  0  0  0  0  0  0
    9.9835   11.4747   21.3956 O   0  0  0  0  0  0  0  0  0  0  0  0
   11.4670   12.7109   22.6636 O   0  0  0  0  0  0  0  0  0  0  0  0
    6.7997   12.5910   25.3303 H   0  0  0  0  0  0  0  0  0  0  0  0
    8.4725   12.6658   25.9146 H   0  0  0  0  0  0  0  0  0  0  0  0
    8.3285   10.3809   26.4901 H   0  0  0  0  0  0  0  0  0  0  0  0
    6.6535   10.3819   25.9072 H   0  0  0  0  0  0  0  0  0  0  0  0
    6.4290   10.9359   23.3531 H   0  0  0  0  0  0  0  0  0  0  0  0
    7.7840   10.5620   22.2556 H   0  0  0  0  0  0  0  0  0  0  0  0
   10.3347   12.1263   24.5477 H   0  0  0  0  0  0  0  0  0  0  0  0
    8.0778   12.9881   23.2454 H   0  0  0  0  0  0  0  0  0  0  0  0
    7.7668    8.8736   24.3061 H   0  0  0  0  0  0  0  0  0  0  0  0
   10.1706    9.8869   25.0795 H   0  0  0  0  0  0  0  0  0  0  0  0
   10.5358   14.2233   20.6698 H   0  0  0  0  0  0  0  0  0  0  0  0
   11.6755   15.1706   21.6557 H   0  0  0  0  0  0  0  0  0  0  0  0
   12.1330   14.6783   20.0299 H   0  0  0  0  0  0  0  0  0  0  0  0
   13.2353   13.2218   21.7330 H   0  0  0  0  0  0  0  0  0  0  0  0
   12.0940   12.2693   20.7489 H   0  0  0  0  0  0  0  0  0  0  0  0
    9.4071    8.6315   22.7886 H   0  0  0  0  0  0  0  0  0  0  0  0
   10.5340    9.7429   22.3869 H   0  0  0  0  0  0  0  0  0  0  0  0
  1  5  1  1  0  0  0
  1 12  2  0  0  0  0
  1 13  1  0  0  0  0
  2  3  1  0  0  0  0
  2  6  1  0  0  0  0
  3  7  1  0  0  0  0
  4  6  1  1  0  0  0
  4  7  1  1  0  0  0
  5  6  1  0  0  0  0
  5  8  1  0  0  0  0
  7  8  1  0  0  0  0
  8 11  1  1  0  0  0
  9 10  1  0  0  0  0
 10 13  1  0  0  0  0
  2 14  1  0  0  0  0
  2 15  1  0  0  0  0
  3 16  1  0  0  0  0
  3 17  1  0  0  0  0
  4 18  1  0  0  0  0
  4 19  1  0  0  0  0
  5 20  1  0  0  0  0
  6 21  1  0  0  0  0
  7 22  1  0  0  0  0
  8 23  1  0  0  0  0
  9 24  1  0  0  0  0
  9 25  1  0  0  0  0
  9 26  1  0  0  0  0
 10 27  1  0  0  0  0
 10 28  1  0  0  0  0
 11 29  1  0  0  0  0
 11 30  1  0  0  0  0
M  END
> <id>
EN300-6508643

> <smiles>
CCOC(=O)[C@@H]1[C@H](N)[C@H]2CC[C@@H]1C2 |&1:5,6,8,11,r|

> <IUPAC Name>
rac-ethyl (1R,2S,3R,4S)-3-aminobicyclo[2.2.1]heptane-2-carboxylate

> <CAS>
105786-35-4

> <URL>
https://www.enaminestore.com/catalog/EN300-6508643

> <ROCS_ShapeQuery>
x0812_0A_x1140_0A_x1097_0A_x0365_0A_x1097_0A_x0310_0A

> <ROCS_TanimotoCombo>
0.702 

> <ROCS_ShapeTanimoto>
0.229 

> <ROCS_ColorTanimoto>
0.473 

> <ROCS_RefTversky>
0.206 

> <ROCS_RefColorTversky>
0.529 

> <ROCS_RefTverskyCombo>
0.735 

> <ROCS_FitTversky>
1.951 

> <ROCS_FitColorTversky>
0.817 

> <ROCS_FitTverskyCombo>
2.768 

> <ROCS_ColorScore>
-7.850

> <ROCS_Overlap>
2085.681

> <ROCS_Rank>
335                 

$$$$
untitled-dbase-358567_1
  -OEChem-02092408543D

 23 24  0     0  0  0  0  0  0999 V2000
    8.3075   11.8291   25.2688 C   0  0  0  0  0  0  0  0  0  0  0  0
    7.8399   11.7046   23.2305 C   0  0  0  0  0  0  0  0  0  0  0  0
    9.5372   10.1073   24.0151 C   0  0  0  0  0  0  0  0  0  0  0  0
    9.2116   11.6169   23.9977 C   0  0  0  0  0  0  0  0  0  0  0  0
    7.4466   10.7870   24.4534 C   0  0  0  0  0  0  0  0  0  0  0  0
   10.3403   12.5510   23.6809 C   0  0  0  0  0  0  0  0  0  0  0  0
    6.0124   10.5227   24.7978 C   0  0  0  0  0  0  0  0  0  0  0  0
   10.7136   12.4506   22.3001 N   0  0  0  0  0  0  0  0  0  0  0  0
    8.2430    9.5750   24.3447 O   0  0  0  0  0  0  0  0  0  0  0  0
    5.9242   10.0314   26.1323 O   0  0  0  0  0  0  0  0  0  0  0  0
    8.7186   11.4732   26.2179 H   0  0  0  0  0  0  0  0  0  0  0  0
    7.8773   12.8267   25.4108 H   0  0  0  0  0  0  0  0  0  0  0  0
    7.3643   12.6900   23.1745 H   0  0  0  0  0  0  0  0  0  0  0  0
    7.8074   11.2300   22.2454 H   0  0  0  0  0  0  0  0  0  0  0  0
    9.8544    9.7317   23.0381 H   0  0  0  0  0  0  0  0  0  0  0  0
   10.2574    9.8387   24.7932 H   0  0  0  0  0  0  0  0  0  0  0  0
   10.0178   13.5773   23.8977 H   0  0  0  0  0  0  0  0  0  0  0  0
   11.1998   12.2894   24.3110 H   0  0  0  0  0  0  0  0  0  0  0  0
    5.5729    9.7706   24.1269 H   0  0  0  0  0  0  0  0  0  0  0  0
    5.4099   11.4401   24.7307 H   0  0  0  0  0  0  0  0  0  0  0  0
   11.6724   12.1712   22.2296 H   0  0  0  0  0  0  0  0  0  0  0  0
   10.1368   11.7712   21.8441 H   0  0  0  0  0  0  0  0  0  0  0  0
    4.9832    9.8761   26.3083 H   0  0  0  0  0  0  0  0  0  0  0  0
  1  4  1  0  0  0  0
  1  5  1  0  0  0  0
  2  4  1  0  0  0  0
  2  5  1  0  0  0  0
  3  4  1  0  0  0  0
  3  9  1  0  0  0  0
  4  6  1  0  0  0  0
  5  7  1  0  0  0  0
  5  9  1  0  0  0  0
  6  8  1  0  0  0  0
  7 10  1  0  0  0  0
  1 11  1  0  0  0  0
  1 12  1  0  0  0  0
  2 13  1  0  0  0  0
  2 14  1  0  0  0  0
  3 15  1  0  0  0  0
  3 16  1  0  0  0  0
  6 17  1  0  0  0  0
  6 18  1  0  0  0  0
  7 19  1  0  0  0  0
  7 20  1  0  0  0  0
  8 21  1  0  0  0  0
  8 22  1  0  0  0  0
 10 23  1  0  0  0  0
M  END
> <id>
EN300-6996768

> <smiles>
NCC1(CC2(CO)C1)CO2

> <MDLNUMBER>
MFCD31926442

> <IUPAC Name>
[4-(aminomethyl)-2-oxabicyclo[2.1.1]hexan-1-yl]methanol

> <CAS>
2306265-35-8

> <Purity>
95

> <URL>
https://www.enaminestore.com/catalog/EN300-6996768

> <ROCS_ShapeQuery>
x0812_0A_x1140_0A_x1097_0A_x0365_0A_x1097_0A_x0310_0A

> <ROCS_TanimotoCombo>
0.702 

> <ROCS_ShapeTanimoto>
0.200 

> <ROCS_ColorTanimoto>
0.502 

> <ROCS_RefTversky>
0.182 

> <ROCS_RefColorTversky>
0.601 

> <ROCS_RefTverskyCombo>
0.783 

> <ROCS_FitTversky>
1.956 

> <ROCS_FitColorTversky>
0.753 

> <ROCS_FitTverskyCombo>
2.709 

> <ROCS_ColorScore>
-8.996

> <ROCS_Overlap>
1842.367

> <ROCS_Rank>
336                 

$$$$
untitled-dbase-561194_1
  -OEChem-02092408543D

 23 24  0     0  0  0  0  0  0999 V2000
    8.3079   11.8286   25.2691 C   0  0  0  0  0  0  0  0  0  0  0  0
    7.8414   11.7058   23.2305 C   0  0  0  0  0  0  0  0  0  0  0  0
    9.5363   10.1061   24.0152 C   0  0  0  0  0  0  0  0  0  0  0  0
    9.2126   11.6161   23.9985 C   0  0  0  0  0  0  0  0  0  0  0  0
    7.4463   10.7880   24.4526 C   0  0  0  0  0  0  0  0  0  0  0  0
   10.3426   12.5491   23.6836 C   0  0  0  0  0  0  0  0  0  0  0  0
    6.0117   10.5253   24.7964 C   0  0  0  0  0  0  0  0  0  0  0  0
   10.7171   12.4495   22.3030 N   0  0  0  0  0  0  0  0  0  0  0  0
    8.2413    9.5752   24.3437 O   0  0  0  0  0  0  0  0  0  0  0  0
    5.9225   10.0333   26.1305 O   0  0  0  0  0  0  0  0  0  0  0  0
    8.7179   11.4717   26.2183 H   0  0  0  0  0  0  0  0  0  0  0  0
    7.8786   12.8265   25.4114 H   0  0  0  0  0  0  0  0  0  0  0  0
    7.3670   12.6917   23.1747 H   0  0  0  0  0  0  0  0  0  0  0  0
    7.8090   11.2318   22.2452 H   0  0  0  0  0  0  0  0  0  0  0  0
    9.8537    9.7307   23.0382 H   0  0  0  0  0  0  0  0  0  0  0  0
   10.2557    9.8362   24.7936 H   0  0  0  0  0  0  0  0  0  0  0  0
   10.0213   13.5756   23.9011 H   0  0  0  0  0  0  0  0  0  0  0  0
   11.2013   12.2858   24.3142 H   0  0  0  0  0  0  0  0  0  0  0  0
    5.5714    9.7741   24.1248 H   0  0  0  0  0  0  0  0  0  0  0  0
    5.4104   11.4434   24.7296 H   0  0  0  0  0  0  0  0  0  0  0  0
   11.6755   12.1689   22.2331 H   0  0  0  0  0  0  0  0  0  0  0  0
   10.1398   11.7712   21.8458 H   0  0  0  0  0  0  0  0  0  0  0  0
    4.9812    9.8790   26.3061 H   0  0  0  0  0  0  0  0  0  0  0  0
  1  4  1  0  0  0  0
  1  5  1  0  0  0  0
  2  4  1  0  0  0  0
  2  5  1  0  0  0  0
  3  4  1  0  0  0  0
  3  9  1  0  0  0  0
  4  6  1  1  0  0  0
  5  7  1  1  0  0  0
  5  9  1  0  0  0  0
  6  8  1  0  0  0  0
  7 10  1  0  0  0  0
  1 11  1  0  0  0  0
  1 12  1  0  0  0  0
  2 13  1  0  0  0  0
  2 14  1  0  0  0  0
  3 15  1  0  0  0  0
  3 16  1  0  0  0  0
  6 17  1  0  0  0  0
  6 18  1  0  0  0  0
  7 19  1  0  0  0  0
  7 20  1  0  0  0  0
  8 21  1  0  0  0  0
  8 22  1  0  0  0  0
 10 23  1  0  0  0  0
M  END
> <id>
EN300-37375353

> <smiles>
NC[C@]1(C[C@@]2(CO)C1)CO2

> <IUPAC Name>
[(1s,4s)-4-(aminomethyl)-2-oxabicyclo[2.1.1]hexan-1-yl]methanol

> <CAS>
2306265-35-8

> <URL>
https://www.enaminestore.com/catalog/EN300-37375353

> <ROCS_ShapeQuery>
x0812_0A_x1140_0A_x1097_0A_x0365_0A_x1097_0A_x0310_0A

> <ROCS_TanimotoCombo>
0.702 

> <ROCS_ShapeTanimoto>
0.200 

> <ROCS_ColorTanimoto>
0.502 

> <ROCS_RefTversky>
0.182 

> <ROCS_RefColorTversky>
0.601 

> <ROCS_RefTverskyCombo>
0.783 

> <ROCS_FitTversky>
1.956 

> <ROCS_FitColorTversky>
0.753 

> <ROCS_FitTverskyCombo>
2.709 

> <ROCS_ColorScore>
-8.996

> <ROCS_Overlap>
1842.349

> <ROCS_Rank>
337                 

$$$$
untitled-dbase-419345_5
  -OEChem-02092408543D

 26 27  0     0  0  0  0  0  0999 V2000
   10.0577   11.9428   22.5200 C   0  0  0  0  0  0  0  0  0  0  0  0
    9.1430   11.7491   25.0347 C   0  0  0  0  0  0  0  0  0  0  0  0
    7.6123   11.8099   23.6150 C   0  0  0  0  0  0  0  0  0  0  0  0
    8.9958    9.7822   23.5726 C   0  0  0  0  0  0  0  0  0  0  0  0
    9.1024   11.3216   23.5237 C   0  0  0  0  0  0  0  0  0  0  0  0
    7.7500   11.0141   24.9688 C   0  0  0  0  0  0  0  0  0  0  0  0
    5.4253   12.7128   27.2410 C   0  0  0  0  0  0  0  0  0  0  0  0
   11.0121   12.9692   23.0811 C   0  0  0  0  0  0  0  0  0  0  0  0
    6.7389   11.1590   26.0650 C   0  0  0  0  0  0  0  0  0  0  0  0
   10.0226   11.6053   21.3380 O   0  0  0  0  0  0  0  0  0  0  0  0
    8.0206    9.6293   24.6179 O   0  0  0  0  0  0  0  0  0  0  0  0
    6.3840   12.5313   26.2096 O   0  0  0  0  0  0  0  0  0  0  0  0
   12.1896   13.6220   21.6882 Br  0  0  0  0  0  0  0  0  0  0  0  0
    9.9056   11.2662   25.6530 H   0  0  0  0  0  0  0  0  0  0  0  0
    9.1305   12.8238   25.2481 H   0  0  0  0  0  0  0  0  0  0  0  0
    7.4466   12.8907   23.6866 H   0  0  0  0  0  0  0  0  0  0  0  0
    6.9189   11.3853   22.8831 H   0  0  0  0  0  0  0  0  0  0  0  0
    8.6112    9.3554   22.6419 H   0  0  0  0  0  0  0  0  0  0  0  0
    9.9337    9.3029   23.8672 H   0  0  0  0  0  0  0  0  0  0  0  0
    5.1758   13.7734   27.3252 H   0  0  0  0  0  0  0  0  0  0  0  0
    5.8328   12.3472   28.1869 H   0  0  0  0  0  0  0  0  0  0  0  0
    4.5240   12.1475   26.9921 H   0  0  0  0  0  0  0  0  0  0  0  0
   11.6403   12.5214   23.8537 H   0  0  0  0  0  0  0  0  0  0  0  0
   10.4607   13.8283   23.4683 H   0  0  0  0  0  0  0  0  0  0  0  0
    7.1392   10.8064   27.0266 H   0  0  0  0  0  0  0  0  0  0  0  0
    5.8241   10.5910   25.8424 H   0  0  0  0  0  0  0  0  0  0  0  0
  1  5  1  0  0  0  0
  1  8  1  0  0  0  0
  1 10  2  0  0  0  0
  2  5  1  0  0  0  0
  2  6  1  0  0  0  0
  3  5  1  0  0  0  0
  3  6  1  0  0  0  0
  4  5  1  0  0  0  0
  4 11  1  0  0  0  0
  6  9  1  0  0  0  0
  6 11  1  0  0  0  0
  7 12  1  0  0  0  0
  8 13  1  0  0  0  0
  9 12  1  0  0  0  0
  2 14  1  0  0  0  0
  2 15  1  0  0  0  0
  3 16  1  0  0  0  0
  3 17  1  0  0  0  0
  4 18  1  0  0  0  0
  4 19  1  0  0  0  0
  7 20  1  0  0  0  0
  7 21  1  0  0  0  0
  7 22  1  0  0  0  0
  8 23  1  0  0  0  0
  8 24  1  0  0  0  0
  9 25  1  0  0  0  0
  9 26  1  0  0  0  0
M  END
> <id>
EN300-27080786

> <smiles>
COCC1(CC2(C1)C(=O)CBr)OC2

> <MDLNUMBER>
MFCD34600883

> <IUPAC Name>
2-bromo-1-[1-(methoxymethyl)-2-oxabicyclo[2.1.1]hexan-4-yl]ethan-1-one

> <CAS>
2757929-05-6

> <URL>
https://www.enaminestore.com/catalog/EN300-27080786

> <ROCS_ShapeQuery>
x0812_0A_x1140_0A_x1097_0A_x0365_0A_x1097_0A_x0310_0A

> <ROCS_TanimotoCombo>
0.702 

> <ROCS_ShapeTanimoto>
0.238 

> <ROCS_ColorTanimoto>
0.464 

> <ROCS_RefTversky>
0.212 

> <ROCS_RefColorTversky>
0.551 

> <ROCS_RefTverskyCombo>
0.763 

> <ROCS_FitTversky>
2.034 

> <ROCS_FitColorTversky>
0.747 

> <ROCS_FitTverskyCombo>
2.781 

> <ROCS_ColorScore>
-8.215

> <ROCS_Overlap>
2146.179

> <ROCS_Rank>
338                 

$$$$
untitled-dbase-585798_2
  -OEChem-02092408543D

 23 24  0     1  0  0  0  0  0999 V2000
    7.4488   10.4817   25.3190 C   0  0  0  0  0  0  0  0  0  0  0  0
    7.2585   10.0053   23.8787 C   0  0  0  0  0  0  0  0  0  0  0  0
    9.8593   11.0383   24.8541 C   0  0  0  0  0  0  0  0  0  0  0  0
    8.4680   11.6073   25.1508 C   0  0  1  0  0  0  0  0  0  0  0  0
    8.2314   10.9058   23.1158 C   0  0  2  0  0  0  0  0  0  0  0  0
    9.7017   10.5547   23.4018 C   0  0  1  0  0  0  0  0  0  0  0  0
   10.6595   11.2821   22.4601 C   0  0  0  0  0  0  0  0  0  0  0  0
   10.3950   12.6811   22.4902 N   0  0  0  0  0  0  0  0  0  0  0  0
    8.0932   12.1416   23.8591 O   0  0  0  0  0  0  0  0  0  0  0  0
    9.9432    9.1603   23.3086 O   0  0  0  0  0  0  0  0  0  0  0  0
    6.5003   10.8730   25.7033 H   0  0  0  0  0  0  0  0  0  0  0  0
    7.7931    9.6902   25.9910 H   0  0  0  0  0  0  0  0  0  0  0  0
    7.4477    8.9366   23.7487 H   0  0  0  0  0  0  0  0  0  0  0  0
    6.2278   10.2081   23.5651 H   0  0  0  0  0  0  0  0  0  0  0  0
   10.5987   11.8450   24.9194 H   0  0  0  0  0  0  0  0  0  0  0  0
   10.1456   10.2498   25.5571 H   0  0  0  0  0  0  0  0  0  0  0  0
    8.4460   12.3629   25.9392 H   0  0  0  0  0  0  0  0  0  0  0  0
    7.9823   11.0275   22.0585 H   0  0  0  0  0  0  0  0  0  0  0  0
   11.6708   11.0751   22.8058 H   0  0  0  0  0  0  0  0  0  0  0  0
   10.4955   10.8819   21.4611 H   0  0  0  0  0  0  0  0  0  0  0  0
   10.1708   13.0117   21.5686 H   0  0  0  0  0  0  0  0  0  0  0  0
    9.6203   12.8741   23.0997 H   0  0  0  0  0  0  0  0  0  0  0  0
   10.8531    9.0095   23.6147 H   0  0  0  0  0  0  0  0  0  0  0  0
  1  2  1  0  0  0  0
  1  4  1  0  0  0  0
  2  5  1  0  0  0  0
  3  4  1  0  0  0  0
  3  6  1  0  0  0  0
  4  9  1  6  0  0  0
  5  6  1  0  0  0  0
  5  9  1  6  0  0  0
  6  7  1  6  0  0  0
  6 10  1  1  0  0  0
  7  8  1  0  0  0  0
  1 11  1  0  0  0  0
  1 12  1  0  0  0  0
  2 13  1  0  0  0  0
  2 14  1  0  0  0  0
  3 15  1  0  0  0  0
  3 16  1  0  0  0  0
  4 17  1  0  0  0  0
  5 18  1  0  0  0  0
  7 19  1  0  0  0  0
  7 20  1  0  0  0  0
  8 21  1  0  0  0  0
  8 22  1  0  0  0  0
 10 23  1  0  0  0  0
M  END
> <id>
EN300-43356144

> <smiles>
NC[C@@]1(O)C[C@@H]2CC[C@H]1O2 |&1:2,5,8,r|

> <IUPAC Name>
rac-(1R,2S,4S)-2-(aminomethyl)-7-oxabicyclo[2.2.1]heptan-2-ol

> <URL>
https://www.enaminestore.com/catalog/EN300-43356144

> <ROCS_ShapeQuery>
x0812_0A_x1140_0A_x1097_0A_x0365_0A_x1097_0A_x0310_0A

> <ROCS_TanimotoCombo>
0.702 

> <ROCS_ShapeTanimoto>
0.203 

> <ROCS_ColorTanimoto>
0.499 

> <ROCS_RefTversky>
0.185 

> <ROCS_RefColorTversky>
0.590 

> <ROCS_RefTverskyCombo>
0.774 

> <ROCS_FitTversky>
1.958 

> <ROCS_FitColorTversky>
0.764 

> <ROCS_FitTverskyCombo>
2.722 

> <ROCS_ColorScore>
-8.811

> <ROCS_Overlap>
1867.993

> <ROCS_Rank>
339                 

$$$$
untitled-dbase-572464_2
  -OEChem-02092408543D

 23 24  0     1  0  0  0  0  0999 V2000
    7.4488   10.4817   25.3190 C   0  0  0  0  0  0  0  0  0  0  0  0
    7.2585   10.0053   23.8787 C   0  0  0  0  0  0  0  0  0  0  0  0
    9.8593   11.0383   24.8541 C   0  0  0  0  0  0  0  0  0  0  0  0
    8.4680   11.6073   25.1508 C   0  0  1  0  0  0  0  0  0  0  0  0
    8.2314   10.9058   23.1158 C   0  0  2  0  0  0  0  0  0  0  0  0
    9.7017   10.5547   23.4018 C   0  0  1  0  0  0  0  0  0  0  0  0
   10.6595   11.2821   22.4601 C   0  0  0  0  0  0  0  0  0  0  0  0
   10.3950   12.6811   22.4902 N   0  0  0  0  0  0  0  0  0  0  0  0
    8.0932   12.1416   23.8591 O   0  0  0  0  0  0  0  0  0  0  0  0
    9.9432    9.1603   23.3086 O   0  0  0  0  0  0  0  0  0  0  0  0
    6.5003   10.8730   25.7033 H   0  0  0  0  0  0  0  0  0  0  0  0
    7.7931    9.6902   25.9910 H   0  0  0  0  0  0  0  0  0  0  0  0
    7.4477    8.9366   23.7487 H   0  0  0  0  0  0  0  0  0  0  0  0
    6.2278   10.2081   23.5651 H   0  0  0  0  0  0  0  0  0  0  0  0
   10.5987   11.8450   24.9194 H   0  0  0  0  0  0  0  0  0  0  0  0
   10.1456   10.2498   25.5571 H   0  0  0  0  0  0  0  0  0  0  0  0
    8.4460   12.3629   25.9392 H   0  0  0  0  0  0  0  0  0  0  0  0
    7.9823   11.0275   22.0585 H   0  0  0  0  0  0  0  0  0  0  0  0
   11.6708   11.0751   22.8058 H   0  0  0  0  0  0  0  0  0  0  0  0
   10.4955   10.8819   21.4611 H   0  0  0  0  0  0  0  0  0  0  0  0
   10.1708   13.0117   21.5686 H   0  0  0  0  0  0  0  0  0  0  0  0
    9.6203   12.8741   23.0997 H   0  0  0  0  0  0  0  0  0  0  0  0
   10.8531    9.0095   23.6147 H   0  0  0  0  0  0  0  0  0  0  0  0
  1  2  1  0  0  0  0
  1  4  1  0  0  0  0
  2  5  1  0  0  0  0
  3  4  1  0  0  0  0
  3  6  1  0  0  0  0
  4  9  1  6  0  0  0
  5  6  1  0  0  0  0
  5  9  1  6  0  0  0
  6  7  1  6  0  0  0
  6 10  1  1  0  0  0
  7  8  1  0  0  0  0
  1 11  1  0  0  0  0
  1 12  1  0  0  0  0
  2 13  1  0  0  0  0
  2 14  1  0  0  0  0
  3 15  1  0  0  0  0
  3 16  1  0  0  0  0
  4 17  1  0  0  0  0
  5 18  1  0  0  0  0
  7 19  1  0  0  0  0
  7 20  1  0  0  0  0
  8 21  1  0  0  0  0
  8 22  1  0  0  0  0
 10 23  1  0  0  0  0
M  END
> <id>
EN300-43356143

> <smiles>
Cl.NC[C@@]1(O)C[C@@H]2CC[C@H]1O2 |&1:3,6,9,r|

> <IUPAC Name>
rac-(1R,2S,4S)-2-(aminomethyl)-7-oxabicyclo[2.2.1]heptan-2-ol hydrochloride

> <Purity>
95

> <URL>
https://www.enaminestore.com/catalog/EN300-43356143

> <ROCS_ShapeQuery>
x0812_0A_x1140_0A_x1097_0A_x0365_0A_x1097_0A_x0310_0A

> <ROCS_TanimotoCombo>
0.702 

> <ROCS_ShapeTanimoto>
0.203 

> <ROCS_ColorTanimoto>
0.499 

> <ROCS_RefTversky>
0.185 

> <ROCS_RefColorTversky>
0.590 

> <ROCS_RefTverskyCombo>
0.774 

> <ROCS_FitTversky>
1.958 

> <ROCS_FitColorTversky>
0.764 

> <ROCS_FitTverskyCombo>
2.722 

> <ROCS_ColorScore>
-8.811

> <ROCS_Overlap>
1867.993

> <ROCS_Rank>
340                 

$$$$
untitled-dbase-87906_1
  -OEChem-02092408543D

 33 35  0     1  0  0  0  0  0999 V2000
    5.5296   12.1920   29.0475 C   0  0  0  0  0  0  0  0  0  0  0  0
    5.1450   13.0360   27.8677 C   0  0  0  0  0  0  0  0  0  0  0  0
    8.7882   11.8352   25.1948 C   0  0  0  0  0  0  0  0  0  0  0  0
    7.7043   11.7310   23.4051 C   0  0  0  0  0  0  0  0  0  0  0  0
    9.2469    9.8582   23.8057 C   0  0  0  0  0  0  0  0  0  0  0  0
    5.3541   11.5567   27.6959 C   0  0  0  0  0  0  0  0  0  0  0  0
    9.2064   11.4007   23.7407 C   0  0  0  0  0  0  0  0  0  0  0  0
    7.5475   10.9557   24.7712 C   0  0  0  0  0  0  0  0  0  0  0  0
    6.8945    9.7251   27.4850 C   0  0  0  0  0  0  0  0  0  0  0  0
   10.3313   12.0795   23.0192 C   0  0  0  0  0  0  0  0  0  0  0  0
    6.2648   10.9948   25.5448 C   0  0  0  0  0  0  0  0  0  0  0  0
    6.5202   11.0470   26.9550 N   0  0  1  0  0  0  0  0  0  0  0  0
    8.0428    9.6064   24.5498 O   0  0  0  0  0  0  0  0  0  0  0  0
   10.2169   11.8361   21.6202 O   0  0  0  0  0  0  0  0  0  0  0  0
    6.5314   12.3078   29.4429 H   0  0  0  0  0  0  0  0  0  0  0  0
    4.7728   11.9984   29.7980 H   0  0  0  0  0  0  0  0  0  0  0  0
    4.1294   13.4102   27.8246 H   0  0  0  0  0  0  0  0  0  0  0  0
    5.8897   13.7164   27.4725 H   0  0  0  0  0  0  0  0  0  0  0  0
    9.3998   11.4398   26.0110 H   0  0  0  0  0  0  0  0  0  0  0  0
    8.6073   12.9029   25.3610 H   0  0  0  0  0  0  0  0  0  0  0  0
    7.4182   12.7886   23.3974 H   0  0  0  0  0  0  0  0  0  0  0  0
    7.2876   11.2365   22.5228 H   0  0  0  0  0  0  0  0  0  0  0  0
    9.1773    9.3913   22.8191 H   0  0  0  0  0  0  0  0  0  0  0  0
   10.1108    9.4806   24.3601 H   0  0  0  0  0  0  0  0  0  0  0  0
    4.4606   10.9558   27.5591 H   0  0  0  0  0  0  0  0  0  0  0  0
    7.7656    9.3416   26.9334 H   0  0  0  0  0  0  0  0  0  0  0  0
    7.1471    9.8159   28.5517 H   0  0  0  0  0  0  0  0  0  0  0  0
    6.0503    9.0300   27.3659 H   0  0  0  0  0  0  0  0  0  0  0  0
   11.3069   11.6989   23.3540 H   0  0  0  0  0  0  0  0  0  0  0  0
   10.3101   13.1668   23.1803 H   0  0  0  0  0  0  0  0  0  0  0  0
    5.6997   11.8861   25.2436 H   0  0  0  0  0  0  0  0  0  0  0  0
    5.6867   10.0912   25.3125 H   0  0  0  0  0  0  0  0  0  0  0  0
   10.9616   12.2920   21.1981 H   0  0  0  0  0  0  0  0  0  0  0  0
  1  2  1  0  0  0  0
  1  6  1  0  0  0  0
  2  6  1  0  0  0  0
  3  7  1  0  0  0  0
  3  8  1  0  0  0  0
  4  7  1  0  0  0  0
  4  8  1  0  0  0  0
  5  7  1  0  0  0  0
  5 13  1  0  0  0  0
  6 12  1  0  0  0  0
  7 10  1  0  0  0  0
  8 11  1  0  0  0  0
  8 13  1  0  0  0  0
  9 12  1  0  0  0  0
 10 14  1  0  0  0  0
 11 12  1  0  0  0  0
  1 15  1  0  0  0  0
  1 16  1  0  0  0  0
  2 17  1  0  0  0  0
  2 18  1  0  0  0  0
  3 19  1  0  0  0  0
  3 20  1  0  0  0  0
  4 21  1  0  0  0  0
  4 22  1  0  0  0  0
  5 23  1  0  0  0  0
  5 24  1  0  0  0  0
  6 25  1  0  0  0  0
  9 26  1  0  0  0  0
  9 27  1  0  0  0  0
  9 28  1  0  0  0  0
 10 29  1  0  0  0  0
 10 30  1  0  0  0  0
 11 31  1  0  0  0  0
 11 32  1  0  0  0  0
 14 33  1  0  0  0  0
M  END
> <id>
EN300-694482

> <smiles>
CN(CC1(CC2(CO)C1)OC2)C3CC3

> <MDLNUMBER>
MFCD31430345

> <IUPAC Name>
(1-{[cyclopropyl(methyl)amino]methyl}-2-oxabicyclo[2.1.1]hexan-4-yl)methanol

> <CAS>
2137561-23-8

> <URL>
https://www.enaminestore.com/catalog/EN300-694482

> <ROCS_ShapeQuery>
x0812_0A_x1140_0A_x1097_0A_x0365_0A_x1097_0A_x0310_0A

> <ROCS_TanimotoCombo>
0.702 

> <ROCS_ShapeTanimoto>
0.220 

> <ROCS_ColorTanimoto>
0.482 

> <ROCS_RefTversky>
0.200 

> <ROCS_RefColorTversky>
0.565 

> <ROCS_RefTverskyCombo>
0.765 

> <ROCS_FitTversky>
1.820 

> <ROCS_FitColorTversky>
0.767 

> <ROCS_FitTverskyCombo>
2.587 

> <ROCS_ColorScore>
-8.429

> <ROCS_Overlap>
2022.455

> <ROCS_Rank>
341                 

$$$$
untitled-dbase-369591_0
  -OEChem-02092408543D

 23 24  0     1  0  0  0  0  0999 V2000
    9.5144   12.0992   24.9309 C   0  0  0  0  0  0  0  0  0  0  0  0
    8.2392   11.6388   25.6567 C   0  0  0  0  0  0  0  0  0  0  0  0
    7.8327   11.6998   23.2907 C   0  0  0  0  0  0  0  0  0  0  0  0
    9.3860    9.9812   23.6202 C   0  0  0  0  0  0  0  0  0  0  0  0
    9.3278   11.5090   23.5187 C   0  0  2  0  0  0  0  0  0  0  0  0
    7.4845   10.8992   24.5398 C   0  0  2  0  0  0  0  0  0  0  0  0
    6.0155   10.6750   24.8030 C   0  0  0  0  0  0  0  0  0  0  0  0
   10.2110   12.0687   22.5254 N   0  0  0  0  0  0  0  0  0  0  0  0
    8.1732    9.6409   24.3345 O   0  0  0  0  0  0  0  0  0  0  0  0
    5.8660    9.8895   25.9780 O   0  0  0  0  0  0  0  0  0  0  0  0
    9.5559   13.1950   24.9102 H   0  0  0  0  0  0  0  0  0  0  0  0
   10.4211   11.7346   25.4254 H   0  0  0  0  0  0  0  0  0  0  0  0
    8.4848   10.9797   26.4960 H   0  0  0  0  0  0  0  0  0  0  0  0
    7.6812   12.5040   26.0306 H   0  0  0  0  0  0  0  0  0  0  0  0
    7.5008   12.7429   23.3263 H   0  0  0  0  0  0  0  0  0  0  0  0
    7.4836   11.2276   22.3652 H   0  0  0  0  0  0  0  0  0  0  0  0
    9.3447    9.4877   22.6428 H   0  0  0  0  0  0  0  0  0  0  0  0
   10.2535    9.6085   24.1739 H   0  0  0  0  0  0  0  0  0  0  0  0
    5.5475   10.1444   23.9663 H   0  0  0  0  0  0  0  0  0  0  0  0
    5.4974   11.6289   24.9523 H   0  0  0  0  0  0  0  0  0  0  0  0
   10.7741   11.3408   22.1385 H   0  0  0  0  0  0  0  0  0  0  0  0
    9.6667   12.4934   21.8042 H   0  0  0  0  0  0  0  0  0  0  0  0
    4.9124    9.7672   26.1138 H   0  0  0  0  0  0  0  0  0  0  0  0
  1  2  1  0  0  0  0
  1  5  1  0  0  0  0
  2  6  1  0  0  0  0
  3  5  1  0  0  0  0
  3  6  1  0  0  0  0
  4  5  1  0  0  0  0
  4  9  1  0  0  0  0
  5  8  1  0  0  0  0
  6  7  1  0  0  0  0
  6  9  1  0  0  0  0
  7 10  1  0  0  0  0
  1 11  1  0  0  0  0
  1 12  1  0  0  0  0
  2 13  1  0  0  0  0
  2 14  1  0  0  0  0
  3 15  1  0  0  0  0
  3 16  1  0  0  0  0
  4 17  1  0  0  0  0
  4 18  1  0  0  0  0
  7 19  1  0  0  0  0
  7 20  1  0  0  0  0
  8 21  1  0  0  0  0
  8 22  1  0  0  0  0
 10 23  1  0  0  0  0
M  END
> <id>
EN300-26678761

> <smiles>
Cl.NC1(CCC2(CO)C1)CO2

> <MDLNUMBER>
MFCD32692653

> <IUPAC Name>
{4-amino-2-oxabicyclo[2.2.1]heptan-1-yl}methanol hydrochloride

> <CAS>
2445784-25-6

> <URL>
https://www.enaminestore.com/catalog/EN300-26678761

> <Saltdate>
Cl

> <ROCS_ShapeQuery>
x0812_0A_x1140_0A_x1097_0A_x0365_0A_x1097_0A_x0310_0A

> <ROCS_TanimotoCombo>
0.702 

> <ROCS_ShapeTanimoto>
0.201 

> <ROCS_ColorTanimoto>
0.501 

> <ROCS_RefTversky>
0.183 

> <ROCS_RefColorTversky>
0.592 

> <ROCS_RefTverskyCombo>
0.775 

> <ROCS_FitTversky>
1.942 

> <ROCS_FitColorTversky>
0.765 

> <ROCS_FitTverskyCombo>
2.707 

> <ROCS_ColorScore>
-8.851

> <ROCS_Overlap>
1850.567

> <ROCS_Rank>
342                 

$$$$
untitled-dbase-368250_0
  -OEChem-02092408543D

 23 24  0     1  0  0  0  0  0999 V2000
    9.5144   12.0992   24.9309 C   0  0  0  0  0  0  0  0  0  0  0  0
    8.2392   11.6388   25.6567 C   0  0  0  0  0  0  0  0  0  0  0  0
    7.8327   11.6998   23.2907 C   0  0  0  0  0  0  0  0  0  0  0  0
    9.3860    9.9812   23.6202 C   0  0  0  0  0  0  0  0  0  0  0  0
    9.3278   11.5090   23.5187 C   0  0  2  0  0  0  0  0  0  0  0  0
    7.4845   10.8992   24.5398 C   0  0  2  0  0  0  0  0  0  0  0  0
    6.0155   10.6750   24.8030 C   0  0  0  0  0  0  0  0  0  0  0  0
   10.2110   12.0687   22.5254 N   0  0  0  0  0  0  0  0  0  0  0  0
    8.1732    9.6409   24.3345 O   0  0  0  0  0  0  0  0  0  0  0  0
    5.8660    9.8895   25.9780 O   0  0  0  0  0  0  0  0  0  0  0  0
    9.5559   13.1950   24.9102 H   0  0  0  0  0  0  0  0  0  0  0  0
   10.4211   11.7346   25.4254 H   0  0  0  0  0  0  0  0  0  0  0  0
    8.4848   10.9797   26.4960 H   0  0  0  0  0  0  0  0  0  0  0  0
    7.6812   12.5040   26.0306 H   0  0  0  0  0  0  0  0  0  0  0  0
    7.5008   12.7429   23.3263 H   0  0  0  0  0  0  0  0  0  0  0  0
    7.4836   11.2276   22.3652 H   0  0  0  0  0  0  0  0  0  0  0  0
    9.3447    9.4877   22.6428 H   0  0  0  0  0  0  0  0  0  0  0  0
   10.2535    9.6085   24.1739 H   0  0  0  0  0  0  0  0  0  0  0  0
    5.5475   10.1444   23.9663 H   0  0  0  0  0  0  0  0  0  0  0  0
    5.4974   11.6289   24.9523 H   0  0  0  0  0  0  0  0  0  0  0  0
   10.7741   11.3408   22.1385 H   0  0  0  0  0  0  0  0  0  0  0  0
    9.6667   12.4934   21.8042 H   0  0  0  0  0  0  0  0  0  0  0  0
    4.9124    9.7672   26.1138 H   0  0  0  0  0  0  0  0  0  0  0  0
  1  2  1  0  0  0  0
  1  5  1  0  0  0  0
  2  6  1  0  0  0  0
  3  5  1  0  0  0  0
  3  6  1  0  0  0  0
  4  5  1  0  0  0  0
  4  9  1  0  0  0  0
  5  8  1  0  0  0  0
  6  7  1  0  0  0  0
  6  9  1  0  0  0  0
  7 10  1  0  0  0  0
  1 11  1  0  0  0  0
  1 12  1  0  0  0  0
  2 13  1  0  0  0  0
  2 14  1  0  0  0  0
  3 15  1  0  0  0  0
  3 16  1  0  0  0  0
  4 17  1  0  0  0  0
  4 18  1  0  0  0  0
  7 19  1  0  0  0  0
  7 20  1  0  0  0  0
  8 21  1  0  0  0  0
  8 22  1  0  0  0  0
 10 23  1  0  0  0  0
M  END
> <id>
EN300-7563712

> <smiles>
NC1(CCC2(CO)C1)CO2

> <MDLNUMBER>
MFCD32692085

> <IUPAC Name>
{4-amino-2-oxabicyclo[2.2.1]heptan-1-yl}methanol

> <CAS>
2385260-81-9

> <Purity>
95

> <URL>
https://www.enaminestore.com/catalog/EN300-7563712

> <ROCS_ShapeQuery>
x0812_0A_x1140_0A_x1097_0A_x0365_0A_x1097_0A_x0310_0A

> <ROCS_TanimotoCombo>
0.702 

> <ROCS_ShapeTanimoto>
0.201 

> <ROCS_ColorTanimoto>
0.501 

> <ROCS_RefTversky>
0.183 

> <ROCS_RefColorTversky>
0.592 

> <ROCS_RefTverskyCombo>
0.775 

> <ROCS_FitTversky>
1.942 

> <ROCS_FitColorTversky>
0.765 

> <ROCS_FitTverskyCombo>
2.707 

> <ROCS_ColorScore>
-8.851

> <ROCS_Overlap>
1850.567

> <ROCS_Rank>
343                 

$$$$
untitled-dbase-350508_5
  -OEChem-02092408543D

 23 24  0     0  0  0  0  0  0999 V2000
    9.0233   11.7651   25.1457 C   0  0  0  0  0  0  0  0  0  0  0  0
    7.5843   11.8452   23.6253 C   0  0  0  0  0  0  0  0  0  0  0  0
    9.1471    9.9514   23.4893 C   0  0  0  0  0  0  0  0  0  0  0  0
    9.1180   11.4917   23.5983 C   0  0  0  0  0  0  0  0  0  0  0  0
    7.7075   10.9271   24.9036 C   0  0  0  0  0  0  0  0  0  0  0  0
   10.0756   12.2517   22.7311 C   0  0  0  0  0  0  0  0  0  0  0  0
    6.6180   10.8740   25.9309 C   0  0  0  0  0  0  0  0  0  0  0  0
   12.2326   10.7621   22.7488 O   0  0  0  0  0  0  0  0  0  0  0  0
   11.8550   12.3916   24.6512 O   0  0  0  0  0  0  0  0  0  0  0  0
    8.1236    9.6128   24.4405 O   0  0  0  0  0  0  0  0  0  0  0  0
    6.1675   12.1372   26.1742 F   0  0  0  0  0  0  0  0  0  0  0  0
   11.7519   12.0340   23.2505 S   0  0  0  0  0  0  0  0  0  0  0  0
   12.8558   13.4460   22.2601 Cl  0  0  0  0  0  0  0  0  0  0  0  0
    9.7873   11.2891   25.7672 H   0  0  0  0  0  0  0  0  0  0  0  0
    8.8984   12.8076   25.4587 H   0  0  0  0  0  0  0  0  0  0  0  0
    7.3197   12.8954   23.7906 H   0  0  0  0  0  0  0  0  0  0  0  0
    6.9828   11.4449   22.8040 H   0  0  0  0  0  0  0  0  0  0  0  0
    8.8633    9.5922   22.4960 H   0  0  0  0  0  0  0  0  0  0  0  0
   10.1026    9.5229   23.8050 H   0  0  0  0  0  0  0  0  0  0  0  0
    9.8767   13.3316   22.7583 H   0  0  0  0  0  0  0  0  0  0  0  0
   10.0256   11.9198   21.6854 H   0  0  0  0  0  0  0  0  0  0  0  0
    6.9741   10.4596   26.8830 H   0  0  0  0  0  0  0  0  0  0  0  0
    5.7628   10.2770   25.5884 H   0  0  0  0  0  0  0  0  0  0  0  0
  1  4  1  0  0  0  0
  1  5  1  0  0  0  0
  2  4  1  0  0  0  0
  2  5  1  0  0  0  0
  3  4  1  0  0  0  0
  3 10  1  0  0  0  0
  4  6  1  0  0  0  0
  5  7  1  0  0  0  0
  5 10  1  0  0  0  0
  6 12  1  0  0  0  0
  7 11  1  0  0  0  0
  8 12  2  0  0  0  0
  9 12  2  0  0  0  0
 12 13  1  0  0  0  0
  1 14  1  0  0  0  0
  1 15  1  0  0  0  0
  2 16  1  0  0  0  0
  2 17  1  0  0  0  0
  3 18  1  0  0  0  0
  3 19  1  0  0  0  0
  6 20  1  0  0  0  0
  6 21  1  0  0  0  0
  7 22  1  0  0  0  0
  7 23  1  0  0  0  0
M  END
> <id>
EN300-26678496

> <smiles>
FCC1(CC2(CS(=O)(=O)Cl)C1)OC2

> <MDLNUMBER>
MFCD32678897

> <IUPAC Name>
[1-(fluoromethyl)-2-oxabicyclo[2.1.1]hexan-4-yl]methanesulfonyl chloride

> <CAS>
2418695-81-3

> <Purity>
95

> <URL>
https://www.enaminestore.com/catalog/EN300-26678496

> <ROCS_ShapeQuery>
x0812_0A_x1140_0A_x1097_0A_x0365_0A_x1097_0A_x0310_0A

> <ROCS_TanimotoCombo>
0.702 

> <ROCS_ShapeTanimoto>
0.229 

> <ROCS_ColorTanimoto>
0.473 

> <ROCS_RefTversky>
0.206 

> <ROCS_RefColorTversky>
0.498 

> <ROCS_RefTverskyCombo>
0.704 

> <ROCS_FitTversky>
1.989 

> <ROCS_FitColorTversky>
0.903 

> <ROCS_FitTverskyCombo>
2.892 

> <ROCS_ColorScore>
-7.356

> <ROCS_Overlap>
2078.000

> <ROCS_Rank>
344                 

$$$$
untitled-dbase-350689_3
  -OEChem-02092408543D

 23 24  0     1  0  0  0  0  0999 V2000
   10.1112   11.9905   22.3955 C   0  0  0  0  0  0  0  0  0  0  0  0
    9.4786   12.0812   24.8790 C   0  0  0  0  0  0  0  0  0  0  0  0
    8.2061   11.6686   25.6378 C   0  0  0  0  0  0  0  0  0  0  0  0
    7.7823   11.5904   23.2817 C   0  0  0  0  0  0  0  0  0  0  0  0
    9.3419    9.8990   23.6900 C   0  0  0  0  0  0  0  0  0  0  0  0
    9.2765   11.4138   23.5106 C   0  0  1  0  0  0  0  0  0  0  0  0
    7.4438   10.8607   24.5723 C   0  0  2  0  0  0  0  0  0  0  0  0
    5.9771   10.6508   24.8586 C   0  0  0  0  0  0  0  0  0  0  0  0
    9.9518   11.4481   21.2670 O   0  5  0  0  0  0  0  0  0  0  0  0
   10.8644   12.9451   22.7369 O   0  0  0  0  0  0  0  0  0  0  0  0
    8.1316    9.5932   24.4236 O   0  0  0  0  0  0  0  0  0  0  0  0
    5.8369    9.9378   26.0801 O   0  0  0  0  0  0  0  0  0  0  0  0
    9.5424   13.1724   24.7964 H   0  0  0  0  0  0  0  0  0  0  0  0
   10.3837   11.7311   25.3867 H   0  0  0  0  0  0  0  0  0  0  0  0
    8.4545   11.0624   26.5152 H   0  0  0  0  0  0  0  0  0  0  0  0
    7.6508   12.5561   25.9594 H   0  0  0  0  0  0  0  0  0  0  0  0
    7.4507   12.6341   23.2587 H   0  0  0  0  0  0  0  0  0  0  0  0
    7.4312   11.0721   22.3819 H   0  0  0  0  0  0  0  0  0  0  0  0
    9.3174    9.3546   22.7399 H   0  0  0  0  0  0  0  0  0  0  0  0
   10.2087    9.5643   24.2682 H   0  0  0  0  0  0  0  0  0  0  0  0
    5.5044   10.0698   24.0588 H   0  0  0  0  0  0  0  0  0  0  0  0
    5.4581   11.6112   24.9533 H   0  0  0  0  0  0  0  0  0  0  0  0
    4.8845    9.8226   26.2295 H   0  0  0  0  0  0  0  0  0  0  0  0
  1  6  1  0  0  0  0
  1  9  1  0  0  0  0
  1 10  2  0  0  0  0
  2  3  1  0  0  0  0
  2  6  1  0  0  0  0
  3  7  1  0  0  0  0
  4  6  1  0  0  0  0
  4  7  1  0  0  0  0
  5  6  1  0  0  0  0
  5 11  1  0  0  0  0
  7  8  1  0  0  0  0
  7 11  1  0  0  0  0
  8 12  1  0  0  0  0
  2 13  1  0  0  0  0
  2 14  1  0  0  0  0
  3 15  1  0  0  0  0
  3 16  1  0  0  0  0
  4 17  1  0  0  0  0
  4 18  1  0  0  0  0
  5 19  1  0  0  0  0
  5 20  1  0  0  0  0
  8 21  1  0  0  0  0
  8 22  1  0  0  0  0
 12 23  1  0  0  0  0
M  CHG  1   9  -1
M  END
> <id>
EN300-26860574

> <smiles>
[Na+].OCC1(CCC2(CO1)C(=O)[O-])C2

> <MDLNUMBER>
MFCD32679018

> <IUPAC Name>
sodium 1-(hydroxymethyl)-2-oxabicyclo[2.2.1]heptane-4-carboxylate

> <CAS>
2418642-75-6

> <Purity>
95

> <URL>
https://www.enaminestore.com/catalog/EN300-26860574

> <Saltdate>
[Na+]

> <ROCS_ShapeQuery>
x0812_0A_x1140_0A_x1097_0A_x0365_0A_x1097_0A_x0310_0A

> <ROCS_TanimotoCombo>
0.702 

> <ROCS_ShapeTanimoto>
0.227 

> <ROCS_ColorTanimoto>
0.475 

> <ROCS_RefTversky>
0.204 

> <ROCS_RefColorTversky>
0.591 

> <ROCS_RefTverskyCombo>
0.795 

> <ROCS_FitTversky>
1.972 

> <ROCS_FitColorTversky>
0.707 

> <ROCS_FitTverskyCombo>
2.680 

> <ROCS_ColorScore>
-8.865

> <ROCS_Overlap>
2061.463

> <ROCS_Rank>
345                 

$$$$
untitled-dbase-565072_3
  -OEChem-02092408543D

 21 22  0     0  0  0  0  0  0999 V2000
   10.1132   11.6282   22.7073 C   0  0  0  0  0  0  0  0  0  0  0  0
    7.6458   10.5563   23.3205 C   0  0  0  0  0  0  0  0  0  0  0  0
    9.1125   10.1355   24.8016 C   0  0  0  0  0  0  0  0  0  0  0  0
    9.0456   11.2048   23.6448 C   0  0  0  0  0  0  0  0  0  0  0  0
    7.6865   10.6724   24.8403 C   0  0  0  0  0  0  0  0  0  0  0  0
    8.2451   12.0796   24.6858 C   0  0  0  0  0  0  0  0  0  0  0  0
   12.2696   12.5910   22.6257 C   0  0  0  0  0  0  0  0  0  0  0  0
    6.6734   10.2714   25.7286 N   0  0  0  0  0  0  0  0  0  0  0  0
   10.0386   11.5216   21.4906 O   0  0  0  0  0  0  0  0  0  0  0  0
   11.1617   12.1410   23.4120 O   0  0  0  0  0  0  0  0  0  0  0  0
    8.9402   12.6136   25.7129 F   0  0  0  0  0  0  0  0  0  0  0  0
    7.4369   13.0438   24.1954 F   0  0  0  0  0  0  0  0  0  0  0  0
    6.9209   11.1755   22.7824 H   0  0  0  0  0  0  0  0  0  0  0  0
    7.6522    9.5498   22.8889 H   0  0  0  0  0  0  0  0  0  0  0  0
    9.2530    9.0905   24.5056 H   0  0  0  0  0  0  0  0  0  0  0  0
    9.7635   10.3610   25.6524 H   0  0  0  0  0  0  0  0  0  0  0  0
   13.0500   12.9808   23.2839 H   0  0  0  0  0  0  0  0  0  0  0  0
   11.9358   13.3712   21.9370 H   0  0  0  0  0  0  0  0  0  0  0  0
   12.6655   11.7482   22.0542 H   0  0  0  0  0  0  0  0  0  0  0  0
    7.0092    9.5673   26.3717 H   0  0  0  0  0  0  0  0  0  0  0  0
    6.3374   11.0525   26.2752 H   0  0  0  0  0  0  0  0  0  0  0  0
  1  4  1  0  0  0  0
  1  9  2  0  0  0  0
  1 10  1  0  0  0  0
  2  4  1  6  0  0  0
  2  5  1  6  0  0  0
  3  4  1  0  0  0  0
  3  5  1  0  0  0  0
  4  6  1  0  0  0  0
  5  6  1  0  0  0  0
  5  8  1  0  0  0  0
  6 11  1  0  0  0  0
  6 12  1  0  0  0  0
  7 10  1  0  0  0  0
  2 13  1  0  0  0  0
  2 14  1  0  0  0  0
  3 15  1  0  0  0  0
  3 16  1  0  0  0  0
  7 17  1  0  0  0  0
  7 18  1  0  0  0  0
  7 19  1  0  0  0  0
  8 20  1  0  0  0  0
  8 21  1  0  0  0  0
M  END
> <id>
EN300-37466826

> <smiles>
COC(=O)[C@]1(C[C@@]2(N)C1)C2(F)F

> <IUPAC Name>
methyl (1r,3r)-3-amino-2,2-difluorobicyclo[1.1.1]pentane-1-carboxylate

> <URL>
https://www.enaminestore.com/catalog/EN300-37466826

> <ROCS_ShapeQuery>
x0812_0A_x1140_0A_x1097_0A_x0365_0A_x1097_0A_x0310_0A

> <ROCS_TanimotoCombo>
0.701 

> <ROCS_ShapeTanimoto>
0.223 

> <ROCS_ColorTanimoto>
0.478 

> <ROCS_RefTversky>
0.201 

> <ROCS_RefColorTversky>
0.557 

> <ROCS_RefTverskyCombo>
0.758 

> <ROCS_FitTversky>
1.946 

> <ROCS_FitColorTversky>
0.772 

> <ROCS_FitTverskyCombo>
2.718 

> <ROCS_ColorScore>
-8.298

> <ROCS_Overlap>
2036.847

> <ROCS_Rank>
346                 

$$$$
untitled-dbase-521278_3
  -OEChem-02092408543D

 21 22  0     0  0  0  0  0  0999 V2000
   10.1132   11.6282   22.7073 C   0  0  0  0  0  0  0  0  0  0  0  0
    7.6458   10.5563   23.3205 C   0  0  0  0  0  0  0  0  0  0  0  0
    9.1125   10.1355   24.8016 C   0  0  0  0  0  0  0  0  0  0  0  0
    9.0456   11.2048   23.6448 C   0  0  0  0  0  0  0  0  0  0  0  0
    7.6865   10.6724   24.8403 C   0  0  0  0  0  0  0  0  0  0  0  0
    8.2451   12.0796   24.6858 C   0  0  0  0  0  0  0  0  0  0  0  0
   12.2696   12.5910   22.6257 C   0  0  0  0  0  0  0  0  0  0  0  0
    6.6734   10.2714   25.7286 N   0  0  0  0  0  0  0  0  0  0  0  0
   10.0386   11.5216   21.4906 O   0  0  0  0  0  0  0  0  0  0  0  0
   11.1617   12.1410   23.4120 O   0  0  0  0  0  0  0  0  0  0  0  0
    8.9402   12.6136   25.7129 F   0  0  0  0  0  0  0  0  0  0  0  0
    7.4369   13.0438   24.1954 F   0  0  0  0  0  0  0  0  0  0  0  0
    6.9209   11.1755   22.7824 H   0  0  0  0  0  0  0  0  0  0  0  0
    7.6522    9.5498   22.8889 H   0  0  0  0  0  0  0  0  0  0  0  0
    9.2530    9.0905   24.5056 H   0  0  0  0  0  0  0  0  0  0  0  0
    9.7635   10.3610   25.6524 H   0  0  0  0  0  0  0  0  0  0  0  0
   13.0500   12.9808   23.2839 H   0  0  0  0  0  0  0  0  0  0  0  0
   11.9358   13.3712   21.9370 H   0  0  0  0  0  0  0  0  0  0  0  0
   12.6655   11.7482   22.0542 H   0  0  0  0  0  0  0  0  0  0  0  0
    7.0092    9.5673   26.3717 H   0  0  0  0  0  0  0  0  0  0  0  0
    6.3374   11.0525   26.2752 H   0  0  0  0  0  0  0  0  0  0  0  0
  1  4  1  0  0  0  0
  1  9  2  0  0  0  0
  1 10  1  0  0  0  0
  2  4  1  6  0  0  0
  2  5  1  6  0  0  0
  3  4  1  0  0  0  0
  3  5  1  0  0  0  0
  4  6  1  0  0  0  0
  5  6  1  0  0  0  0
  5  8  1  0  0  0  0
  6 11  1  0  0  0  0
  6 12  1  0  0  0  0
  7 10  1  0  0  0  0
  2 13  1  0  0  0  0
  2 14  1  0  0  0  0
  3 15  1  0  0  0  0
  3 16  1  0  0  0  0
  7 17  1  0  0  0  0
  7 18  1  0  0  0  0
  7 19  1  0  0  0  0
  8 20  1  0  0  0  0
  8 21  1  0  0  0  0
M  END
> <id>
EN300-37466868

> <smiles>
Cl.COC(=O)[C@]1(C[C@@]2(N)C1)C2(F)F

> <IUPAC Name>
methyl (1r,3r)-3-amino-2,2-difluorobicyclo[1.1.1]pentane-1-carboxylate hydrochloride

> <URL>
https://www.enaminestore.com/catalog/EN300-37466868

> <ROCS_ShapeQuery>
x0812_0A_x1140_0A_x1097_0A_x0365_0A_x1097_0A_x0310_0A

> <ROCS_TanimotoCombo>
0.701 

> <ROCS_ShapeTanimoto>
0.223 

> <ROCS_ColorTanimoto>
0.478 

> <ROCS_RefTversky>
0.201 

> <ROCS_RefColorTversky>
0.557 

> <ROCS_RefTverskyCombo>
0.758 

> <ROCS_FitTversky>
1.946 

> <ROCS_FitColorTversky>
0.772 

> <ROCS_FitTverskyCombo>
2.718 

> <ROCS_ColorScore>
-8.298

> <ROCS_Overlap>
2036.847

> <ROCS_Rank>
347                 

$$$$
untitled-dbase-264735_8
  -OEChem-02092408543D

 42 44  0     0  0  0  0  0  0999 V2000
    9.8745   13.7813   22.8215 C   0  0  0  0  0  0  0  0  0  0  0  0
    9.5643    8.5146   21.8183 C   0  0  0  0  0  0  0  0  0  0  0  0
   10.3138    9.2695   22.9361 C   0  0  0  0  0  0  0  0  0  0  0  0
    8.5339    9.6633   21.8037 C   0  0  0  0  0  0  0  0  0  0  0  0
    9.4244   11.5210   25.0727 C   0  0  0  0  0  0  0  0  0  0  0  0
    7.6937   11.9141   23.9593 C   0  0  0  0  0  0  0  0  0  0  0  0
    9.1442   11.5087   23.5304 C   0  0  0  0  0  0  0  0  0  0  0  0
    8.9910    9.9950   23.2346 C   0  0  0  0  0  0  0  0  0  0  0  0
    8.0199   10.7854   25.0273 C   0  0  0  0  0  0  0  0  0  0  0  0
   12.6588   14.2457   23.2485 C   0  0  0  0  0  0  0  0  0  0  0  0
   12.5492   15.6678   21.1809 C   0  0  0  0  0  0  0  0  0  0  0  0
   11.1935   16.2915   23.2012 C   0  0  0  0  0  0  0  0  0  0  0  0
    7.1926   10.6653   26.2743 C   0  0  0  0  0  0  0  0  0  0  0  0
   11.7701   15.1373   22.3825 C   0  0  0  0  0  0  0  0  0  0  0  0
    9.8911   12.4033   22.6923 N   0  0  0  0  0  0  0  0  0  0  0  0
    9.2303   14.4094   23.6553 O   0  0  0  0  0  0  0  0  0  0  0  0
    8.1766    9.5006   24.3351 O   0  0  0  0  0  0  0  0  0  0  0  0
    5.8352   10.4192   25.9220 O   0  0  0  0  0  0  0  0  0  0  0  0
   10.6856   14.3488   21.8795 O   0  0  0  0  0  0  0  0  0  0  0  0
   10.1219    8.3658   20.8902 H   0  0  0  0  0  0  0  0  0  0  0  0
    9.1461    7.5545   22.1419 H   0  0  0  0  0  0  0  0  0  0  0  0
   10.7000    8.6348   23.7388 H   0  0  0  0  0  0  0  0  0  0  0  0
   11.1279    9.9034   22.5685 H   0  0  0  0  0  0  0  0  0  0  0  0
    8.7423   10.4321   21.0519 H   0  0  0  0  0  0  0  0  0  0  0  0
    7.4930    9.3441   21.6985 H   0  0  0  0  0  0  0  0  0  0  0  0
   10.2668   10.9165   25.4212 H   0  0  0  0  0  0  0  0  0  0  0  0
    9.4548   12.4997   25.5651 H   0  0  0  0  0  0  0  0  0  0  0  0
    7.5535   12.9313   24.3422 H   0  0  0  0  0  0  0  0  0  0  0  0
    6.8916   11.6818   23.2525 H   0  0  0  0  0  0  0  0  0  0  0  0
   12.1032   13.8629   24.1121 H   0  0  0  0  0  0  0  0  0  0  0  0
   13.0505   13.3946   22.6820 H   0  0  0  0  0  0  0  0  0  0  0  0
   13.5058   14.8120   23.6523 H   0  0  0  0  0  0  0  0  0  0  0  0
   11.9154   16.3081   20.5568 H   0  0  0  0  0  0  0  0  0  0  0  0
   12.8842   14.8452   20.5389 H   0  0  0  0  0  0  0  0  0  0  0  0
   13.4263   16.2449   21.4910 H   0  0  0  0  0  0  0  0  0  0  0  0
   10.5560   16.9313   22.5802 H   0  0  0  0  0  0  0  0  0  0  0  0
   10.6002   15.9292   24.0469 H   0  0  0  0  0  0  0  0  0  0  0  0
   11.9937   16.9336   23.5868 H   0  0  0  0  0  0  0  0  0  0  0  0
    7.2319   11.5897   26.8665 H   0  0  0  0  0  0  0  0  0  0  0  0
    7.5409    9.8343   26.9028 H   0  0  0  0  0  0  0  0  0  0  0  0
   10.4696   11.9987   21.9564 H   0  0  0  0  0  0  0  0  0  0  0  0
    5.3408   10.3492   26.7538 H   0  0  0  0  0  0  0  0  0  0  0  0
  1 15  1  0  0  0  0
  1 16  2  0  0  0  0
  1 19  1  0  0  0  0
  2  3  1  0  0  0  0
  2  4  1  0  0  0  0
  3  8  1  0  0  0  0
  4  8  1  0  0  0  0
  5  7  1  0  0  0  0
  5  9  1  0  0  0  0
  6  7  1  0  0  0  0
  6  9  1  0  0  0  0
  7  8  1  0  0  0  0
  7 15  1  0  0  0  0
  8 17  1  0  0  0  0
  9 13  1  0  0  0  0
  9 17  1  0  0  0  0
 10 14  1  0  0  0  0
 11 14  1  0  0  0  0
 12 14  1  0  0  0  0
 13 18  1  0  0  0  0
 14 19  1  0  0  0  0
  2 20  1  0  0  0  0
  2 21  1  0  0  0  0
  3 22  1  0  0  0  0
  3 23  1  0  0  0  0
  4 24  1  0  0  0  0
  4 25  1  0  0  0  0
  5 26  1  0  0  0  0
  5 27  1  0  0  0  0
  6 28  1  0  0  0  0
  6 29  1  0  0  0  0
 10 30  1  0  0  0  0
 10 31  1  0  0  0  0
 10 32  1  0  0  0  0
 11 33  1  0  0  0  0
 11 34  1  0  0  0  0
 11 35  1  0  0  0  0
 12 36  1  0  0  0  0
 12 37  1  0  0  0  0
 12 38  1  0  0  0  0
 13 39  1  0  0  0  0
 13 40  1  0  0  0  0
 15 41  1  0  0  0  0
 18 42  1  0  0  0  0
M  END
> <id>
EN300-7548260

> <smiles>
CC(C)(C)OC(=O)NC1(CC2(CO)C1)C3(CCC3)O2

> <IUPAC Name>
tert-butyl N-[4-(hydroxymethyl)-3-oxaspiro[bicyclo[2.1.1]hexane-2,1'-cyclobutane]-1-yl]carbamate

> <CAS>
2490420-80-7

> <URL>
https://www.enaminestore.com/catalog/EN300-7548260

> <ROCS_ShapeQuery>
x0812_0A_x1140_0A_x1097_0A_x0365_0A_x1097_0A_x0310_0A

> <ROCS_TanimotoCombo>
0.701 

> <ROCS_ShapeTanimoto>
0.265 

> <ROCS_ColorTanimoto>
0.436 

> <ROCS_RefTversky>
0.237 

> <ROCS_RefColorTversky>
0.583 

> <ROCS_RefTverskyCombo>
0.820 

> <ROCS_FitTversky>
1.791 

> <ROCS_FitColorTversky>
0.634 

> <ROCS_FitTverskyCombo>
2.425 

> <ROCS_ColorScore>
-8.788

> <ROCS_Overlap>
2399.548

> <ROCS_Rank>
348                 

$$$$
untitled-dbase-473613_0
  -OEChem-02092408543D

 30 31  0     1  0  0  0  0  0999 V2000
   10.4284   11.7697   22.5758 C   0  0  0  0  0  0  0  0  0  0  0  0
    7.1402   11.0312   23.0553 C   0  0  0  0  0  0  0  0  0  0  0  0
    7.3589   12.2892   23.9048 C   0  0  0  0  0  0  0  0  0  0  0  0
    9.2962    9.7460   23.4908 C   0  0  0  0  0  0  0  0  0  0  0  0
    9.6346   11.8587   24.9627 C   0  0  0  0  0  0  0  0  0  0  0  0
   10.1642   10.9725   23.8219 C   0  0  2  0  0  0  0  0  0  0  0  0
    7.8024    9.8915   23.8437 C   0  0  1  0  0  0  0  0  0  0  0  0
    8.1080   11.8092   25.1586 C   0  0  2  0  0  0  0  0  0  0  0  0
    7.6780   10.3473   25.2999 C   0  0  0  0  0  0  0  0  0  0  0  0
   11.6304   13.6314   21.7553 C   0  0  0  0  0  0  0  0  0  0  0  0
    6.3136   10.2066   25.8095 N   0  0  0  0  0  0  0  0  0  0  0  0
    9.9327   11.5207   21.4852 O   0  0  0  0  0  0  0  0  0  0  0  0
   11.2900   12.7875   22.8599 O   0  0  0  0  0  0  0  0  0  0  0  0
    6.0656   10.8457   22.9404 H   0  0  0  0  0  0  0  0  0  0  0  0
    7.5542   11.1405   22.0479 H   0  0  0  0  0  0  0  0  0  0  0  0
    7.8885   13.0781   23.3643 H   0  0  0  0  0  0  0  0  0  0  0  0
    6.3845   12.7068   24.1866 H   0  0  0  0  0  0  0  0  0  0  0  0
    9.3964    9.4699   22.4335 H   0  0  0  0  0  0  0  0  0  0  0  0
    9.6868    8.8943   24.0642 H   0  0  0  0  0  0  0  0  0  0  0  0
   10.1006   11.5201   25.8980 H   0  0  0  0  0  0  0  0  0  0  0  0
    9.9528   12.8996   24.8242 H   0  0  0  0  0  0  0  0  0  0  0  0
   11.1598   10.6083   24.1111 H   0  0  0  0  0  0  0  0  0  0  0  0
    7.2971    8.9373   23.6557 H   0  0  0  0  0  0  0  0  0  0  0  0
    7.8417   12.4141   26.0329 H   0  0  0  0  0  0  0  0  0  0  0  0
    8.3434    9.7827   25.9628 H   0  0  0  0  0  0  0  0  0  0  0  0
   12.3214   14.4092   22.0894 H   0  0  0  0  0  0  0  0  0  0  0  0
   10.7229   14.0853   21.3492 H   0  0  0  0  0  0  0  0  0  0  0  0
   12.1111   13.0278   20.9818 H   0  0  0  0  0  0  0  0  0  0  0  0
    5.9711   11.1116   26.0260 H   0  0  0  0  0  0  0  0  0  0  0  0
    5.7640    9.7810   25.1024 H   0  0  0  0  0  0  0  0  0  0  0  0
  1  6  1  1  0  0  0
  1 12  2  0  0  0  0
  1 13  1  0  0  0  0
  2  3  1  0  0  0  0
  2  7  1  1  0  0  0
  3  8  1  1  0  0  0
  4  6  1  0  0  0  0
  4  7  1  0  0  0  0
  5  6  1  0  0  0  0
  5  8  1  0  0  0  0
  7  9  1  0  0  0  0
  8  9  1  0  0  0  0
  9 11  1  0  0  0  0
 10 13  1  0  0  0  0
  2 14  1  0  0  0  0
  2 15  1  0  0  0  0
  3 16  1  0  0  0  0
  3 17  1  0  0  0  0
  4 18  1  0  0  0  0
  4 19  1  0  0  0  0
  5 20  1  0  0  0  0
  5 21  1  0  0  0  0
  6 22  1  0  0  0  0
  7 23  1  0  0  0  0
  8 24  1  0  0  0  0
  9 25  1  0  0  0  0
 10 26  1  0  0  0  0
 10 27  1  0  0  0  0
 10 28  1  0  0  0  0
 11 29  1  0  0  0  0
 11 30  1  0  0  0  0
M  END
> <id>
EN300-27732046

> <smiles>
COC(=O)[C@@H]1C[C@@H]2CC[C@H](C1)C2N

> <IUPAC Name>
methyl (1R,3S,5S)-8-aminobicyclo[3.2.1]octane-3-carboxylate

> <URL>
https://www.enaminestore.com/catalog/EN300-27732046

> <ROCS_ShapeQuery>
x0812_0A_x1140_0A_x1097_0A_x0365_0A_x1097_0A_x0310_0A

> <ROCS_TanimotoCombo>
0.701 

> <ROCS_ShapeTanimoto>
0.231 

> <ROCS_ColorTanimoto>
0.470 

> <ROCS_RefTversky>
0.208 

> <ROCS_RefColorTversky>
0.516 

> <ROCS_RefTverskyCombo>
0.723 

> <ROCS_FitTversky>
1.967 

> <ROCS_FitColorTversky>
0.841 

> <ROCS_FitTverskyCombo>
2.808 

> <ROCS_ColorScore>
-7.640

> <ROCS_Overlap>
2099.344

> <ROCS_Rank>
349                 

$$$$
untitled-dbase-504701_0
  -OEChem-02092408543D

 24 26  0     1  0  0  0  0  0999 V2000
    9.2972    9.8201   23.9571 C   0  0  0  0  0  0  0  0  0  0  0  0
    9.6641   10.7128   25.1197 C   0  0  0  0  0  0  0  0  0  0  0  0
    7.3061   10.6441   24.7791 C   0  0  0  0  0  0  0  0  0  0  0  0
    9.1140   11.7125   21.6587 C   0  0  0  0  0  0  0  0  0  0  0  0
    9.6412   13.2308   23.3560 C   0  0  0  0  0  0  0  0  0  0  0  0
    7.9217   10.2054   23.4452 C   0  0  1  0  0  0  0  0  0  0  0  0
    8.4321   11.6421   25.0896 C   0  0  2  0  0  0  0  0  0  0  0  0
    8.0124   11.5466   22.6958 C   0  0  1  0  0  0  0  0  0  0  0  0
    8.3669   12.5452   23.8260 C   0  0  2  0  0  0  0  0  0  0  0  0
   10.2351   12.3030   22.3916 N   0  0  0  0  0  0  0  0  0  0  0  0
   10.0073    8.9442   23.4888 O   0  0  0  0  0  0  0  0  0  0  0  0
    9.6858   10.1148   26.0357 H   0  0  0  0  0  0  0  0  0  0  0  0
   10.6137   11.2273   24.9787 H   0  0  0  0  0  0  0  0  0  0  0  0
    6.3251   11.1183   24.6667 H   0  0  0  0  0  0  0  0  0  0  0  0
    7.2386    9.8358   25.5161 H   0  0  0  0  0  0  0  0  0  0  0  0
    9.3910   10.7724   21.1723 H   0  0  0  0  0  0  0  0  0  0  0  0
    8.7945   12.4106   20.8761 H   0  0  0  0  0  0  0  0  0  0  0  0
    9.3982   14.1681   22.8416 H   0  0  0  0  0  0  0  0  0  0  0  0
   10.3270   13.4717   24.1736 H   0  0  0  0  0  0  0  0  0  0  0  0
    7.4036    9.3968   22.9304 H   0  0  0  0  0  0  0  0  0  0  0  0
    8.3032   12.2018   26.0190 H   0  0  0  0  0  0  0  0  0  0  0  0
    7.0360   11.7941   22.2609 H   0  0  0  0  0  0  0  0  0  0  0  0
    7.5610   13.2802   23.9468 H   0  0  0  0  0  0  0  0  0  0  0  0
   10.7491   11.5727   22.8783 H   0  0  0  0  0  0  0  0  0  0  0  0
  1  2  1  0  0  0  0
  1  6  1  0  0  0  0
  1 11  2  0  0  0  0
  2  7  1  0  0  0  0
  3  6  1  1  0  0  0
  3  7  1  1  0  0  0
  4  8  1  6  0  0  0
  4 10  1  0  0  0  0
  5  9  1  6  0  0  0
  5 10  1  0  0  0  0
  6  8  1  0  0  0  0
  7  9  1  0  0  0  0
  8  9  1  0  0  0  0
  2 12  1  0  0  0  0
  2 13  1  0  0  0  0
  3 14  1  0  0  0  0
  3 15  1  0  0  0  0
  4 16  1  0  0  0  0
  4 17  1  0  0  0  0
  5 18  1  0  0  0  0
  5 19  1  0  0  0  0
  6 20  1  0  0  0  0
  7 21  1  0  0  0  0
  8 22  1  0  0  0  0
  9 23  1  0  0  0  0
 10 24  1  0  0  0  0
M  END
> <id>
EN300-28270715

> <smiles>
O=C1C[C@@H]2C[C@H]1[C@@H]3CNC[C@H]23 |&1:3,5,6,10,r|

> <IUPAC Name>
rac-(1R,2S,6S,7R)-4-azatricyclo[5.2.1.0,2,6]decan-8-one

> <CAS>
2679823-40-4

> <URL>
https://www.enaminestore.com/catalog/EN300-28270715

> <ROCS_ShapeQuery>
x0812_0A_x1140_0A_x1097_0A_x0365_0A_x1097_0A_x0310_0A

> <ROCS_TanimotoCombo>
0.701 

> <ROCS_ShapeTanimoto>
0.205 

> <ROCS_ColorTanimoto>
0.496 

> <ROCS_RefTversky>
0.187 

> <ROCS_RefColorTversky>
0.569 

> <ROCS_RefTverskyCombo>
0.756 

> <ROCS_FitTversky>
1.871 

> <ROCS_FitColorTversky>
0.794 

> <ROCS_FitTverskyCombo>
2.665 

> <ROCS_ColorScore>
-8.486

> <ROCS_Overlap>
1890.521

> <ROCS_Rank>
350                 

$$$$
untitled-dbase-569761_4
  -OEChem-02092408543D

 37 38  0     1  0  0  0  0  0999 V2000
   10.0115   12.5853   21.9384 C   0  0  0  0  0  0  0  0  0  0  0  0
    8.5968   11.5532   25.9234 C   0  0  0  0  0  0  0  0  0  0  0  0
    7.6663    9.6650   23.6287 C   0  0  0  0  0  0  0  0  0  0  0  0
    7.8842   12.5834   25.0326 C   0  0  0  0  0  0  0  0  0  0  0  0
    7.6807   10.9995   22.8847 C   0  0  0  0  0  0  0  0  0  0  0  0
    9.3677   11.0222   24.6903 C   0  0  1  0  0  0  0  0  0  0  0  0
    9.0540    9.5885   24.2623 C   0  0  2  0  0  0  0  0  0  0  0  0
    8.4930   11.9131   23.7857 C   0  0  2  0  0  0  0  0  0  0  0  0
   10.5249   13.1734   19.1924 C   0  0  0  0  0  0  0  0  0  0  0  0
   12.1478   14.8857   20.0546 C   0  0  0  0  0  0  0  0  0  0  0  0
   12.5131   12.4520   20.5566 C   0  0  0  0  0  0  0  0  0  0  0  0
   11.4699   13.5460   20.3338 C   0  0  0  0  0  0  0  0  0  0  0  0
    9.3313   12.8811   23.0874 N   0  0  0  0  0  0  0  0  0  0  0  0
   10.0165   11.5085   21.3510 O   0  0  0  0  0  0  0  0  0  0  0  0
    9.9947    9.1784   23.2745 O   0  0  0  0  0  0  0  0  0  0  0  0
   10.7006   13.6934   21.5327 O   0  0  0  0  0  0  0  0  0  0  0  0
    9.2322   11.9934   26.6986 H   0  0  0  0  0  0  0  0  0  0  0  0
    7.9232   10.8316   26.3976 H   0  0  0  0  0  0  0  0  0  0  0  0
    6.8938    9.6856   24.4062 H   0  0  0  0  0  0  0  0  0  0  0  0
    7.4589    8.8327   22.9494 H   0  0  0  0  0  0  0  0  0  0  0  0
    6.7915   12.5552   25.0882 H   0  0  0  0  0  0  0  0  0  0  0  0
    8.2127   13.6129   25.2159 H   0  0  0  0  0  0  0  0  0  0  0  0
    8.1647   10.8592   21.9098 H   0  0  0  0  0  0  0  0  0  0  0  0
    6.6691   11.3771   22.7061 H   0  0  0  0  0  0  0  0  0  0  0  0
   10.4355   11.2678   24.7264 H   0  0  0  0  0  0  0  0  0  0  0  0
    9.0897    8.8767   25.0925 H   0  0  0  0  0  0  0  0  0  0  0  0
   10.0362   12.2124   19.3891 H   0  0  0  0  0  0  0  0  0  0  0  0
    9.7506   13.9335   19.0453 H   0  0  0  0  0  0  0  0  0  0  0  0
   11.0753   13.0537   18.2523 H   0  0  0  0  0  0  0  0  0  0  0  0
   12.8269   15.1570   20.8711 H   0  0  0  0  0  0  0  0  0  0  0  0
   11.4077   15.6913   19.9881 H   0  0  0  0  0  0  0  0  0  0  0  0
   12.7197   14.8623   19.1214 H   0  0  0  0  0  0  0  0  0  0  0  0
   13.1911   12.7190   21.3753 H   0  0  0  0  0  0  0  0  0  0  0  0
   12.0454   11.4912   20.7948 H   0  0  0  0  0  0  0  0  0  0  0  0
   13.1391   12.3234   19.6662 H   0  0  0  0  0  0  0  0  0  0  0  0
    9.4129   13.8083   23.4682 H   0  0  0  0  0  0  0  0  0  0  0  0
   10.8590    9.1419   23.7132 H   0  0  0  0  0  0  0  0  0  0  0  0
  1 13  1  0  0  0  0
  1 14  2  0  0  0  0
  1 16  1  0  0  0  0
  2  4  1  0  0  0  0
  2  6  1  1  0  0  0
  3  5  1  0  0  0  0
  3  7  1  0  0  0  0
  4  8  1  0  0  0  0
  5  8  1  0  0  0  0
  6  7  1  0  0  0  0
  6  8  1  0  0  0  0
  7 15  1  6  0  0  0
  8 13  1  6  0  0  0
  9 12  1  0  0  0  0
 10 12  1  0  0  0  0
 11 12  1  0  0  0  0
 12 16  1  0  0  0  0
  2 17  1  0  0  0  0
  2 18  1  0  0  0  0
  3 19  1  0  0  0  0
  3 20  1  0  0  0  0
  4 21  1  0  0  0  0
  4 22  1  0  0  0  0
  5 23  1  0  0  0  0
  5 24  1  0  0  0  0
  6 25  1  0  0  0  0
  7 26  1  0  0  0  0
  9 27  1  0  0  0  0
  9 28  1  0  0  0  0
  9 29  1  0  0  0  0
 10 30  1  0  0  0  0
 10 31  1  0  0  0  0
 10 32  1  0  0  0  0
 11 33  1  0  0  0  0
 11 34  1  0  0  0  0
 11 35  1  0  0  0  0
 13 36  1  0  0  0  0
 15 37  1  0  0  0  0
M  END
> <id>
EN300-37366845

> <smiles>
CC(C)(C)OC(=O)N[C@@]12CC[C@H]2[C@H](O)CC1 |&1:8,11,12,r|

> <IUPAC Name>
rac-tert-butyl N-[(1R,4S,5S)-4-hydroxybicyclo[3.2.0]heptan-1-yl]carbamate

> <URL>
https://www.enaminestore.com/catalog/EN300-37366845

> <ROCS_ShapeQuery>
x0812_0A_x1140_0A_x1097_0A_x0365_0A_x1097_0A_x0310_0A

> <ROCS_TanimotoCombo>
0.701 

> <ROCS_ShapeTanimoto>
0.206 

> <ROCS_ColorTanimoto>
0.495 

> <ROCS_RefTversky>
0.191 

> <ROCS_RefColorTversky>
0.567 

> <ROCS_RefTverskyCombo>
0.759 

> <ROCS_FitTversky>
1.614 

> <ROCS_FitColorTversky>
0.794 

> <ROCS_FitTverskyCombo>
2.408 

> <ROCS_ColorScore>
-8.456

> <ROCS_Overlap>
1933.856

> <ROCS_Rank>
351                 

$$$$
untitled-dbase-241960_4
  -OEChem-02092408543D

 29 30  0     0  0  0  0  0  0999 V2000
    9.3504    9.9625   23.6987 C   0  0  0  0  0  0  0  0  0  0  0  0
   10.0759   11.9456   22.2992 C   0  0  0  0  0  0  0  0  0  0  0  0
    6.7419   11.1472   24.0682 C   0  0  0  0  0  0  0  0  0  0  0  0
    8.4436   11.7399   25.7882 C   0  0  0  0  0  0  0  0  0  0  0  0
    7.6846   11.6292   22.9501 C   0  0  0  0  0  0  0  0  0  0  0  0
    9.4058   12.2271   24.6892 C   0  0  0  0  0  0  0  0  0  0  0  0
    7.5750   10.6007   25.2363 C   0  0  0  0  0  0  0  0  0  0  0  0
    9.1591   11.4488   23.3768 C   0  0  0  0  0  0  0  0  0  0  0  0
   12.5749   14.6058   22.5590 C   0  0  0  0  0  0  0  0  0  0  0  0
   11.7870   13.5160   21.8637 C   0  0  0  0  0  0  0  0  0  0  0  0
    8.4668    9.5774   24.7063 N   0  0  0  0  0  0  0  0  0  0  0  0
   10.1607    9.2266   23.1493 O   0  0  0  0  0  0  0  0  0  0  0  0
   10.0976   11.5012   21.1593 O   0  0  0  0  0  0  0  0  0  0  0  0
   10.8586   12.9472   22.7924 O   0  0  0  0  0  0  0  0  0  0  0  0
    6.1047   11.9739   24.4037 H   0  0  0  0  0  0  0  0  0  0  0  0
    6.0726   10.3697   23.6806 H   0  0  0  0  0  0  0  0  0  0  0  0
    9.0164   11.3960   26.6580 H   0  0  0  0  0  0  0  0  0  0  0  0
    7.8157   12.5704   26.1320 H   0  0  0  0  0  0  0  0  0  0  0  0
    7.4787   11.0607   22.0336 H   0  0  0  0  0  0  0  0  0  0  0  0
    7.4743   12.6798   22.7134 H   0  0  0  0  0  0  0  0  0  0  0  0
    9.2756   13.3052   24.5319 H   0  0  0  0  0  0  0  0  0  0  0  0
   10.4411   12.0890   25.0279 H   0  0  0  0  0  0  0  0  0  0  0  0
    6.9434   10.1599   26.0128 H   0  0  0  0  0  0  0  0  0  0  0  0
   11.9120   15.3975   22.9189 H   0  0  0  0  0  0  0  0  0  0  0  0
   13.1316   14.1973   23.4088 H   0  0  0  0  0  0  0  0  0  0  0  0
   13.3113   15.0443   21.8773 H   0  0  0  0  0  0  0  0  0  0  0  0
   12.4559   12.7274   21.5062 H   0  0  0  0  0  0  0  0  0  0  0  0
   11.2308   13.9260   21.0154 H   0  0  0  0  0  0  0  0  0  0  0  0
    8.4467    8.6240   25.0545 H   0  0  0  0  0  0  0  0  0  0  0  0
  1  8  1  0  0  0  0
  1 11  1  0  0  0  0
  1 12  2  0  0  0  0
  2  8  1  0  0  0  0
  2 13  2  0  0  0  0
  2 14  1  0  0  0  0
  3  5  1  0  0  0  0
  3  7  1  0  0  0  0
  4  6  1  0  0  0  0
  4  7  1  0  0  0  0
  5  8  1  0  0  0  0
  6  8  1  0  0  0  0
  7 11  1  0  0  0  0
  9 10  1  0  0  0  0
 10 14  1  0  0  0  0
  3 15  1  0  0  0  0
  3 16  1  0  0  0  0
  4 17  1  0  0  0  0
  4 18  1  0  0  0  0
  5 19  1  0  0  0  0
  5 20  1  0  0  0  0
  6 21  1  0  0  0  0
  6 22  1  0  0  0  0
  7 23  1  0  0  0  0
  9 24  1  0  0  0  0
  9 25  1  0  0  0  0
  9 26  1  0  0  0  0
 10 27  1  0  0  0  0
 10 28  1  0  0  0  0
 11 29  1  0  0  0  0
M  END
> <id>
EN300-7494538

> <smiles>
CCOC(=O)C1(CCC2CC1)C(=O)N2

> <MDLNUMBER>
MFCD00102034

> <IUPAC Name>
ethyl 3-oxo-2-azabicyclo[2.2.2]octane-4-carboxylate

> <CAS>
21933-15-3

> <Purity>
95

> <URL>
https://www.enaminestore.com/catalog/EN300-7494538

> <MP>
121-123

> <ROCS_ShapeQuery>
x0812_0A_x1140_0A_x1097_0A_x0365_0A_x1097_0A_x0310_0A

> <ROCS_TanimotoCombo>
0.701 

> <ROCS_ShapeTanimoto>
0.241 

> <ROCS_ColorTanimoto>
0.459 

> <ROCS_RefTversky>
0.216 

> <ROCS_RefColorTversky>
0.514 

> <ROCS_RefTverskyCombo>
0.729 

> <ROCS_FitTversky>
1.942 

> <ROCS_FitColorTversky>
0.814 

> <ROCS_FitTverskyCombo>
2.756 

> <ROCS_ColorScore>
-7.617

> <ROCS_Overlap>
2184.016

> <ROCS_Rank>
352                 

$$$$
untitled-dbase-140128_6
  -OEChem-02092408543D

 31 32  0     1  0  0  0  0  0999 V2000
    8.5269   12.7269   24.1100 C   0  0  0  0  0  0  0  0  0  0  0  0
    7.3523   12.0637   23.3504 C   0  0  0  0  0  0  0  0  0  0  0  0
    9.3179   10.8278   25.6094 C   0  0  0  0  0  0  0  0  0  0  0  0
    7.3503    9.7166   24.3357 C   0  0  0  0  0  0  0  0  0  0  0  0
    7.8708   10.2847   25.6773 C   0  0  0  0  0  0  0  0  0  0  0  0
    9.6142   11.6622   24.3514 C   0  0  1  0  0  0  0  0  0  0  0  0
    7.7003   10.5817   23.1127 C   0  0  2  0  0  0  0  0  0  0  0  0
    6.3235    8.6485   26.7786 C   0  0  0  0  0  0  0  0  0  0  0  0
    8.1860    9.8098   28.1471 C   0  0  0  0  0  0  0  0  0  0  0  0
    7.7424    9.2401   26.7870 C   0  0  0  0  0  0  0  0  0  0  0  0
   10.0469    9.3086   23.1669 O   0  0  0  0  0  0  0  0  0  0  0  0
    9.8135   11.3741   21.7256 O   0  0  0  0  0  0  0  0  0  0  0  0
    9.4762   10.6130   22.9108 S   0  0  0  0  0  0  0  0  0  0  0  0
    5.0725    9.8796   27.0766 Cl  0  0  0  0  0  0  0  0  0  0  0  0
    7.2577   11.2408   28.6572 Cl  0  0  0  0  0  0  0  0  0  0  0  0
    8.9352   13.5311   23.4852 H   0  0  0  0  0  0  0  0  0  0  0  0
    8.1930   13.1941   25.0426 H   0  0  0  0  0  0  0  0  0  0  0  0
    6.4044   12.1844   23.8855 H   0  0  0  0  0  0  0  0  0  0  0  0
    7.2333   12.5701   22.3843 H   0  0  0  0  0  0  0  0  0  0  0  0
    9.4988   11.4471   26.4973 H   0  0  0  0  0  0  0  0  0  0  0  0
   10.0290    9.9945   25.6695 H   0  0  0  0  0  0  0  0  0  0  0  0
    7.7398    8.7017   24.1874 H   0  0  0  0  0  0  0  0  0  0  0  0
    6.2591    9.6173   24.4002 H   0  0  0  0  0  0  0  0  0  0  0  0
    7.2162   11.1200   25.9597 H   0  0  0  0  0  0  0  0  0  0  0  0
   10.6181   12.0929   24.3871 H   0  0  0  0  0  0  0  0  0  0  0  0
    7.2423   10.1870   22.2021 H   0  0  0  0  0  0  0  0  0  0  0  0
    6.2209    7.8989   27.5701 H   0  0  0  0  0  0  0  0  0  0  0  0
    6.0892    8.1593   25.8284 H   0  0  0  0  0  0  0  0  0  0  0  0
    8.0945    9.0633   28.9414 H   0  0  0  0  0  0  0  0  0  0  0  0
    9.2388   10.1085   28.1056 H   0  0  0  0  0  0  0  0  0  0  0  0
    8.4433    8.4282   26.5437 H   0  0  0  0  0  0  0  0  0  0  0  0
  1  2  1  0  0  0  0
  1  6  1  0  0  0  0
  2  7  1  0  0  0  0
  3  5  1  0  0  0  0
  3  6  1  0  0  0  0
  4  5  1  0  0  0  0
  4  7  1  0  0  0  0
  5 10  1  0  0  0  0
  6 13  1  0  0  0  0
  7 13  1  0  0  0  0
  8 10  1  0  0  0  0
  8 14  1  0  0  0  0
  9 10  1  0  0  0  0
  9 15  1  0  0  0  0
 11 13  2  0  0  0  0
 12 13  2  0  0  0  0
  1 16  1  0  0  0  0
  1 17  1  0  0  0  0
  2 18  1  0  0  0  0
  2 19  1  0  0  0  0
  3 20  1  0  0  0  0
  3 21  1  0  0  0  0
  4 22  1  0  0  0  0
  4 23  1  0  0  0  0
  5 24  1  0  0  0  0
  6 25  1  0  0  0  0
  7 26  1  0  0  0  0
  8 27  1  0  0  0  0
  8 28  1  0  0  0  0
  9 29  1  0  0  0  0
  9 30  1  0  0  0  0
 10 31  1  0  0  0  0
M  END
> <id>
EN300-1459445

> <smiles>
ClCC(CCl)C1CC2CCC(C1)S2(=O)=O

> <IUPAC Name>
3-(1,3-dichloropropan-2-yl)-8lambda6-thiabicyclo[3.2.1]octane-8,8-dione

> <CAS>
2172118-14-6

> <URL>
https://www.enaminestore.com/catalog/EN300-1459445

> <ROCS_ShapeQuery>
x0812_0A_x1140_0A_x1097_0A_x0365_0A_x1097_0A_x0310_0A

> <ROCS_TanimotoCombo>
0.701 

> <ROCS_ShapeTanimoto>
0.186 

> <ROCS_ColorTanimoto>
0.515 

> <ROCS_RefTversky>
0.174 

> <ROCS_RefColorTversky>
0.526 

> <ROCS_RefTverskyCombo>
0.700 

> <ROCS_FitTversky>
1.599 

> <ROCS_FitColorTversky>
0.960 

> <ROCS_FitTverskyCombo>
2.559 

> <ROCS_ColorScore>
-7.766

> <ROCS_Overlap>
1757.659

> <ROCS_Rank>
353                 

$$$$
untitled-dbase-1388_1
  -OEChem-02092408543D

 32 34  0     1  0  0  0  0  0999 V2000
    9.4298   13.9961   23.6207 C   0  0  0  0  0  0  0  0  0  0  0  0
    6.6959   10.8917   24.8661 C   0  0  0  0  0  0  0  0  0  0  0  0
    8.6039   12.4411   25.3703 C   0  0  0  0  0  0  0  0  0  0  0  0
    7.5306   12.4640   23.0990 C   0  0  0  0  0  0  0  0  0  0  0  0
    9.0120    9.9768   25.1513 C   0  0  0  0  0  0  0  0  0  0  0  0
    7.9428   10.0009   22.8818 C   0  0  0  0  0  0  0  0  0  0  0  0
    9.8518   11.5497   23.3823 C   0  0  0  0  0  0  0  0  0  0  0  0
    8.0179   11.0432   25.6394 C   0  0  2  0  0  0  0  0  0  0  0  0
    6.9413   11.0658   23.3567 C   0  0  1  0  0  0  0  0  0  0  0  0
    8.8609   12.6273   23.8614 C   0  0  0  0  0  0  0  0  0  0  0  0
    9.2708   10.1486   23.6438 C   0  0  0  0  0  0  0  0  0  0  0  0
    8.5816   15.1652   24.0427 C   0  0  0  0  0  0  0  0  0  0  0  0
   10.5357   14.1537   23.1058 O   0  0  0  0  0  0  0  0  0  0  0  0
   10.1897    9.1540   23.2153 O   0  0  0  0  0  0  0  0  0  0  0  0
    6.2590    9.9049   25.0623 H   0  0  0  0  0  0  0  0  0  0  0  0
    5.9704   11.6366   25.2155 H   0  0  0  0  0  0  0  0  0  0  0  0
    7.9141   13.2121   25.7381 H   0  0  0  0  0  0  0  0  0  0  0  0
    9.5367   12.5697   25.9351 H   0  0  0  0  0  0  0  0  0  0  0  0
    7.6882   12.6110   22.0224 H   0  0  0  0  0  0  0  0  0  0  0  0
    6.8122   13.2332   23.4116 H   0  0  0  0  0  0  0  0  0  0  0  0
    9.9560   10.0507   25.7066 H   0  0  0  0  0  0  0  0  0  0  0  0
    8.6256    8.9699   25.3560 H   0  0  0  0  0  0  0  0  0  0  0  0
    7.5320    8.9941   23.0320 H   0  0  0  0  0  0  0  0  0  0  0  0
    8.1139   10.0922   21.8013 H   0  0  0  0  0  0  0  0  0  0  0  0
   10.0754   11.6744   22.3138 H   0  0  0  0  0  0  0  0  0  0  0  0
   10.8209   11.6537   23.8893 H   0  0  0  0  0  0  0  0  0  0  0  0
    7.8364   10.9179   26.7125 H   0  0  0  0  0  0  0  0  0  0  0  0
    5.9968   10.9557   22.8125 H   0  0  0  0  0  0  0  0  0  0  0  0
    8.8119   15.4334   25.0775 H   0  0  0  0  0  0  0  0  0  0  0  0
    7.5250   14.8947   23.9745 H   0  0  0  0  0  0  0  0  0  0  0  0
    8.7938   16.0228   23.3997 H   0  0  0  0  0  0  0  0  0  0  0  0
   10.3294    9.2915   22.2641 H   0  0  0  0  0  0  0  0  0  0  0  0
  1 10  1  0  0  0  0
  1 12  1  0  0  0  0
  1 13  2  0  0  0  0
  2  8  1  0  0  0  0
  2  9  1  0  0  0  0
  3  8  1  0  0  0  0
  3 10  1  0  0  0  0
  4  9  1  0  0  0  0
  4 10  1  0  0  0  0
  5  8  1  0  0  0  0
  5 11  1  0  0  0  0
  6  9  1  0  0  0  0
  6 11  1  0  0  0  0
  7 10  1  0  0  0  0
  7 11  1  0  0  0  0
 11 14  1  0  0  0  0
  2 15  1  0  0  0  0
  2 16  1  0  0  0  0
  3 17  1  0  0  0  0
  3 18  1  0  0  0  0
  4 19  1  0  0  0  0
  4 20  1  0  0  0  0
  5 21  1  0  0  0  0
  5 22  1  0  0  0  0
  6 23  1  0  0  0  0
  6 24  1  0  0  0  0
  7 25  1  0  0  0  0
  7 26  1  0  0  0  0
  8 27  1  0  0  0  0
  9 28  1  0  0  0  0
 12 29  1  0  0  0  0
 12 30  1  0  0  0  0
 12 31  1  0  0  0  0
 14 32  1  0  0  0  0
M  END
> <id>
EN300-03264

> <smiles>
CC(=O)C1(CC2CC3CC(O)(C2)C1)C3

> <IUPAC Name>
1-(3-hydroxyadamantan-1-yl)ethan-1-one

> <CAS>
39917-38-9

> <URL>
https://www.enaminestore.com/catalog/EN300-03264

> <ROCS_ShapeQuery>
x0812_0A_x1140_0A_x1097_0A_x0365_0A_x1097_0A_x0310_0A

> <ROCS_TanimotoCombo>
0.701 

> <ROCS_ShapeTanimoto>
0.227 

> <ROCS_ColorTanimoto>
0.473 

> <ROCS_RefTversky>
0.206 

> <ROCS_RefColorTversky>
0.532 

> <ROCS_RefTverskyCombo>
0.738 

> <ROCS_FitTversky>
1.843 

> <ROCS_FitColorTversky>
0.810 

> <ROCS_FitTverskyCombo>
2.654 

> <ROCS_ColorScore>
-7.905

> <ROCS_Overlap>
2083.285

> <ROCS_Rank>
354                 

$$$$
untitled-dbase-560324_1
  -OEChem-02092408543D

 28 29  0     0  0  0  0  0  0999 V2000
   10.0457   11.9586   22.5098 C   0  0  0  0  0  0  0  0  0  0  0  0
    9.1408   11.7692   25.0291 C   0  0  0  0  0  0  0  0  0  0  0  0
    7.6091   11.8297   23.6273 C   0  0  0  0  0  0  0  0  0  0  0  0
    9.1005   11.3104   23.5143 C   0  0  0  0  0  0  0  0  0  0  0  0
    7.7533   11.0231   24.9741 C   0  0  0  0  0  0  0  0  0  0  0  0
    8.9888    9.7589   23.5692 C   0  0  0  0  0  0  0  0  0  0  0  0
    6.7500   11.1717   26.0773 C   0  0  0  0  0  0  0  0  0  0  0  0
    8.4428    9.1520   22.2804 C   0  0  0  0  0  0  0  0  0  0  0  0
   10.2929    9.0781   23.9725 C   0  0  0  0  0  0  0  0  0  0  0  0
   10.9645   13.0166   23.0718 C   0  0  0  0  0  0  0  0  0  0  0  0
   10.0284   11.6148   21.3292 O   0  0  0  0  0  0  0  0  0  0  0  0
    8.0179    9.6311   24.6252 O   0  0  0  0  0  0  0  0  0  0  0  0
   12.1298   13.6992   21.6829 Br  0  0  0  0  0  0  0  0  0  0  0  0
    9.8983   11.3200   25.6751 H   0  0  0  0  0  0  0  0  0  0  0  0
    9.1207   12.8488   25.2211 H   0  0  0  0  0  0  0  0  0  0  0  0
    7.4665   12.9142   23.7066 H   0  0  0  0  0  0  0  0  0  0  0  0
    6.8802   11.4391   22.9139 H   0  0  0  0  0  0  0  0  0  0  0  0
    5.8444   10.5836   25.8734 H   0  0  0  0  0  0  0  0  0  0  0  0
    6.4457   12.2204   26.1997 H   0  0  0  0  0  0  0  0  0  0  0  0
    7.1607   10.8294   27.0373 H   0  0  0  0  0  0  0  0  0  0  0  0
    8.3866    8.0683   22.3756 H   0  0  0  0  0  0  0  0  0  0  0  0
    9.0976    9.4018   21.4465 H   0  0  0  0  0  0  0  0  0  0  0  0
    7.4462    9.5433   22.0794 H   0  0  0  0  0  0  0  0  0  0  0  0
   10.1561    7.9976   23.9942 H   0  0  0  0  0  0  0  0  0  0  0  0
   10.5980    9.4174   24.9617 H   0  0  0  0  0  0  0  0  0  0  0  0
   11.0761    9.3227   23.2557 H   0  0  0  0  0  0  0  0  0  0  0  0
   11.6014   12.5920   23.8502 H   0  0  0  0  0  0  0  0  0  0  0  0
   10.3844   13.8600   23.4515 H   0  0  0  0  0  0  0  0  0  0  0  0
  1  4  1  0  0  0  0
  1 10  1  0  0  0  0
  1 11  2  0  0  0  0
  2  4  1  0  0  0  0
  2  5  1  0  0  0  0
  3  4  1  0  0  0  0
  3  5  1  0  0  0  0
  4  6  1  0  0  0  0
  5  7  1  0  0  0  0
  5 12  1  0  0  0  0
  6  8  1  0  0  0  0
  6  9  1  0  0  0  0
  6 12  1  0  0  0  0
 10 13  1  0  0  0  0
  2 14  1  0  0  0  0
  2 15  1  0  0  0  0
  3 16  1  0  0  0  0
  3 17  1  0  0  0  0
  7 18  1  0  0  0  0
  7 19  1  0  0  0  0
  7 20  1  0  0  0  0
  8 21  1  0  0  0  0
  8 22  1  0  0  0  0
  8 23  1  0  0  0  0
  9 24  1  0  0  0  0
  9 25  1  0  0  0  0
  9 26  1  0  0  0  0
 10 27  1  0  0  0  0
 10 28  1  0  0  0  0
M  END
> <id>
EN300-7456646

> <smiles>
CC1(CC2(C1)C(=O)CBr)OC2(C)C

> <IUPAC Name>
2-bromo-1-{1,3,3-trimethyl-2-oxabicyclo[2.1.1]hexan-4-yl}ethan-1-one

> <CAS>
2573214-08-9

> <Purity>
95

> <URL>
https://www.enaminestore.com/catalog/EN300-7456646

> <ROCS_ShapeQuery>
x0812_0A_x1140_0A_x1097_0A_x0365_0A_x1097_0A_x0310_0A

> <ROCS_TanimotoCombo>
0.701 

> <ROCS_ShapeTanimoto>
0.238 

> <ROCS_ColorTanimoto>
0.463 

> <ROCS_RefTversky>
0.212 

> <ROCS_RefColorTversky>
0.549 

> <ROCS_RefTverskyCombo>
0.761 

> <ROCS_FitTversky>
2.026 

> <ROCS_FitColorTversky>
0.747 

> <ROCS_FitTverskyCombo>
2.773 

> <ROCS_ColorScore>
-8.192

> <ROCS_Overlap>
2144.828

> <ROCS_Rank>
355                 

$$$$
untitled-dbase-490350_1
  -OEChem-02092408543D

 24 25  0     0  0  0  0  0  0999 V2000
    8.3182   11.8240   25.2739 C   0  0  0  0  0  0  0  0  0  0  0  0
    7.8421   11.7117   23.2369 C   0  0  0  0  0  0  0  0  0  0  0  0
    9.5372   10.1048   24.0063 C   0  0  0  0  0  0  0  0  0  0  0  0
    9.2166   11.6155   23.9981 C   0  0  0  0  0  0  0  0  0  0  0  0
    7.4506   10.7890   24.4565 C   0  0  0  0  0  0  0  0  0  0  0  0
   10.3470   12.5476   23.6818 C   0  0  0  0  0  0  0  0  0  0  0  0
    6.0170   10.5276   24.8052 C   0  0  0  0  0  0  0  0  0  0  0  0
   10.7146   12.4532   22.2990 N   0  0  0  0  0  0  0  0  0  0  0  0
    5.8998   10.0293   26.1448 N   0  0  0  0  0  0  0  0  0  0  0  0
    8.2426    9.5750   24.3383 O   0  0  0  0  0  0  0  0  0  0  0  0
    8.7319   11.4617   26.2195 H   0  0  0  0  0  0  0  0  0  0  0  0
    7.8919   12.8222   25.4229 H   0  0  0  0  0  0  0  0  0  0  0  0
    7.3696   12.6989   23.1880 H   0  0  0  0  0  0  0  0  0  0  0  0
    7.8041   11.2425   22.2495 H   0  0  0  0  0  0  0  0  0  0  0  0
    9.8493    9.7332   23.0261 H   0  0  0  0  0  0  0  0  0  0  0  0
   10.2596    9.8297   24.7801 H   0  0  0  0  0  0  0  0  0  0  0  0
   10.0288   13.5738   23.9053 H   0  0  0  0  0  0  0  0  0  0  0  0
   11.2081   12.2798   24.3071 H   0  0  0  0  0  0  0  0  0  0  0  0
    5.4565   11.4670   24.7157 H   0  0  0  0  0  0  0  0  0  0  0  0
    5.6143    9.7855   24.1039 H   0  0  0  0  0  0  0  0  0  0  0  0
   11.6721   12.1710   22.2232 H   0  0  0  0  0  0  0  0  0  0  0  0
   10.1338   11.7781   21.8418 H   0  0  0  0  0  0  0  0  0  0  0  0
    5.4740    9.1234   26.1313 H   0  0  0  0  0  0  0  0  0  0  0  0
    6.8085    9.9615   26.5591 H   0  0  0  0  0  0  0  0  0  0  0  0
  1  4  1  0  0  0  0
  1  5  1  0  0  0  0
  2  4  1  0  0  0  0
  2  5  1  0  0  0  0
  3  4  1  0  0  0  0
  3 10  1  0  0  0  0
  4  6  1  0  0  0  0
  5  7  1  0  0  0  0
  5 10  1  0  0  0  0
  6  8  1  0  0  0  0
  7  9  1  0  0  0  0
  1 11  1  0  0  0  0
  1 12  1  0  0  0  0
  2 13  1  0  0  0  0
  2 14  1  0  0  0  0
  3 15  1  0  0  0  0
  3 16  1  0  0  0  0
  6 17  1  0  0  0  0
  6 18  1  0  0  0  0
  7 19  1  0  0  0  0
  7 20  1  0  0  0  0
  8 21  1  0  0  0  0
  8 22  1  0  0  0  0
  9 23  1  0  0  0  0
  9 24  1  0  0  0  0
M  END
> <id>
EN300-7328756

> <smiles>
NCC1(CC2(CN)C1)CO2

> <IUPAC Name>
[4-(aminomethyl)-2-oxabicyclo[2.1.1]hexan-1-yl]methanamine

> <CAS>
2639426-50-7

> <URL>
https://www.enaminestore.com/catalog/EN300-7328756

> <ROCS_ShapeQuery>
x0812_0A_x1140_0A_x1097_0A_x0365_0A_x1097_0A_x0310_0A

> <ROCS_TanimotoCombo>
0.700 

> <ROCS_ShapeTanimoto>
0.200 

> <ROCS_ColorTanimoto>
0.500 

> <ROCS_RefTversky>
0.182 

> <ROCS_RefColorTversky>
0.600 

> <ROCS_RefTverskyCombo>
0.782 

> <ROCS_FitTversky>
1.957 

> <ROCS_FitColorTversky>
0.751 

> <ROCS_FitTverskyCombo>
2.708 

> <ROCS_ColorScore>
-8.975

> <ROCS_Overlap>
1842.062

> <ROCS_Rank>
356                 

$$$$
untitled-dbase-338175_2
  -OEChem-02092408543D

 36 38  0     0  0  0  0  0  0999 V2000
   10.8876   15.5124   22.3946 C   0  0  0  0  0  0  0  0  0  0  0  0
    8.4455    9.3865   23.7157 C   0  0  0  0  0  0  0  0  0  0  0  0
    6.7008   10.9581   24.5954 C   0  0  0  0  0  0  0  0  0  0  0  0
    8.8962   10.7291   25.7850 C   0  0  0  0  0  0  0  0  0  0  0  0
    7.9085   11.4920   22.4632 C   0  0  0  0  0  0  0  0  0  0  0  0
   10.1089   11.2624   23.6555 C   0  0  0  0  0  0  0  0  0  0  0  0
    8.3605   12.8375   24.5373 C   0  0  0  0  0  0  0  0  0  0  0  0
    7.3209   10.3587   23.3223 C   0  0  0  0  0  0  0  0  0  0  0  0
    9.5273   10.1286   24.5179 C   0  0  0  0  0  0  0  0  0  0  0  0
    7.7739   11.7080   25.4020 C   0  0  0  0  0  0  0  0  0  0  0  0
    8.9968   12.2590   23.2512 C   0  0  0  0  0  0  0  0  0  0  0  0
   10.3015   14.4150   23.2564 C   0  0  0  0  0  0  0  0  0  0  0  0
    9.5791   13.3855   22.3935 C   0  0  0  0  0  0  0  0  0  0  0  0
   10.2023   15.7744   21.2381 N   0  0  0  0  0  0  0  0  0  0  0  0
   12.2593   16.3619   22.8295 S   0  0  0  0  0  0  0  0  0  0  0  0
    8.0361    8.5623   24.3127 H   0  0  0  0  0  0  0  0  0  0  0  0
    8.8863    8.9395   22.8162 H   0  0  0  0  0  0  0  0  0  0  0  0
    5.8858   11.6423   24.3289 H   0  0  0  0  0  0  0  0  0  0  0  0
    6.2603   10.1618   25.2079 H   0  0  0  0  0  0  0  0  0  0  0  0
    8.4948    9.9286   26.4186 H   0  0  0  0  0  0  0  0  0  0  0  0
    9.6614   11.2485   26.3750 H   0  0  0  0  0  0  0  0  0  0  0  0
    8.3318   11.0734   21.5410 H   0  0  0  0  0  0  0  0  0  0  0  0
    7.1067   12.1770   22.1589 H   0  0  0  0  0  0  0  0  0  0  0  0
   10.8990   11.7814   24.2135 H   0  0  0  0  0  0  0  0  0  0  0  0
   10.5824   10.8386   22.7604 H   0  0  0  0  0  0  0  0  0  0  0  0
    7.5690   13.5535   24.2802 H   0  0  0  0  0  0  0  0  0  0  0  0
    9.1108   13.3920   25.1155 H   0  0  0  0  0  0  0  0  0  0  0  0
    6.5524    9.8241   22.7530 H   0  0  0  0  0  0  0  0  0  0  0  0
   10.3247    9.4308   24.7971 H   0  0  0  0  0  0  0  0  0  0  0  0
    7.3267   12.1310   26.3085 H   0  0  0  0  0  0  0  0  0  0  0  0
   11.1190   13.9279   23.8028 H   0  0  0  0  0  0  0  0  0  0  0  0
    9.6175   14.8372   24.0019 H   0  0  0  0  0  0  0  0  0  0  0  0
    8.7667   13.8576   21.8353 H   0  0  0  0  0  0  0  0  0  0  0  0
   10.2619   12.9489   21.6601 H   0  0  0  0  0  0  0  0  0  0  0  0
    9.3623   15.2668   20.9793 H   0  0  0  0  0  0  0  0  0  0  0  0
   10.5175   16.4921   20.5939 H   0  0  0  0  0  0  0  0  0  0  0  0
  1 12  1  0  0  0  0
  1 14  1  0  0  0  0
  1 15  2  0  0  0  0
  2  8  1  0  0  0  0
  2  9  1  0  0  0  0
  3  8  1  0  0  0  0
  3 10  1  0  0  0  0
  4  9  1  0  0  0  0
  4 10  1  0  0  0  0
  5  8  1  0  0  0  0
  5 11  1  0  0  0  0
  6  9  1  0  0  0  0
  6 11  1  0  0  0  0
  7 10  1  0  0  0  0
  7 11  1  0  0  0  0
 11 13  1  0  0  0  0
 12 13  1  0  0  0  0
  2 16  1  0  0  0  0
  2 17  1  0  0  0  0
  3 18  1  0  0  0  0
  3 19  1  0  0  0  0
  4 20  1  0  0  0  0
  4 21  1  0  0  0  0
  5 22  1  0  0  0  0
  5 23  1  0  0  0  0
  6 24  1  0  0  0  0
  6 25  1  0  0  0  0
  7 26  1  0  0  0  0
  7 27  1  0  0  0  0
  8 28  1  0  0  0  0
  9 29  1  0  0  0  0
 10 30  1  0  0  0  0
 12 31  1  0  0  0  0
 12 32  1  0  0  0  0
 13 33  1  0  0  0  0
 13 34  1  0  0  0  0
 14 35  1  0  0  0  0
 14 36  1  0  0  0  0
M  END
> <id>
EN300-1797040

> <smiles>
NC(=S)CCC1(CC2CC3CC(C2)C1)C3

> <IUPAC Name>
3-(adamantan-1-yl)propanethioamide

> <CAS>
2228259-97-8

> <URL>
https://www.enaminestore.com/catalog/EN300-1797040

> <ROCS_ShapeQuery>
x0812_0A_x1140_0A_x1097_0A_x0365_0A_x1097_0A_x0310_0A

> <ROCS_TanimotoCombo>
0.700 

> <ROCS_ShapeTanimoto>
0.218 

> <ROCS_ColorTanimoto>
0.482 

> <ROCS_RefTversky>
0.199 

> <ROCS_RefColorTversky>
0.499 

> <ROCS_RefTverskyCombo>
0.698 

> <ROCS_FitTversky>
1.761 

> <ROCS_FitColorTversky>
0.937 

> <ROCS_FitTverskyCombo>
2.697 

> <ROCS_ColorScore>
-7.355

> <ROCS_Overlap>
2015.548

> <ROCS_Rank>
357                 

$$$$
untitled-dbase-487433_9
  -OEChem-02092408543D

 29 30  0     0  0  0  0  0  0999 V2000
   10.0443   11.9000   22.4909 C   0  0  0  0  0  0  0  0  0  0  0  0
    9.1757   11.7283   25.0242 C   0  0  0  0  0  0  0  0  0  0  0  0
    7.6211   11.8226   23.6402 C   0  0  0  0  0  0  0  0  0  0  0  0
    8.9564    9.7633   23.5684 C   0  0  0  0  0  0  0  0  0  0  0  0
    7.7725   11.0252   24.9841 C   0  0  0  0  0  0  0  0  0  0  0  0
    9.0973   11.3001   23.5148 C   0  0  0  0  0  0  0  0  0  0  0  0
    9.3845   14.6482   22.8204 C   0  0  0  0  0  0  0  0  0  0  0  0
   11.8001   14.9640   23.4322 C   0  0  0  0  0  0  0  0  0  0  0  0
   11.1882   14.1364   21.1412 C   0  0  0  0  0  0  0  0  0  0  0  0
   10.8089   14.1320   22.6214 C   0  0  0  0  0  0  0  0  0  0  0  0
   10.0387   11.6126   21.3016 O   0  0  0  0  0  0  0  0  0  0  0  0
    7.9998    9.6363   24.6343 O   0  0  0  0  0  0  0  0  0  0  0  0
   10.8776   12.7870   23.1054 O   0  0  0  0  0  0  0  0  0  0  0  0
    9.1872   12.8027   25.2384 H   0  0  0  0  0  0  0  0  0  0  0  0
    9.9389   11.2315   25.6303 H   0  0  0  0  0  0  0  0  0  0  0  0
    6.9005   11.4152   22.9249 H   0  0  0  0  0  0  0  0  0  0  0  0
    7.4803   12.9062   23.7188 H   0  0  0  0  0  0  0  0  0  0  0  0
    8.5431    9.3439   22.6467 H   0  0  0  0  0  0  0  0  0  0  0  0
    9.8889    9.2632   23.8454 H   0  0  0  0  0  0  0  0  0  0  0  0
    7.0618   11.1879   25.7935 H   0  0  0  0  0  0  0  0  0  0  0  0
    8.6700   14.0536   22.2400 H   0  0  0  0  0  0  0  0  0  0  0  0
    9.0878   14.6174   23.8738 H   0  0  0  0  0  0  0  0  0  0  0  0
    9.2893   15.6802   22.4640 H   0  0  0  0  0  0  0  0  0  0  0  0
   12.8234   14.5972   23.2924 H   0  0  0  0  0  0  0  0  0  0  0  0
   11.5885   14.8872   24.5048 H   0  0  0  0  0  0  0  0  0  0  0  0
   11.7687   16.0206   23.1474 H   0  0  0  0  0  0  0  0  0  0  0  0
   12.2098   13.7662   20.9982 H   0  0  0  0  0  0  0  0  0  0  0  0
   10.5092   13.5143   20.5491 H   0  0  0  0  0  0  0  0  0  0  0  0
   11.1690   15.1549   20.7370 H   0  0  0  0  0  0  0  0  0  0  0  0
  1  6  1  0  0  0  0
  1 11  2  0  0  0  0
  1 13  1  0  0  0  0
  2  5  1  0  0  0  0
  2  6  1  0  0  0  0
  3  5  1  0  0  0  0
  3  6  1  0  0  0  0
  4  6  1  0  0  0  0
  4 12  1  0  0  0  0
  5 12  1  0  0  0  0
  7 10  1  0  0  0  0
  8 10  1  0  0  0  0
  9 10  1  0  0  0  0
 10 13  1  0  0  0  0
  2 14  1  0  0  0  0
  2 15  1  0  0  0  0
  3 16  1  0  0  0  0
  3 17  1  0  0  0  0
  4 18  1  0  0  0  0
  4 19  1  0  0  0  0
  5 20  1  0  0  0  0
  7 21  1  0  0  0  0
  7 22  1  0  0  0  0
  7 23  1  0  0  0  0
  8 24  1  0  0  0  0
  8 25  1  0  0  0  0
  8 26  1  0  0  0  0
  9 27  1  0  0  0  0
  9 28  1  0  0  0  0
  9 29  1  0  0  0  0
M  END
> <id>
EN300-27701109

> <smiles>
CC(C)(C)OC(=O)C1(CC2C1)CO2

> <MDLNUMBER>
MFCD34168360

> <IUPAC Name>
tert-butyl 2-oxabicyclo[2.1.1]hexane-4-carboxylate

> <CAS>
2648962-05-2

> <Purity>
95

> <URL>
https://www.enaminestore.com/catalog/EN300-27701109

> <ROCS_ShapeQuery>
x0812_0A_x1140_0A_x1097_0A_x0365_0A_x1097_0A_x0310_0A

> <ROCS_TanimotoCombo>
0.700 

> <ROCS_ShapeTanimoto>
0.212 

> <ROCS_ColorTanimoto>
0.489 

> <ROCS_RefTversky>
0.193 

> <ROCS_RefColorTversky>
0.550 

> <ROCS_RefTverskyCombo>
0.743 

> <ROCS_FitTversky>
1.815 

> <ROCS_FitColorTversky>
0.814 

> <ROCS_FitTverskyCombo>
2.629 

> <ROCS_ColorScore>
-8.182

> <ROCS_Overlap>
1953.316

> <ROCS_Rank>
358                 

$$$$
untitled-dbase-551905_0
  -OEChem-02092408543D

 19 20  0     1  0  0  0  0  0999 V2000
    7.8441   10.8348   25.6244 C   0  0  0  0  0  0  0  0  0  0  0  0
    7.4765   10.7827   23.3177 C   0  0  0  0  0  0  0  0  0  0  0  0
    8.1762    9.9714   24.4153 C   0  0  1  0  0  0  0  0  0  0  0  0
    8.1952   12.0746   23.7001 C   0  0  2  0  0  0  0  0  0  0  0  0
    9.6674   10.2086   24.0985 C   0  0  2  0  0  0  0  0  0  0  0  0
    9.6733   11.6623   23.5552 C   0  0  1  0  0  0  0  0  0  0  0  0
    7.8808   12.1427   25.1124 N   0  0  0  0  0  0  0  0  0  0  0  0
    7.6491   10.4621   26.7666 O   0  0  0  0  0  0  0  0  0  0  0  0
   10.1158    9.2610   23.1464 O   0  0  0  0  0  0  0  0  0  0  0  0
   10.0575   11.7377   22.1923 O   0  0  0  0  0  0  0  0  0  0  0  0
    7.7000   10.4312   22.3053 H   0  0  0  0  0  0  0  0  0  0  0  0
    6.3904   10.8454   23.4524 H   0  0  0  0  0  0  0  0  0  0  0  0
    7.8488    8.9351   24.4972 H   0  0  0  0  0  0  0  0  0  0  0  0
    7.8831   12.9636   23.1498 H   0  0  0  0  0  0  0  0  0  0  0  0
   10.2795   10.1212   25.0035 H   0  0  0  0  0  0  0  0  0  0  0  0
   10.3276   12.3172   24.1413 H   0  0  0  0  0  0  0  0  0  0  0  0
    7.7149   12.9921   25.6427 H   0  0  0  0  0  0  0  0  0  0  0  0
    9.9879    8.3803   23.5383 H   0  0  0  0  0  0  0  0  0  0  0  0
    9.9300   12.6596   21.9126 H   0  0  0  0  0  0  0  0  0  0  0  0
  1  3  1  0  0  0  0
  1  7  1  0  0  0  0
  1  8  2  0  0  0  0
  2  3  1  1  0  0  0
  2  4  1  1  0  0  0
  3  5  1  0  0  0  0
  4  6  1  0  0  0  0
  4  7  1  0  0  0  0
  5  6  1  0  0  0  0
  5  9  1  1  0  0  0
  6 10  1  1  0  0  0
  2 11  1  0  0  0  0
  2 12  1  0  0  0  0
  3 13  1  0  0  0  0
  4 14  1  0  0  0  0
  5 15  1  0  0  0  0
  6 16  1  0  0  0  0
  7 17  1  0  0  0  0
  9 18  1  0  0  0  0
 10 19  1  0  0  0  0
M  END
> <id>
EN300-6525540

> <smiles>
O[C@@H]1[C@H](O)[C@@H]2C[C@H]1NC2=O |&1:1,2,4,6,r|

> <IUPAC Name>
rac-(1R,4S,5R,6S)-5,6-dihydroxy-2-azabicyclo[2.2.1]heptan-3-one

> <CAS>
77745-22-3

> <Purity>
95

> <URL>
https://www.enaminestore.com/catalog/EN300-6525540

> <ROCS_ShapeQuery>
x0812_0A_x1140_0A_x1097_0A_x0365_0A_x1097_0A_x0310_0A

> <ROCS_TanimotoCombo>
0.700 

> <ROCS_ShapeTanimoto>
0.204 

> <ROCS_ColorTanimoto>
0.496 

> <ROCS_RefTversky>
0.186 

> <ROCS_RefColorTversky>
0.609 

> <ROCS_RefTverskyCombo>
0.794 

> <ROCS_FitTversky>
1.952 

> <ROCS_FitColorTversky>
0.728 

> <ROCS_FitTverskyCombo>
2.680 

> <ROCS_ColorScore>
-9.129

> <ROCS_Overlap>
1877.257

> <ROCS_Rank>
359                 

$$$$
untitled-dbase-371077_7
  -OEChem-02092408543D

 24 25  0     0  0  0  0  0  0999 V2000
    8.9712   11.8317   25.0807 C   0  0  0  0  0  0  0  0  0  0  0  0
    7.6924   11.7358   23.4242 C   0  0  0  0  0  0  0  0  0  0  0  0
    9.1456    9.7773   23.7402 C   0  0  0  0  0  0  0  0  0  0  0  0
    9.1978   11.3154   23.6110 C   0  0  0  0  0  0  0  0  0  0  0  0
    7.6373   11.0249   24.8325 C   0  0  0  0  0  0  0  0  0  0  0  0
   10.9960   12.1259   20.5183 C   0  0  0  0  0  0  0  0  0  0  0  0
   10.2779   11.8873   22.7432 C   0  0  0  0  0  0  0  0  0  0  0  0
    6.4528   11.1813   25.7369 C   0  0  0  0  0  0  0  0  0  0  0  0
    8.0170    9.6372   24.6197 O   0  0  0  0  0  0  0  0  0  0  0  0
    9.9946   11.6003   21.3769 O   0  0  0  0  0  0  0  0  0  0  0  0
    6.1475   13.2287   26.2758 I   0  0  0  0  0  0  0  0  0  0  0  0
    9.6422   11.4259   25.8434 H   0  0  0  0  0  0  0  0  0  0  0  0
    8.8791   12.9149   25.2175 H   0  0  0  0  0  0  0  0  0  0  0  0
    7.4761   12.8096   23.4000 H   0  0  0  0  0  0  0  0  0  0  0  0
    7.1500   11.2386   22.6148 H   0  0  0  0  0  0  0  0  0  0  0  0
    8.9377    9.2797   22.7886 H   0  0  0  0  0  0  0  0  0  0  0  0
   10.0391    9.3619   24.2149 H   0  0  0  0  0  0  0  0  0  0  0  0
   10.7487   11.8886   19.4807 H   0  0  0  0  0  0  0  0  0  0  0  0
   11.9654   11.6946   20.7808 H   0  0  0  0  0  0  0  0  0  0  0  0
   11.0366   13.2107   20.6419 H   0  0  0  0  0  0  0  0  0  0  0  0
   11.2578   11.4531   22.9881 H   0  0  0  0  0  0  0  0  0  0  0  0
   10.3449   12.9788   22.8569 H   0  0  0  0  0  0  0  0  0  0  0  0
    6.5859   10.5855   26.6546 H   0  0  0  0  0  0  0  0  0  0  0  0
    5.5409   10.7991   25.2496 H   0  0  0  0  0  0  0  0  0  0  0  0
  1  4  1  0  0  0  0
  1  5  1  0  0  0  0
  2  4  1  0  0  0  0
  2  5  1  0  0  0  0
  3  4  1  0  0  0  0
  3  9  1  0  0  0  0
  4  7  1  0  0  0  0
  5  8  1  0  0  0  0
  5  9  1  0  0  0  0
  6 10  1  0  0  0  0
  7 10  1  0  0  0  0
  8 11  1  0  0  0  0
  1 12  1  0  0  0  0
  1 13  1  0  0  0  0
  2 14  1  0  0  0  0
  2 15  1  0  0  0  0
  3 16  1  0  0  0  0
  3 17  1  0  0  0  0
  6 18  1  0  0  0  0
  6 19  1  0  0  0  0
  6 20  1  0  0  0  0
  7 21  1  0  0  0  0
  7 22  1  0  0  0  0
  8 23  1  0  0  0  0
  8 24  1  0  0  0  0
M  END
> <id>
EN300-6736662

> <smiles>
COCC1(CC2(CI)C1)CO2

> <MDLNUMBER>
MFCD32691899

> <IUPAC Name>
1-(iodomethyl)-4-(methoxymethyl)-2-oxabicyclo[2.1.1]hexane

> <CAS>
2414430-70-7

> <Purity>
95

> <URL>
https://www.enaminestore.com/catalog/EN300-6736662

> <ROCS_ShapeQuery>
x0812_0A_x1140_0A_x1097_0A_x0365_0A_x1097_0A_x0310_0A

> <ROCS_TanimotoCombo>
0.700 

> <ROCS_ShapeTanimoto>
0.206 

> <ROCS_ColorTanimoto>
0.494 

> <ROCS_RefTversky>
0.187 

> <ROCS_RefColorTversky>
0.554 

> <ROCS_RefTverskyCombo>
0.741 

> <ROCS_FitTversky>
1.955 

> <ROCS_FitColorTversky>
0.820 

> <ROCS_FitTverskyCombo>
2.775 

> <ROCS_ColorScore>
-8.241

> <ROCS_Overlap>
1890.283

> <ROCS_Rank>
360                 

$$$$
untitled-dbase-559502_7
  -OEChem-02092408543D

 24 25  0     0  0  0  0  0  0999 V2000
    8.9716   11.8316   25.0805 C   0  0  0  0  0  0  0  0  0  0  0  0
    7.6923   11.7359   23.4244 C   0  0  0  0  0  0  0  0  0  0  0  0
    9.1452    9.7771   23.7400 C   0  0  0  0  0  0  0  0  0  0  0  0
    9.1977   11.3152   23.6108 C   0  0  0  0  0  0  0  0  0  0  0  0
    7.6375   11.0250   24.8327 C   0  0  0  0  0  0  0  0  0  0  0  0
   10.9962   12.1258   20.5183 C   0  0  0  0  0  0  0  0  0  0  0  0
   10.2780   11.8870   22.7432 C   0  0  0  0  0  0  0  0  0  0  0  0
    6.4536   11.1817   25.7378 C   0  0  0  0  0  0  0  0  0  0  0  0
    8.0168    9.6373   24.6198 O   0  0  0  0  0  0  0  0  0  0  0  0
    9.9946   11.6003   21.3768 O   0  0  0  0  0  0  0  0  0  0  0  0
    6.1493   13.2292   26.2770 I   0  0  0  0  0  0  0  0  0  0  0  0
    9.6428   11.4258   25.8430 H   0  0  0  0  0  0  0  0  0  0  0  0
    8.8796   12.9148   25.2173 H   0  0  0  0  0  0  0  0  0  0  0  0
    7.4760   12.8097   23.4002 H   0  0  0  0  0  0  0  0  0  0  0  0
    7.1496   11.2387   22.6152 H   0  0  0  0  0  0  0  0  0  0  0  0
    8.9370    9.2796   22.7885 H   0  0  0  0  0  0  0  0  0  0  0  0
   10.0388    9.3616   24.2145 H   0  0  0  0  0  0  0  0  0  0  0  0
   10.7488   11.8888   19.4807 H   0  0  0  0  0  0  0  0  0  0  0  0
   11.9654   11.6941   20.7807 H   0  0  0  0  0  0  0  0  0  0  0  0
   11.0372   13.2105   20.6421 H   0  0  0  0  0  0  0  0  0  0  0  0
   11.2577   11.4524   22.9879 H   0  0  0  0  0  0  0  0  0  0  0  0
   10.3453   12.9784   22.8571 H   0  0  0  0  0  0  0  0  0  0  0  0
    6.5871   10.5858   26.6555 H   0  0  0  0  0  0  0  0  0  0  0  0
    5.5414   10.7999   25.2510 H   0  0  0  0  0  0  0  0  0  0  0  0
  1  4  1  0  0  0  0
  1  5  1  0  0  0  0
  2  4  1  0  0  0  0
  2  5  1  0  0  0  0
  3  4  1  0  0  0  0
  3  9  1  0  0  0  0
  4  7  1  1  0  0  0
  5  8  1  1  0  0  0
  5  9  1  0  0  0  0
  6 10  1  0  0  0  0
  7 10  1  0  0  0  0
  8 11  1  0  0  0  0
  1 12  1  0  0  0  0
  1 13  1  0  0  0  0
  2 14  1  0  0  0  0
  2 15  1  0  0  0  0
  3 16  1  0  0  0  0
  3 17  1  0  0  0  0
  6 18  1  0  0  0  0
  6 19  1  0  0  0  0
  6 20  1  0  0  0  0
  7 21  1  0  0  0  0
  7 22  1  0  0  0  0
  8 23  1  0  0  0  0
  8 24  1  0  0  0  0
M  END
> <id>
EN300-37375303

> <smiles>
COC[C@]1(C[C@@]2(CI)C1)CO2

> <IUPAC Name>
1-(iodomethyl)-4-(methoxymethyl)-2-oxabicyclo[2.1.1]hexane

> <CAS>
2414430-70-7

> <URL>
https://www.enaminestore.com/catalog/EN300-37375303

> <ROCS_ShapeQuery>
x0812_0A_x1140_0A_x1097_0A_x0365_0A_x1097_0A_x0310_0A

> <ROCS_TanimotoCombo>
0.700 

> <ROCS_ShapeTanimoto>
0.206 

> <ROCS_ColorTanimoto>
0.494 

> <ROCS_RefTversky>
0.187 

> <ROCS_RefColorTversky>
0.554 

> <ROCS_RefTverskyCombo>
0.741 

> <ROCS_FitTversky>
1.955 

> <ROCS_FitColorTversky>
0.820 

> <ROCS_FitTverskyCombo>
2.775 

> <ROCS_ColorScore>
-8.241

> <ROCS_Overlap>
1890.276

> <ROCS_Rank>
361                 

$$$$
untitled-dbase-493405_4
  -OEChem-02092408543D

 21 22  0     0  0  0  0  0  0999 V2000
    9.5948   11.4777   22.1262 C   0  0  0  0  0  0  0  0  0  0  0  0
    9.4942   11.5680   24.7126 C   0  0  0  0  0  0  0  0  0  0  0  0
    7.6498   11.8928   23.7850 C   0  0  0  0  0  0  0  0  0  0  0  0
    8.5601    9.6224   23.5341 C   0  0  0  0  0  0  0  0  0  0  0  0
    8.9232   11.1030   23.3307 C   0  0  0  0  0  0  0  0  0  0  0  0
    8.0307   11.1260   25.1134 C   0  0  0  0  0  0  0  0  0  0  0  0
    7.4338   11.5068   26.4338 C   0  0  0  0  0  0  0  0  0  0  0  0
   10.1402   11.7819   21.1483 N   0  0  0  0  0  0  0  0  0  0  0  0
    5.1687   11.7986   27.7169 O   0  0  0  0  0  0  0  0  0  0  0  0
    5.2758   10.1758   25.7754 O   0  0  0  0  0  0  0  0  0  0  0  0
    7.9256    9.7031   24.8239 O   0  0  0  0  0  0  0  0  0  0  0  0
    5.1913   12.5664   25.4244 F   0  0  0  0  0  0  0  0  0  0  0  0
    5.6676   11.4177   26.4109 S   0  0  0  0  0  0  0  0  0  0  0  0
   10.3043   10.9638   25.1320 H   0  0  0  0  0  0  0  0  0  0  0  0
    9.7386   12.6303   24.8267 H   0  0  0  0  0  0  0  0  0  0  0  0
    7.7152   12.9867   23.8069 H   0  0  0  0  0  0  0  0  0  0  0  0
    6.7035   11.5966   23.3221 H   0  0  0  0  0  0  0  0  0  0  0  0
    7.8443    9.2500   22.7952 H   0  0  0  0  0  0  0  0  0  0  0  0
    9.4365    8.9705   23.5965 H   0  0  0  0  0  0  0  0  0  0  0  0
    7.6916   12.5376   26.7132 H   0  0  0  0  0  0  0  0  0  0  0  0
    7.7706   10.8394   27.2387 H   0  0  0  0  0  0  0  0  0  0  0  0
  1  5  1  0  0  0  0
  1  8  3  0  0  0  0
  2  5  1  0  0  0  0
  2  6  1  0  0  0  0
  3  5  1  0  0  0  0
  3  6  1  0  0  0  0
  4  5  1  0  0  0  0
  4 11  1  0  0  0  0
  6  7  1  0  0  0  0
  6 11  1  0  0  0  0
  7 13  1  0  0  0  0
  9 13  2  0  0  0  0
 10 13  2  0  0  0  0
 12 13  1  0  0  0  0
  2 14  1  0  0  0  0
  2 15  1  0  0  0  0
  3 16  1  0  0  0  0
  3 17  1  0  0  0  0
  4 18  1  0  0  0  0
  4 19  1  0  0  0  0
  7 20  1  0  0  0  0
  7 21  1  0  0  0  0
M  END
> <id>
EN300-7470052

> <smiles>
FS(=O)(=O)CC1(CC2(C1)C#N)OC2

> <IUPAC Name>
{4-cyano-2-oxabicyclo[2.1.1]hexan-1-yl}methanesulfonyl fluoride

> <CAS>
2648948-03-0

> <URL>
https://www.enaminestore.com/catalog/EN300-7470052

> <ROCS_ShapeQuery>
x0812_0A_x1140_0A_x1097_0A_x0365_0A_x1097_0A_x0310_0A

> <ROCS_TanimotoCombo>
0.700 

> <ROCS_ShapeTanimoto>
0.211 

> <ROCS_ColorTanimoto>
0.489 

> <ROCS_RefTversky>
0.193 

> <ROCS_RefColorTversky>
0.530 

> <ROCS_RefTverskyCombo>
0.723 

> <ROCS_FitTversky>
1.835 

> <ROCS_FitColorTversky>
0.864 

> <ROCS_FitTverskyCombo>
2.699 

> <ROCS_ColorScore>
-7.855

> <ROCS_Overlap>
1946.379

> <ROCS_Rank>
362                 

$$$$
untitled-dbase-354488_1
  -OEChem-02092408543D

 50 53  0     0  0  0  0  0  0999 V2000
   11.5271   16.0437   22.0042 C   0  0  0  0  0  0  0  0  0  0  0  0
   10.1656   13.1111   21.4860 C   0  0  0  0  0  0  0  0  0  0  0  0
   13.1144   12.6775   18.3788 C   0  0  0  0  0  0  0  0  0  0  0  0
   11.8358   12.7097   17.5370 C   0  0  0  0  0  0  0  0  0  0  0  0
   12.7083   13.1277   19.7797 C   0  0  0  0  0  0  0  0  0  0  0  0
   10.7258   13.1791   18.4739 C   0  0  0  0  0  0  0  0  0  0  0  0
    8.6853   10.6074   25.9188 C   0  0  0  0  0  0  0  0  0  0  0  0
    8.5755    9.3303   23.7637 C   0  0  0  0  0  0  0  0  0  0  0  0
    6.5927   10.6557   24.5380 C   0  0  0  0  0  0  0  0  0  0  0  0
   10.0146   11.3770   23.9362 C   0  0  0  0  0  0  0  0  0  0  0  0
    8.0274   12.7054   24.7124 C   0  0  0  0  0  0  0  0  0  0  0  0
    7.9171   11.4255   22.5525 C   0  0  0  0  0  0  0  0  0  0  0  0
    9.4906   10.1442   24.6935 C   0  0  0  0  0  0  0  0  0  0  0  0
    7.4980   11.4763   25.4717 C   0  0  0  0  0  0  0  0  0  0  0  0
    7.3876   10.1927   23.3058 C   0  0  0  0  0  0  0  0  0  0  0  0
   11.4675   13.9788   19.5381 C   0  0  0  0  0  0  0  0  0  0  0  0
    8.8372   12.2656   23.4697 C   0  0  0  0  0  0  0  0  0  0  0  0
   10.4636   15.5726   21.1189 C   0  0  0  0  0  0  0  0  0  0  0  0
    9.3622   13.4909   22.7169 C   0  0  0  0  0  0  0  0  0  0  0  0
   12.3700   16.4211   22.7067 N   0  0  0  0  0  0  0  0  0  0  0  0
   10.6800   14.1778   20.7415 N   0  0  0  0  0  0  0  0  0  0  0  0
   10.3371   11.9270   21.1843 O   0  0  0  0  0  0  0  0  0  0  0  0
   13.5660   11.6805   18.3964 H   0  0  0  0  0  0  0  0  0  0  0  0
   13.8545   13.3669   17.9561 H   0  0  0  0  0  0  0  0  0  0  0  0
   11.9563   13.4136   16.7055 H   0  0  0  0  0  0  0  0  0  0  0  0
   11.6065   11.7296   17.1068 H   0  0  0  0  0  0  0  0  0  0  0  0
   12.4682   12.2487   20.3914 H   0  0  0  0  0  0  0  0  0  0  0  0
   13.5079   13.6819   20.2807 H   0  0  0  0  0  0  0  0  0  0  0  0
    9.9699   13.7726   17.9506 H   0  0  0  0  0  0  0  0  0  0  0  0
   10.2280   12.3060   18.9145 H   0  0  0  0  0  0  0  0  0  0  0  0
    8.3222    9.7370   26.4790 H   0  0  0  0  0  0  0  0  0  0  0  0
    9.3312   11.1766   26.5987 H   0  0  0  0  0  0  0  0  0  0  0  0
    9.1425    8.9803   22.8923 H   0  0  0  0  0  0  0  0  0  0  0  0
    8.2105    8.4372   24.2856 H   0  0  0  0  0  0  0  0  0  0  0  0
    6.1926    9.7861   25.0739 H   0  0  0  0  0  0  0  0  0  0  0  0
    5.7325   11.2595   24.2239 H   0  0  0  0  0  0  0  0  0  0  0  0
   10.6880   11.9500   24.5867 H   0  0  0  0  0  0  0  0  0  0  0  0
   10.6107   11.0532   23.0733 H   0  0  0  0  0  0  0  0  0  0  0  0
    7.1860   13.3426   24.4110 H   0  0  0  0  0  0  0  0  0  0  0  0
    8.6555   13.3087   25.3806 H   0  0  0  0  0  0  0  0  0  0  0  0
    8.4654   11.1029   21.6578 H   0  0  0  0  0  0  0  0  0  0  0  0
    7.0732   12.0335   22.2022 H   0  0  0  0  0  0  0  0  0  0  0  0
   10.3338    9.5242   25.0181 H   0  0  0  0  0  0  0  0  0  0  0  0
    6.9268   11.8015   26.3484 H   0  0  0  0  0  0  0  0  0  0  0  0
    6.7383    9.6070   22.6455 H   0  0  0  0  0  0  0  0  0  0  0  0
   11.7448   14.9636   19.1511 H   0  0  0  0  0  0  0  0  0  0  0  0
    9.4872   15.6354   21.6076 H   0  0  0  0  0  0  0  0  0  0  0  0
   10.4270   16.1623   20.1984 H   0  0  0  0  0  0  0  0  0  0  0  0
    9.9957   14.0635   23.3975 H   0  0  0  0  0  0  0  0  0  0  0  0
    8.5062   14.0977   22.4145 H   0  0  0  0  0  0  0  0  0  0  0  0
  1 18  1  0  0  0  0
  1 20  3  0  0  0  0
  2 19  1  0  0  0  0
  2 21  1  0  0  0  0
  2 22  2  0  0  0  0
  3  4  1  0  0  0  0
  3  5  1  0  0  0  0
  4  6  1  0  0  0  0
  5 16  1  0  0  0  0
  6 16  1  0  0  0  0
  7 13  1  0  0  0  0
  7 14  1  0  0  0  0
  8 13  1  0  0  0  0
  8 15  1  0  0  0  0
  9 14  1  0  0  0  0
  9 15  1  0  0  0  0
 10 13  1  0  0  0  0
 10 17  1  0  0  0  0
 11 14  1  0  0  0  0
 11 17  1  0  0  0  0
 12 15  1  0  0  0  0
 12 17  1  0  0  0  0
 16 21  1  0  0  0  0
 17 19  1  0  0  0  0
 18 21  1  0  0  0  0
  3 23  1  0  0  0  0
  3 24  1  0  0  0  0
  4 25  1  0  0  0  0
  4 26  1  0  0  0  0
  5 27  1  0  0  0  0
  5 28  1  0  0  0  0
  6 29  1  0  0  0  0
  6 30  1  0  0  0  0
  7 31  1  0  0  0  0
  7 32  1  0  0  0  0
  8 33  1  0  0  0  0
  8 34  1  0  0  0  0
  9 35  1  0  0  0  0
  9 36  1  0  0  0  0
 10 37  1  0  0  0  0
 10 38  1  0  0  0  0
 11 39  1  0  0  0  0
 11 40  1  0  0  0  0
 12 41  1  0  0  0  0
 12 42  1  0  0  0  0
 13 43  1  0  0  0  0
 14 44  1  0  0  0  0
 15 45  1  0  0  0  0
 16 46  1  0  0  0  0
 18 47  1  0  0  0  0
 18 48  1  0  0  0  0
 19 49  1  0  0  0  0
 19 50  1  0  0  0  0
M  END
> <id>
EN300-6536351

> <smiles>
O=C(CC1(CC2CC3CC(C2)C1)C3)N(CC#N)C4CCCC4

> <IUPAC Name>
2-(adamantan-1-yl)-N-(cyanomethyl)-N-cyclopentylacetamide

> <CAS>
1808664-62-1

> <URL>
https://www.enaminestore.com/catalog/EN300-6536351

> <ROCS_ShapeQuery>
x0812_0A_x1140_0A_x1097_0A_x0365_0A_x1097_0A_x0310_0A

> <ROCS_TanimotoCombo>
0.700 

> <ROCS_ShapeTanimoto>
0.229 

> <ROCS_ColorTanimoto>
0.471 

> <ROCS_RefTversky>
0.213 

> <ROCS_RefColorTversky>
0.530 

> <ROCS_RefTverskyCombo>
0.744 

> <ROCS_FitTversky>
1.478 

> <ROCS_FitColorTversky>
0.808 

> <ROCS_FitTverskyCombo>
2.286 

> <ROCS_ColorScore>
-7.876

> <ROCS_Overlap>
2162.551

> <ROCS_Rank>
363                 

$$$$
untitled-dbase-551118_2
  -OEChem-02092408543D

 38 40  0     0  0  0  0  0  0999 V2000
   10.8849   14.9073   22.6163 C   0  0  0  0  0  0  0  0  0  0  0  0
   10.8030   13.5703   22.5961 C   0  0  0  0  0  0  0  0  0  0  0  0
   12.0852   15.5870   23.1759 C   0  0  0  0  0  0  0  0  0  0  0  0
    6.6640   11.1256   24.7422 C   0  0  0  0  0  0  0  0  0  0  0  0
    8.8969   10.8430   25.8477 C   0  0  0  0  0  0  0  0  0  0  0  0
    8.1756    9.2474   24.0529 C   0  0  0  0  0  0  0  0  0  0  0  0
    8.5019   12.7725   24.2951 C   0  0  0  0  0  0  0  0  0  0  0  0
    7.7789   11.1733   22.4962 C   0  0  0  0  0  0  0  0  0  0  0  0
   10.0168   10.8899   23.6040 C   0  0  0  0  0  0  0  0  0  0  0  0
    7.8593   11.8686   25.3617 C   0  0  0  0  0  0  0  0  0  0  0  0
    7.1344   10.2650   23.5579 C   0  0  0  0  0  0  0  0  0  0  0  0
    9.3785    9.9809   24.6690 C   0  0  0  0  0  0  0  0  0  0  0  0
    8.9897   11.9284   23.0938 C   0  0  0  0  0  0  0  0  0  0  0  0
   12.8152   14.8652   24.2774 C   0  0  0  0  0  0  0  0  0  0  0  0
    9.6282   12.8309   22.0347 C   0  0  0  0  0  0  0  0  0  0  0  0
   12.4846   16.6679   22.7494 O   0  0  0  0  0  0  0  0  0  0  0  0
   10.0845   15.5285   22.2297 H   0  0  0  0  0  0  0  0  0  0  0  0
   11.6170   12.9622   22.9829 H   0  0  0  0  0  0  0  0  0  0  0  0
    6.1845   10.4918   25.4983 H   0  0  0  0  0  0  0  0  0  0  0  0
    5.9086   11.8460   24.4052 H   0  0  0  0  0  0  0  0  0  0  0  0
    9.7486   11.3602   26.3064 H   0  0  0  0  0  0  0  0  0  0  0  0
    8.4570   10.2043   26.6235 H   0  0  0  0  0  0  0  0  0  0  0  0
    7.7227    8.5804   24.7968 H   0  0  0  0  0  0  0  0  0  0  0  0
    8.5083    8.6159   23.2199 H   0  0  0  0  0  0  0  0  0  0  0  0
    7.7736   13.5227   23.9609 H   0  0  0  0  0  0  0  0  0  0  0  0
    9.3416   13.3242   24.7372 H   0  0  0  0  0  0  0  0  0  0  0  0
    8.0955   10.5681   21.6369 H   0  0  0  0  0  0  0  0  0  0  0  0
    7.0341   11.8871   22.1210 H   0  0  0  0  0  0  0  0  0  0  0  0
   10.8912   11.3987   24.0302 H   0  0  0  0  0  0  0  0  0  0  0  0
   10.3840   10.2782   22.7700 H   0  0  0  0  0  0  0  0  0  0  0  0
    7.5184   12.4783   26.2059 H   0  0  0  0  0  0  0  0  0  0  0  0
    6.2793    9.7366   23.1220 H   0  0  0  0  0  0  0  0  0  0  0  0
   10.1157    9.2511   25.0216 H   0  0  0  0  0  0  0  0  0  0  0  0
   13.5833   14.2222   23.8379 H   0  0  0  0  0  0  0  0  0  0  0  0
   13.3143   15.5712   24.9470 H   0  0  0  0  0  0  0  0  0  0  0  0
   12.1057   14.2594   24.8464 H   0  0  0  0  0  0  0  0  0  0  0  0
    8.8669   13.5165   21.6539 H   0  0  0  0  0  0  0  0  0  0  0  0
    9.9603   12.2133   21.1969 H   0  0  0  0  0  0  0  0  0  0  0  0
  1  2  2  0  0  0  0
  1  3  1  4  0  0  0
  2 15  1  0  0  0  0
  3 14  1  0  0  0  0
  3 16  2  0  0  0  0
  4 10  1  0  0  0  0
  4 11  1  0  0  0  0
  5 10  1  0  0  0  0
  5 12  1  0  0  0  0
  6 11  1  0  0  0  0
  6 12  1  0  0  0  0
  7 10  1  0  0  0  0
  7 13  1  0  0  0  0
  8 11  1  0  0  0  0
  8 13  1  0  0  0  0
  9 12  1  0  0  0  0
  9 13  1  0  0  0  0
 13 15  1  0  0  0  0
  1 17  1  0  0  0  0
  2 18  1  0  0  0  0
  4 19  1  0  0  0  0
  4 20  1  0  0  0  0
  5 21  1  0  0  0  0
  5 22  1  0  0  0  0
  6 23  1  0  0  0  0
  6 24  1  0  0  0  0
  7 25  1  0  0  0  0
  7 26  1  0  0  0  0
  8 27  1  0  0  0  0
  8 28  1  0  0  0  0
  9 29  1  0  0  0  0
  9 30  1  0  0  0  0
 10 31  1  0  0  0  0
 11 32  1  0  0  0  0
 12 33  1  0  0  0  0
 14 34  1  0  0  0  0
 14 35  1  0  0  0  0
 14 36  1  0  0  0  0
 15 37  1  0  0  0  0
 15 38  1  0  0  0  0
M  END
> <id>
EN300-1797481

> <smiles>
CC(=O)C=CCC1(CC2CC3CC(C2)C1)C3

> <IUPAC Name>
5-(adamantan-1-yl)pent-3-en-2-one

> <CAS>
2229688-61-1

> <URL>
https://www.enaminestore.com/catalog/EN300-1797481

> <ROCS_ShapeQuery>
x0812_0A_x1140_0A_x1097_0A_x0365_0A_x1097_0A_x0310_0A

> <ROCS_TanimotoCombo>
0.700 

> <ROCS_ShapeTanimoto>
0.229 

> <ROCS_ColorTanimoto>
0.471 

> <ROCS_RefTversky>
0.208 

> <ROCS_RefColorTversky>
0.491 

> <ROCS_RefTverskyCombo>
0.699 

> <ROCS_FitTversky>
1.762 

> <ROCS_FitColorTversky>
0.922 

> <ROCS_FitTverskyCombo>
2.684 

> <ROCS_ColorScore>
-7.239

> <ROCS_Overlap>
2106.890

> <ROCS_Rank>
364                 

$$$$
untitled-dbase-321590_0
  -OEChem-02092408543D

 26 27  0     1  0  0  0  0  0999 V2000
    9.4709   11.5231   24.9675 C   0  0  0  0  0  0  0  0  0  0  0  0
    7.2123   12.1189   24.4849 C   0  0  0  0  0  0  0  0  0  0  0  0
    8.6325   12.2293   23.8993 C   0  0  2  0  0  0  0  0  0  0  0  0
    8.6553   10.2257   24.8807 C   0  0  1  0  0  0  0  0  0  0  0  0
    7.2420   10.7586   25.2128 C   0  0  2  0  0  0  0  0  0  0  0  0
    8.7520   11.2598   22.7041 C   0  0  2  0  0  0  0  0  0  0  0  0
    8.8027    9.8766   23.3854 C   0  0  1  0  0  0  0  0  0  0  0  0
    6.0849    9.8453   24.8415 C   0  0  0  0  0  0  0  0  0  0  0  0
    6.1887    8.6115   25.5500 N   0  0  0  0  0  0  0  0  0  0  0  0
    9.9309   11.5495   21.9706 O   0  0  0  0  0  0  0  0  0  0  0  0
   10.0460    9.2189   23.1813 O   0  0  0  0  0  0  0  0  0  0  0  0
   10.5218   11.4001   24.6862 H   0  0  0  0  0  0  0  0  0  0  0  0
    9.4136   12.0057   25.9492 H   0  0  0  0  0  0  0  0  0  0  0  0
    7.0346   12.9227   25.2088 H   0  0  0  0  0  0  0  0  0  0  0  0
    6.4390   12.1833   23.7125 H   0  0  0  0  0  0  0  0  0  0  0  0
    8.9482   13.2514   23.6788 H   0  0  0  0  0  0  0  0  0  0  0  0
    9.0052    9.4420   25.5573 H   0  0  0  0  0  0  0  0  0  0  0  0
    7.1877   10.9426   26.2947 H   0  0  0  0  0  0  0  0  0  0  0  0
    7.8914   11.3539   22.0331 H   0  0  0  0  0  0  0  0  0  0  0  0
    8.0098    9.2121   23.0330 H   0  0  0  0  0  0  0  0  0  0  0  0
    5.1604   10.3591   25.1085 H   0  0  0  0  0  0  0  0  0  0  0  0
    6.1350    9.6702   23.7660 H   0  0  0  0  0  0  0  0  0  0  0  0
    6.2396    7.8460   24.9030 H   0  0  0  0  0  0  0  0  0  0  0  0
    7.0148    8.6106   26.1199 H   0  0  0  0  0  0  0  0  0  0  0  0
    9.8531   12.4672   21.6607 H   0  0  0  0  0  0  0  0  0  0  0  0
   10.0304    8.4152   23.7258 H   0  0  0  0  0  0  0  0  0  0  0  0
  1  3  1  6  0  0  0
  1  4  1  6  0  0  0
  2  3  1  0  0  0  0
  2  5  1  0  0  0  0
  3  6  1  0  0  0  0
  4  5  1  0  0  0  0
  4  7  1  0  0  0  0
  5  8  1  1  0  0  0
  6  7  1  0  0  0  0
  6 10  1  6  0  0  0
  7 11  1  6  0  0  0
  8  9  1  0  0  0  0
  1 12  1  0  0  0  0
  1 13  1  0  0  0  0
  2 14  1  0  0  0  0
  2 15  1  0  0  0  0
  3 16  1  0  0  0  0
  4 17  1  0  0  0  0
  5 18  1  0  0  0  0
  6 19  1  0  0  0  0
  7 20  1  0  0  0  0
  8 21  1  0  0  0  0
  8 22  1  0  0  0  0
  9 23  1  0  0  0  0
  9 24  1  0  0  0  0
 10 25  1  0  0  0  0
 11 26  1  0  0  0  0
M  END
> <id>
EN300-7434620

> <smiles>
Cl.NC[C@@H]1C[C@H]2C[C@@H]1[C@H](O)[C@@H]2O |&1:3,5,7,8,10,r|

> <IUPAC Name>
rac-(1R,2S,3R,4R,5S)-5-(aminomethyl)bicyclo[2.2.1]heptane-2,3-diol hydrochloride

> <CAS>
2375249-34-4

> <Purity>
95

> <URL>
https://www.enaminestore.com/catalog/EN300-7434620

> <Saltdate>
Cl

> <ROCS_ShapeQuery>
x0812_0A_x1140_0A_x1097_0A_x0365_0A_x1097_0A_x0310_0A

> <ROCS_TanimotoCombo>
0.700 

> <ROCS_ShapeTanimoto>
0.203 

> <ROCS_ColorTanimoto>
0.497 

> <ROCS_RefTversky>
0.185 

> <ROCS_RefColorTversky>
0.607 

> <ROCS_RefTverskyCombo>
0.793 

> <ROCS_FitTversky>
1.900 

> <ROCS_FitColorTversky>
0.732 

> <ROCS_FitTverskyCombo>
2.632 

> <ROCS_ColorScore>
-9.108

> <ROCS_Overlap>
1871.183

> <ROCS_Rank>
365                 

$$$$
untitled-dbase-412141_0
  -OEChem-02092408543D

 26 27  0     1  0  0  0  0  0999 V2000
    9.4709   11.5231   24.9675 C   0  0  0  0  0  0  0  0  0  0  0  0
    7.2123   12.1189   24.4849 C   0  0  0  0  0  0  0  0  0  0  0  0
    8.6325   12.2293   23.8993 C   0  0  2  0  0  0  0  0  0  0  0  0
    8.6553   10.2257   24.8807 C   0  0  1  0  0  0  0  0  0  0  0  0
    7.2420   10.7586   25.2128 C   0  0  2  0  0  0  0  0  0  0  0  0
    8.7520   11.2598   22.7041 C   0  0  2  0  0  0  0  0  0  0  0  0
    8.8027    9.8766   23.3854 C   0  0  1  0  0  0  0  0  0  0  0  0
    6.0849    9.8453   24.8415 C   0  0  0  0  0  0  0  0  0  0  0  0
    6.1887    8.6115   25.5500 N   0  0  0  0  0  0  0  0  0  0  0  0
    9.9309   11.5495   21.9706 O   0  0  0  0  0  0  0  0  0  0  0  0
   10.0460    9.2189   23.1813 O   0  0  0  0  0  0  0  0  0  0  0  0
   10.5218   11.4001   24.6862 H   0  0  0  0  0  0  0  0  0  0  0  0
    9.4136   12.0057   25.9492 H   0  0  0  0  0  0  0  0  0  0  0  0
    7.0346   12.9227   25.2088 H   0  0  0  0  0  0  0  0  0  0  0  0
    6.4390   12.1833   23.7125 H   0  0  0  0  0  0  0  0  0  0  0  0
    8.9482   13.2514   23.6788 H   0  0  0  0  0  0  0  0  0  0  0  0
    9.0052    9.4420   25.5573 H   0  0  0  0  0  0  0  0  0  0  0  0
    7.1877   10.9426   26.2947 H   0  0  0  0  0  0  0  0  0  0  0  0
    7.8914   11.3539   22.0331 H   0  0  0  0  0  0  0  0  0  0  0  0
    8.0098    9.2121   23.0330 H   0  0  0  0  0  0  0  0  0  0  0  0
    5.1604   10.3591   25.1085 H   0  0  0  0  0  0  0  0  0  0  0  0
    6.1350    9.6702   23.7660 H   0  0  0  0  0  0  0  0  0  0  0  0
    6.2396    7.8460   24.9030 H   0  0  0  0  0  0  0  0  0  0  0  0
    7.0148    8.6106   26.1199 H   0  0  0  0  0  0  0  0  0  0  0  0
    9.8531   12.4672   21.6607 H   0  0  0  0  0  0  0  0  0  0  0  0
   10.0304    8.4152   23.7258 H   0  0  0  0  0  0  0  0  0  0  0  0
  1  3  1  6  0  0  0
  1  4  1  6  0  0  0
  2  3  1  0  0  0  0
  2  5  1  0  0  0  0
  3  6  1  0  0  0  0
  4  5  1  0  0  0  0
  4  7  1  0  0  0  0
  5  8  1  1  0  0  0
  6  7  1  0  0  0  0
  6 10  1  6  0  0  0
  7 11  1  6  0  0  0
  8  9  1  0  0  0  0
  1 12  1  0  0  0  0
  1 13  1  0  0  0  0
  2 14  1  0  0  0  0
  2 15  1  0  0  0  0
  3 16  1  0  0  0  0
  4 17  1  0  0  0  0
  5 18  1  0  0  0  0
  6 19  1  0  0  0  0
  7 20  1  0  0  0  0
  8 21  1  0  0  0  0
  8 22  1  0  0  0  0
  9 23  1  0  0  0  0
  9 24  1  0  0  0  0
 10 25  1  0  0  0  0
 11 26  1  0  0  0  0
M  END
> <id>
EN300-7427574

> <smiles>
NC[C@@H]1C[C@H]2C[C@@H]1[C@H](O)[C@@H]2O |&1:2,4,6,7,9,r|

> <IUPAC Name>
rac-(1R,2S,3R,4R,5S)-5-(aminomethyl)bicyclo[2.2.1]heptane-2,3-diol

> <CAS>
1932625-73-4

> <URL>
https://www.enaminestore.com/catalog/EN300-7427574

> <ROCS_ShapeQuery>
x0812_0A_x1140_0A_x1097_0A_x0365_0A_x1097_0A_x0310_0A

> <ROCS_TanimotoCombo>
0.700 

> <ROCS_ShapeTanimoto>
0.203 

> <ROCS_ColorTanimoto>
0.497 

> <ROCS_RefTversky>
0.185 

> <ROCS_RefColorTversky>
0.607 

> <ROCS_RefTverskyCombo>
0.793 

> <ROCS_FitTversky>
1.900 

> <ROCS_FitColorTversky>
0.732 

> <ROCS_FitTverskyCombo>
2.632 

> <ROCS_ColorScore>
-9.108

> <ROCS_Overlap>
1871.183

> <ROCS_Rank>
366                 

$$$$
untitled-dbase-492212_0
  -OEChem-02092408543D

 24 25  0     1  0  0  0  0  0999 V2000
    9.5191   12.0970   24.9295 C   0  0  0  0  0  0  0  0  0  0  0  0
    8.2460   11.6355   25.6581 C   0  0  0  0  0  0  0  0  0  0  0  0
    7.8327   11.7012   23.2934 C   0  0  0  0  0  0  0  0  0  0  0  0
    9.3864    9.9816   23.6150 C   0  0  0  0  0  0  0  0  0  0  0  0
    9.3284   11.5096   23.5167 C   0  0  2  0  0  0  0  0  0  0  0  0
    7.4879   10.8982   24.5420 C   0  0  2  0  0  0  0  0  0  0  0  0
    6.0196   10.6739   24.8090 C   0  0  0  0  0  0  0  0  0  0  0  0
   10.2088   12.0711   22.5220 N   0  0  0  0  0  0  0  0  0  0  0  0
    5.8405    9.8866   25.9897 N   0  0  0  0  0  0  0  0  0  0  0  0
    8.1757    9.6403   24.3322 O   0  0  0  0  0  0  0  0  0  0  0  0
    9.5608   13.1929   24.9108 H   0  0  0  0  0  0  0  0  0  0  0  0
   10.4272   11.7313   25.4207 H   0  0  0  0  0  0  0  0  0  0  0  0
    8.4938   10.9747   26.4954 H   0  0  0  0  0  0  0  0  0  0  0  0
    7.6892   12.5001   26.0353 H   0  0  0  0  0  0  0  0  0  0  0  0
    7.5010   12.7443   23.3320 H   0  0  0  0  0  0  0  0  0  0  0  0
    7.4807   11.2309   22.3680 H   0  0  0  0  0  0  0  0  0  0  0  0
    9.3423    9.4901   22.6368 H   0  0  0  0  0  0  0  0  0  0  0  0
   10.2555    9.6077   24.1655 H   0  0  0  0  0  0  0  0  0  0  0  0
    5.5435   11.6506   24.9378 H   0  0  0  0  0  0  0  0  0  0  0  0
    5.5921   10.1532   23.9468 H   0  0  0  0  0  0  0  0  0  0  0  0
   10.7706   11.3439   22.1320 H   0  0  0  0  0  0  0  0  0  0  0  0
    9.6625   12.4973   21.8032 H   0  0  0  0  0  0  0  0  0  0  0  0
    5.3418    9.0463   25.7665 H   0  0  0  0  0  0  0  0  0  0  0  0
    6.7333    9.6451   26.3761 H   0  0  0  0  0  0  0  0  0  0  0  0
  1  2  1  0  0  0  0
  1  5  1  0  0  0  0
  2  6  1  0  0  0  0
  3  5  1  0  0  0  0
  3  6  1  0  0  0  0
  4  5  1  0  0  0  0
  4 10  1  0  0  0  0
  5  8  1  0  0  0  0
  6  7  1  0  0  0  0
  6 10  1  0  0  0  0
  7  9  1  0  0  0  0
  1 11  1  0  0  0  0
  1 12  1  0  0  0  0
  2 13  1  0  0  0  0
  2 14  1  0  0  0  0
  3 15  1  0  0  0  0
  3 16  1  0  0  0  0
  4 17  1  0  0  0  0
  4 18  1  0  0  0  0
  7 19  1  0  0  0  0
  7 20  1  0  0  0  0
  8 21  1  0  0  0  0
  8 22  1  0  0  0  0
  9 23  1  0  0  0  0
  9 24  1  0  0  0  0
M  END
> <id>
EN300-7286809

> <smiles>
NCC1(CCC2(N)CO1)C2

> <IUPAC Name>
1-(aminomethyl)-2-oxabicyclo[2.2.1]heptan-4-amine

> <CAS>
2639407-80-8

> <URL>
https://www.enaminestore.com/catalog/EN300-7286809

> <ROCS_ShapeQuery>
x0812_0A_x1140_0A_x1097_0A_x0365_0A_x1097_0A_x0310_0A

> <ROCS_TanimotoCombo>
0.700 

> <ROCS_ShapeTanimoto>
0.201 

> <ROCS_ColorTanimoto>
0.499 

> <ROCS_RefTversky>
0.183 

> <ROCS_RefColorTversky>
0.591 

> <ROCS_RefTverskyCombo>
0.774 

> <ROCS_FitTversky>
1.942 

> <ROCS_FitColorTversky>
0.763 

> <ROCS_FitTverskyCombo>
2.705 

> <ROCS_ColorScore>
-8.829

> <ROCS_Overlap>
1849.358

> <ROCS_Rank>
367                 

$$$$
untitled-dbase-482256_7
  -OEChem-02092408543D

 28 30  0     0  0  0  0  0  0999 V2000
   12.8150   13.7283   22.6563 C   0  0  0  0  0  0  0  0  0  0  0  0
   11.5488   14.2939   22.5068 C   0  0  0  0  0  0  0  0  0  0  0  0
   12.9485   12.4516   23.2022 C   0  0  0  0  0  0  0  0  0  0  0  0
   10.4161   13.5830   22.9032 C   0  0  0  0  0  0  0  0  0  0  0  0
   11.8158   11.7407   23.5987 C   0  0  0  0  0  0  0  0  0  0  0  0
   10.5496   12.3064   23.4492 C   0  0  0  0  0  0  0  0  0  0  0  0
    7.9255   11.7209   23.1754 C   0  0  0  0  0  0  0  0  0  0  0  0
    8.5069   11.9076   25.1729 C   0  0  0  0  0  0  0  0  0  0  0  0
    9.4922   10.0004   23.9717 C   0  0  0  0  0  0  0  0  0  0  0  0
    9.3218   11.5352   23.8784 C   0  0  0  0  0  0  0  0  0  0  0  0
    7.5062   10.9170   24.4646 C   0  0  0  0  0  0  0  0  0  0  0  0
    6.0727   10.8221   24.8907 C   0  0  0  0  0  0  0  0  0  0  0  0
    8.1693    9.6252   24.3923 O   0  0  0  0  0  0  0  0  0  0  0  0
    5.9770   10.0333   26.0732 O   0  0  0  0  0  0  0  0  0  0  0  0
   13.6972   14.2811   22.3468 H   0  0  0  0  0  0  0  0  0  0  0  0
   11.4452   15.2878   22.0809 H   0  0  0  0  0  0  0  0  0  0  0  0
   13.9349   12.0116   23.3177 H   0  0  0  0  0  0  0  0  0  0  0  0
    9.4329   14.0298   22.7834 H   0  0  0  0  0  0  0  0  0  0  0  0
   11.9281   10.7464   24.0227 H   0  0  0  0  0  0  0  0  0  0  0  0
    7.5466   12.7449   23.0815 H   0  0  0  0  0  0  0  0  0  0  0  0
    7.7895   11.1973   22.2244 H   0  0  0  0  0  0  0  0  0  0  0  0
    8.9252   11.5621   26.1231 H   0  0  0  0  0  0  0  0  0  0  0  0
    8.1858   12.9502   25.2770 H   0  0  0  0  0  0  0  0  0  0  0  0
    9.7168    9.5384   23.0058 H   0  0  0  0  0  0  0  0  0  0  0  0
   10.2196    9.6991   24.7314 H   0  0  0  0  0  0  0  0  0  0  0  0
    5.4557   10.3490   24.1132 H   0  0  0  0  0  0  0  0  0  0  0  0
    5.6540   11.8155   25.1074 H   0  0  0  0  0  0  0  0  0  0  0  0
    5.0368   10.0008   26.3088 H   0  0  0  0  0  0  0  0  0  0  0  0
  1  2  1  0  0  0  0
  1  3  2  0  0  0  0
  2  4  2  0  0  0  0
  3  5  1  0  0  0  0
  4  6  1  0  0  0  0
  5  6  2  0  0  0  0
  6 10  1  0  0  0  0
  7 10  1  0  0  0  0
  7 11  1  0  0  0  0
  8 10  1  0  0  0  0
  8 11  1  0  0  0  0
  9 10  1  0  0  0  0
  9 13  1  0  0  0  0
 11 12  1  0  0  0  0
 11 13  1  0  0  0  0
 12 14  1  0  0  0  0
  1 15  1  0  0  0  0
  2 16  1  0  0  0  0
  3 17  1  0  0  0  0
  4 18  1  0  0  0  0
  5 19  1  0  0  0  0
  7 20  1  0  0  0  0
  7 21  1  0  0  0  0
  8 22  1  0  0  0  0
  8 23  1  0  0  0  0
  9 24  1  0  0  0  0
  9 25  1  0  0  0  0
 12 26  1  0  0  0  0
 12 27  1  0  0  0  0
 14 28  1  0  0  0  0
M  END
> <id>
EN300-1666723

> <smiles>
OCC1(CC2(C1)C=3C=CC=CC3)OC2

> <MDLNUMBER>
MFCD33031876

> <IUPAC Name>
{4-phenyl-2-oxabicyclo[2.1.1]hexan-1-yl}methanol

> <CAS>
2384500-49-4

> <Purity>
95

> <URL>
https://www.enaminestore.com/catalog/EN300-1666723

> <ROCS_ShapeQuery>
x0812_0A_x1140_0A_x1097_0A_x0365_0A_x1097_0A_x0310_0A

> <ROCS_TanimotoCombo>
0.700 

> <ROCS_ShapeTanimoto>
0.232 

> <ROCS_ColorTanimoto>
0.468 

> <ROCS_RefTversky>
0.210 

> <ROCS_RefColorTversky>
0.553 

> <ROCS_RefTverskyCombo>
0.763 

> <ROCS_FitTversky>
1.874 

> <ROCS_FitColorTversky>
0.751 

> <ROCS_FitTverskyCombo>
2.625 

> <ROCS_ColorScore>
-8.256

> <ROCS_Overlap>
2119.105

> <ROCS_Rank>
368                 

$$$$
untitled-dbase-272836_0
  -OEChem-02092408543D

 47 50  0     1  0  0  0  0  0999 V2000
    9.1988   14.5989   23.7064 C   0  0  0  0  0  0  0  0  0  0  0  0
    7.4430   10.9470   26.0086 C   0  0  0  0  0  0  0  0  0  0  0  0
    8.5351   14.7416   25.0665 C   0  0  0  0  0  0  0  0  0  0  0  0
    8.1100    9.5116   25.6624 C   0  0  0  0  0  0  0  0  0  0  0  0
    8.5520   13.5276   22.8135 C   0  0  1  0  0  0  0  0  0  0  0  0
    7.9219   12.2972   25.0849 C   0  0  1  0  0  0  0  0  0  0  0  0
    8.5962   13.4449   25.8853 C   0  0  2  0  0  0  0  0  0  0  0  0
    9.1631   13.5177   21.3682 C   0  0  2  0  0  0  0  0  0  0  0  0
    9.7982   11.2418   22.9241 C   0  0  2  0  0  0  0  0  0  0  0  0
    9.0650   12.1102   20.7659 C   0  0  2  0  0  0  0  0  0  0  0  0
    8.5439   12.1383   23.5137 C   0  0  2  0  0  0  0  0  0  0  0  0
    8.9335    9.9629   24.5020 C   0  0  1  0  0  0  0  0  0  0  0  0
    7.9510   13.7090   27.2507 C   0  0  0  0  0  0  0  0  0  0  0  0
   10.6023   14.0563   21.2577 C   0  0  0  0  0  0  0  0  0  0  0  0
   10.0525   10.6420   25.4797 C   0  0  0  0  0  0  0  0  0  0  0  0
    9.0164   11.0351   18.6767 C   0  0  0  0  0  0  0  0  0  0  0  0
    9.8397   11.1621   21.4873 O   0  0  0  0  0  0  0  0  0  0  0  0
    9.7790    9.8339   23.4293 O   0  0  0  0  0  0  0  0  0  0  0  0
    7.5195   11.3140   22.9953 O   0  0  0  0  0  0  0  0  0  0  0  0
    7.6585   10.0949   23.7587 O   0  0  0  0  0  0  0  0  0  0  0  0
    9.4986   12.1526   19.4052 O   0  0  0  0  0  0  0  0  0  0  0  0
    9.1453   15.5721   23.2037 H   0  0  0  0  0  0  0  0  0  0  0  0
   10.2594   14.3709   23.8660 H   0  0  0  0  0  0  0  0  0  0  0  0
    6.3585   10.8414   25.8603 H   0  0  0  0  0  0  0  0  0  0  0  0
    7.5711   11.1366   27.0767 H   0  0  0  0  0  0  0  0  0  0  0  0
    9.0385   15.5478   25.6150 H   0  0  0  0  0  0  0  0  0  0  0  0
    7.4926   15.0585   24.9338 H   0  0  0  0  0  0  0  0  0  0  0  0
    8.6532    9.0898   26.5175 H   0  0  0  0  0  0  0  0  0  0  0  0
    7.3288    8.7702   25.4390 H   0  0  0  0  0  0  0  0  0  0  0  0
    7.4965   13.8080   22.6763 H   0  0  0  0  0  0  0  0  0  0  0  0
    6.9151   12.7052   24.8756 H   0  0  0  0  0  0  0  0  0  0  0  0
    9.6502   13.2163   26.0655 H   0  0  0  0  0  0  0  0  0  0  0  0
    8.5541   14.1922   20.7496 H   0  0  0  0  0  0  0  0  0  0  0  0
   10.7561   11.6886   23.2075 H   0  0  0  0  0  0  0  0  0  0  0  0
    8.0201   11.7836   20.7380 H   0  0  0  0  0  0  0  0  0  0  0  0
    6.8979   13.9412   27.1161 H   0  0  0  0  0  0  0  0  0  0  0  0
    8.4474   14.5482   27.7308 H   0  0  0  0  0  0  0  0  0  0  0  0
    8.0491   12.8253   27.8758 H   0  0  0  0  0  0  0  0  0  0  0  0
   11.2623   13.4319   21.8495 H   0  0  0  0  0  0  0  0  0  0  0  0
   10.6303   15.0748   21.6285 H   0  0  0  0  0  0  0  0  0  0  0  0
   10.9111   14.0352   20.2184 H   0  0  0  0  0  0  0  0  0  0  0  0
   10.7710   11.0447   24.8166 H   0  0  0  0  0  0  0  0  0  0  0  0
   10.4106    9.8386   26.0666 H   0  0  0  0  0  0  0  0  0  0  0  0
    9.5156   11.3701   26.0273 H   0  0  0  0  0  0  0  0  0  0  0  0
    9.3639   11.0959   17.6425 H   0  0  0  0  0  0  0  0  0  0  0  0
    7.9239   11.0243   18.7052 H   0  0  0  0  0  0  0  0  0  0  0  0
    9.3999   10.1201   19.1343 H   0  0  0  0  0  0  0  0  0  0  0  0
  1  3  1  0  0  0  0
  1  5  1  1  0  0  0
  2  4  1  0  0  0  0
  2  6  1  1  0  0  0
  3  7  1  0  0  0  0
  4 12  1  0  0  0  0
  5  8  1  0  0  0  0
  5 11  1  0  0  0  0
  6  7  1  0  0  0  0
  6 11  1  0  0  0  0
  7 13  1  6  0  0  0
  8 10  1  0  0  0  0
  8 14  1  1  0  0  0
  9 11  1  0  0  0  0
  9 17  1  6  0  0  0
  9 18  1  0  0  0  0
 10 17  1  0  0  0  0
 10 21  1  1  0  0  0
 11 19  1  6  0  0  0
 12 15  1  6  0  0  0
 12 18  1  0  0  0  0
 12 20  1  0  0  0  0
 16 21  1  0  0  0  0
 19 20  1  0  0  0  0
  1 22  1  0  0  0  0
  1 23  1  0  0  0  0
  2 24  1  0  0  0  0
  2 25  1  0  0  0  0
  3 26  1  0  0  0  0
  3 27  1  0  0  0  0
  4 28  1  0  0  0  0
  4 29  1  0  0  0  0
  5 30  1  0  0  0  0
  6 31  1  0  0  0  0
  7 32  1  0  0  0  0
  8 33  1  0  0  0  0
  9 34  1  0  0  0  0
 10 35  1  0  0  0  0
 13 36  1  0  0  0  0
 13 37  1  0  0  0  0
 13 38  1  0  0  0  0
 14 39  1  0  0  0  0
 14 40  1  0  0  0  0
 14 41  1  0  0  0  0
 15 42  1  0  0  0  0
 15 43  1  0  0  0  0
 15 44  1  0  0  0  0
 16 45  1  0  0  0  0
 16 46  1  0  0  0  0
 16 47  1  0  0  0  0
M  END
> <id>
EN300-19651964

> <smiles>
CO[C@H]1O[C@@H]2O[C@]3(C)CC[C@H]4[C@H](C)CC[C@@H]([C@H]1C)[C@@]24OO3

> <IUPAC Name>
(1S,4S,5R,8S,9R,10S,12R,13R)-10-methoxy-1,5,9-trimethyl-11,14,15,16-tetraoxatetracyclo[10.3.1.0^{4,13}.0^{8,13}]hexadecane

> <URL>
https://www.enaminestore.com/catalog/EN300-19651964

> <ROCS_ShapeQuery>
x0812_0A_x1140_0A_x1097_0A_x0365_0A_x1097_0A_x0310_0A

> <ROCS_TanimotoCombo>
0.700 

> <ROCS_ShapeTanimoto>
0.245 

> <ROCS_ColorTanimoto>
0.455 

> <ROCS_RefTversky>
0.225 

> <ROCS_RefColorTversky>
0.541 

> <ROCS_RefTverskyCombo>
0.766 

> <ROCS_FitTversky>
1.581 

> <ROCS_FitColorTversky>
0.739 

> <ROCS_FitTverskyCombo>
2.321 

> <ROCS_ColorScore>
-8.074

> <ROCS_Overlap>
2277.876

> <ROCS_Rank>
369                 

$$$$
untitled-dbase-567440_7
  -OEChem-02092408543D

 28 30  0     0  0  0  0  0  0999 V2000
   12.8152   13.7282   22.6552 C   0  0  0  0  0  0  0  0  0  0  0  0
   11.5490   14.2938   22.5056 C   0  0  0  0  0  0  0  0  0  0  0  0
   12.9488   12.4516   23.2014 C   0  0  0  0  0  0  0  0  0  0  0  0
   10.4164   13.5830   22.9024 C   0  0  0  0  0  0  0  0  0  0  0  0
   11.8161   11.7408   23.5982 C   0  0  0  0  0  0  0  0  0  0  0  0
   10.5499   12.3065   23.4487 C   0  0  0  0  0  0  0  0  0  0  0  0
    7.9254   11.7209   23.1752 C   0  0  0  0  0  0  0  0  0  0  0  0
    8.5069   11.9076   25.1728 C   0  0  0  0  0  0  0  0  0  0  0  0
    9.4923   10.0004   23.9721 C   0  0  0  0  0  0  0  0  0  0  0  0
    9.3217   11.5352   23.8783 C   0  0  0  0  0  0  0  0  0  0  0  0
    7.5062   10.9170   24.4646 C   0  0  0  0  0  0  0  0  0  0  0  0
    6.0727   10.8221   24.8906 C   0  0  0  0  0  0  0  0  0  0  0  0
    8.1693    9.6252   24.3923 O   0  0  0  0  0  0  0  0  0  0  0  0
    5.9770   10.0333   26.0732 O   0  0  0  0  0  0  0  0  0  0  0  0
   13.6974   14.2809   22.3455 H   0  0  0  0  0  0  0  0  0  0  0  0
   11.4454   15.2876   22.0795 H   0  0  0  0  0  0  0  0  0  0  0  0
   13.9351   12.0116   23.3169 H   0  0  0  0  0  0  0  0  0  0  0  0
    9.4331   14.0298   22.7825 H   0  0  0  0  0  0  0  0  0  0  0  0
   11.9284   10.7466   24.0224 H   0  0  0  0  0  0  0  0  0  0  0  0
    7.5466   12.7449   23.0817 H   0  0  0  0  0  0  0  0  0  0  0  0
    7.7898   11.1978   22.2238 H   0  0  0  0  0  0  0  0  0  0  0  0
    8.9249   11.5622   26.1232 H   0  0  0  0  0  0  0  0  0  0  0  0
    8.1855   12.9501   25.2770 H   0  0  0  0  0  0  0  0  0  0  0  0
    9.7171    9.5378   23.0065 H   0  0  0  0  0  0  0  0  0  0  0  0
   10.2193    9.6992   24.7323 H   0  0  0  0  0  0  0  0  0  0  0  0
    5.4558   10.3489   24.1131 H   0  0  0  0  0  0  0  0  0  0  0  0
    5.6539   11.8154   25.1073 H   0  0  0  0  0  0  0  0  0  0  0  0
    5.0367   10.0008   26.3088 H   0  0  0  0  0  0  0  0  0  0  0  0
  1  2  1  0  0  0  0
  1  3  2  0  0  0  0
  2  4  2  0  0  0  0
  3  5  1  0  0  0  0
  4  6  1  0  0  0  0
  5  6  2  0  0  0  0
  6 10  1  1  0  0  0
  7 10  1  0  0  0  0
  7 11  1  0  0  0  0
  8 10  1  0  0  0  0
  8 11  1  0  0  0  0
  9 10  1  0  0  0  0
  9 13  1  0  0  0  0
 11 12  1  1  0  0  0
 11 13  1  0  0  0  0
 12 14  1  0  0  0  0
  1 15  1  0  0  0  0
  2 16  1  0  0  0  0
  3 17  1  0  0  0  0
  4 18  1  0  0  0  0
  5 19  1  0  0  0  0
  7 20  1  0  0  0  0
  7 21  1  0  0  0  0
  8 22  1  0  0  0  0
  8 23  1  0  0  0  0
  9 24  1  0  0  0  0
  9 25  1  0  0  0  0
 12 26  1  0  0  0  0
 12 27  1  0  0  0  0
 14 28  1  0  0  0  0
M  END
> <id>
EN300-37375189

> <smiles>
OC[C@]1(C[C@]2(C1)C=3C=CC=CC3)OC2

> <IUPAC Name>
{4-phenyl-2-oxabicyclo[2.1.1]hexan-1-yl}methanol

> <CAS>
2384500-49-4

> <URL>
https://www.enaminestore.com/catalog/EN300-37375189

> <ROCS_ShapeQuery>
x0812_0A_x1140_0A_x1097_0A_x0365_0A_x1097_0A_x0310_0A

> <ROCS_TanimotoCombo>
0.700 

> <ROCS_ShapeTanimoto>
0.232 

> <ROCS_ColorTanimoto>
0.468 

> <ROCS_RefTversky>
0.210 

> <ROCS_RefColorTversky>
0.553 

> <ROCS_RefTverskyCombo>
0.763 

> <ROCS_FitTversky>
1.874 

> <ROCS_FitColorTversky>
0.751 

> <ROCS_FitTverskyCombo>
2.625 

> <ROCS_ColorScore>
-8.256

> <ROCS_Overlap>
2119.019

> <ROCS_Rank>
370                 

$$$$
untitled-dbase-324200_1
  -OEChem-02092408543D

 41 44  0     1  0  0  0  0  0999 V2000
   14.5099   16.0322   18.4359 C   0  0  0  0  0  0  0  0  0  0  0  0
   13.1358   16.2333   18.3067 C   0  0  0  0  0  0  0  0  0  0  0  0
   14.9940   14.8221   18.9330 C   0  0  0  0  0  0  0  0  0  0  0  0
   12.2456   15.2245   18.6746 C   0  0  0  0  0  0  0  0  0  0  0  0
   14.1038   13.8132   19.3010 C   0  0  0  0  0  0  0  0  0  0  0  0
   12.7296   14.0144   19.1717 C   0  0  0  0  0  0  0  0  0  0  0  0
   10.5583   12.1672   21.4575 C   0  0  0  0  0  0  0  0  0  0  0  0
    8.0625   10.0597   25.4867 C   0  0  0  0  0  0  0  0  0  0  0  0
    7.6751   10.0644   22.9919 C   0  0  0  0  0  0  0  0  0  0  0  0
    7.1198   12.0817   24.3043 C   0  0  0  0  0  0  0  0  0  0  0  0
    9.8802   10.1792   23.7380 C   0  0  0  0  0  0  0  0  0  0  0  0
    9.3226   12.2051   25.0559 C   0  0  0  0  0  0  0  0  0  0  0  0
    8.5555    9.5124   24.1167 C   0  0  1  0  0  0  0  0  0  0  0  0
    7.9774   11.6128   25.4833 C   0  0  2  0  0  0  0  0  0  0  0  0
    7.9504   11.5723   23.1148 C   0  0  0  0  0  0  0  0  0  0  0  0
    9.4388   11.6527   23.6214 C   0  0  0  0  0  0  0  0  0  0  0  0
   11.7726   12.9288   19.5679 C   0  0  0  0  0  0  0  0  0  0  0  0
   10.3084   12.4323   22.7958 N   0  0  0  0  0  0  0  0  0  0  0  0
   10.0719   11.2414   20.8165 O   0  0  0  0  0  0  0  0  0  0  0  0
   11.4292   13.0894   20.9489 O   0  0  0  0  0  0  0  0  0  0  0  0
   15.2030   16.8174   18.1481 H   0  0  0  0  0  0  0  0  0  0  0  0
   12.7587   17.1751   17.9186 H   0  0  0  0  0  0  0  0  0  0  0  0
   16.0639   14.6648   19.0328 H   0  0  0  0  0  0  0  0  0  0  0  0
   11.1765   15.3901   18.5706 H   0  0  0  0  0  0  0  0  0  0  0  0
   14.4901   12.8738   19.6874 H   0  0  0  0  0  0  0  0  0  0  0  0
    7.0745    9.6409   25.7121 H   0  0  0  0  0  0  0  0  0  0  0  0
    8.7481    9.7334   26.2778 H   0  0  0  0  0  0  0  0  0  0  0  0
    8.0047    9.6906   22.0149 H   0  0  0  0  0  0  0  0  0  0  0  0
    6.6186    9.8043   23.1133 H   0  0  0  0  0  0  0  0  0  0  0  0
    6.1034   11.6760   24.3311 H   0  0  0  0  0  0  0  0  0  0  0  0
    7.0469   13.1758   24.2821 H   0  0  0  0  0  0  0  0  0  0  0  0
   10.6633   10.0183   24.4865 H   0  0  0  0  0  0  0  0  0  0  0  0
   10.2452    9.7928   22.7778 H   0  0  0  0  0  0  0  0  0  0  0  0
    9.2791   13.3017   25.0618 H   0  0  0  0  0  0  0  0  0  0  0  0
   10.1458   11.8964   25.7090 H   0  0  0  0  0  0  0  0  0  0  0  0
    8.6141    8.4208   24.1125 H   0  0  0  0  0  0  0  0  0  0  0  0
    7.6286   12.0029   26.4429 H   0  0  0  0  0  0  0  0  0  0  0  0
    7.7367   12.1145   22.1899 H   0  0  0  0  0  0  0  0  0  0  0  0
   10.8590   12.9727   18.9653 H   0  0  0  0  0  0  0  0  0  0  0  0
   12.2243   11.9416   19.4226 H   0  0  0  0  0  0  0  0  0  0  0  0
   10.7759   13.2367   23.2194 H   0  0  0  0  0  0  0  0  0  0  0  0
  1  2  1  0  0  0  0
  1  3  2  0  0  0  0
  2  4  2  0  0  0  0
  3  5  1  0  0  0  0
  4  6  1  0  0  0  0
  5  6  2  0  0  0  0
  6 17  1  0  0  0  0
  7 18  1  0  0  0  0
  7 19  2  0  0  0  0
  7 20  1  0  0  0  0
  8 13  1  0  0  0  0
  8 14  1  0  0  0  0
  9 13  1  0  0  0  0
  9 15  1  0  0  0  0
 10 14  1  0  0  0  0
 10 15  1  0  0  0  0
 11 13  1  0  0  0  0
 11 16  1  0  0  0  0
 12 14  1  0  0  0  0
 12 16  1  0  0  0  0
 15 16  1  0  0  0  0
 16 18  1  0  0  0  0
 17 20  1  0  0  0  0
  1 21  1  0  0  0  0
  2 22  1  0  0  0  0
  3 23  1  0  0  0  0
  4 24  1  0  0  0  0
  5 25  1  0  0  0  0
  8 26  1  0  0  0  0
  8 27  1  0  0  0  0
  9 28  1  0  0  0  0
  9 29  1  0  0  0  0
 10 30  1  0  0  0  0
 10 31  1  0  0  0  0
 11 32  1  0  0  0  0
 11 33  1  0  0  0  0
 12 34  1  0  0  0  0
 12 35  1  0  0  0  0
 13 36  1  0  0  0  0
 14 37  1  0  0  0  0
 15 38  1  0  0  0  0
 17 39  1  0  0  0  0
 17 40  1  0  0  0  0
 18 41  1  0  0  0  0
M  END
> <id>
EN300-37447152

> <smiles>
O=C(NC12CC3CC2CC(C1)C3)OCC=4C=CC=CC4

> <IUPAC Name>
benzyl N-{tricyclo[3.3.1.0,3,7]nonan-3-yl}carbamate

> <URL>
https://www.enaminestore.com/catalog/EN300-37447152

> <ROCS_ShapeQuery>
x0812_0A_x1140_0A_x1097_0A_x0365_0A_x1097_0A_x0310_0A

> <ROCS_TanimotoCombo>
0.700 

> <ROCS_ShapeTanimoto>
0.218 

> <ROCS_ColorTanimoto>
0.482 

> <ROCS_RefTversky>
0.203 

> <ROCS_RefColorTversky>
0.813 

> <ROCS_RefTverskyCombo>
1.017 

> <ROCS_FitTversky>
1.470 

> <ROCS_FitColorTversky>
0.542 

> <ROCS_FitTverskyCombo>
2.012 

> <ROCS_ColorScore>
-12.666

> <ROCS_Overlap>
2060.918

> <ROCS_Rank>
371                 

$$$$
untitled-dbase-329459_6
  -OEChem-02092408543D

 37 39  0     0  0  0  0  0  0999 V2000
   10.1543   11.7824   22.5174 C   0  0  0  0  0  0  0  0  0  0  0  0
    8.5915    8.9565   22.4433 C   0  0  0  0  0  0  0  0  0  0  0  0
   10.3270    9.0701   24.2631 C   0  0  0  0  0  0  0  0  0  0  0  0
    7.6457   11.7414   23.4752 C   0  0  0  0  0  0  0  0  0  0  0  0
    9.0780   11.8355   24.9775 C   0  0  0  0  0  0  0  0  0  0  0  0
    8.5392    7.4426   22.6601 C   0  0  0  0  0  0  0  0  0  0  0  0
   10.2008    7.5519   24.4058 C   0  0  0  0  0  0  0  0  0  0  0  0
    9.1443   11.2340   23.5150 C   0  0  0  0  0  0  0  0  0  0  0  0
    9.0394    9.6925   23.7113 C   0  0  0  0  0  0  0  0  0  0  0  0
    7.7017   11.0715   24.9006 C   0  0  0  0  0  0  0  0  0  0  0  0
   12.1990   12.9574   22.3664 C   0  0  0  0  0  0  0  0  0  0  0  0
    6.6234   11.3133   25.9129 C   0  0  0  0  0  0  0  0  0  0  0  0
    4.8465   13.3916   27.7609 N   0  5  0  0  0  0  0  0  0  0  0  0
    6.5407   12.7476   26.2135 N   0  0  0  0  0  0  0  0  0  0  0  0
    5.6557   13.0779   27.0207 N   0  3  0  0  0  0  0  0  0  0  0  0
    9.8188    6.9257   23.1414 N   0  0  0  0  0  0  0  0  0  0  0  0
   10.0452   11.6764   21.3033 O   0  0  0  0  0  0  0  0  0  0  0  0
    7.9971    9.6565   24.7077 O   0  0  0  0  0  0  0  0  0  0  0  0
   11.1719   12.3936   23.1882 O   0  0  0  0  0  0  0  0  0  0  0  0
    9.2781    9.1787   21.6170 H   0  0  0  0  0  0  0  0  0  0  0  0
    7.5947    9.2796   22.1256 H   0  0  0  0  0  0  0  0  0  0  0  0
   10.5752    9.4753   25.2495 H   0  0  0  0  0  0  0  0  0  0  0  0
   11.1707    9.3012   23.6009 H   0  0  0  0  0  0  0  0  0  0  0  0
    7.4902   12.8263   23.4387 H   0  0  0  0  0  0  0  0  0  0  0  0
    6.9720   11.2731   22.7539 H   0  0  0  0  0  0  0  0  0  0  0  0
    9.7927   11.4579   25.7121 H   0  0  0  0  0  0  0  0  0  0  0  0
    9.0393   12.9280   25.0635 H   0  0  0  0  0  0  0  0  0  0  0  0
    7.7378    7.1842   23.3632 H   0  0  0  0  0  0  0  0  0  0  0  0
    8.2968    6.9549   21.7094 H   0  0  0  0  0  0  0  0  0  0  0  0
   11.1659    7.1429   24.7244 H   0  0  0  0  0  0  0  0  0  0  0  0
    9.4746    7.2997   25.1880 H   0  0  0  0  0  0  0  0  0  0  0  0
   12.9605   13.4195   22.9994 H   0  0  0  0  0  0  0  0  0  0  0  0
   11.7631   13.7044   21.6981 H   0  0  0  0  0  0  0  0  0  0  0  0
   12.6556   12.1622   21.7724 H   0  0  0  0  0  0  0  0  0  0  0  0
    6.8266   10.7677   26.8463 H   0  0  0  0  0  0  0  0  0  0  0  0
    5.6458   10.9740   25.5393 H   0  0  0  0  0  0  0  0  0  0  0  0
    9.7453    5.9174   23.2746 H   0  0  0  0  0  0  0  0  0  0  0  0
  1  8  1  0  0  0  0
  1 17  2  0  0  0  0
  1 19  1  0  0  0  0
  2  6  1  0  0  0  0
  2  9  1  0  0  0  0
  3  7  1  0  0  0  0
  3  9  1  0  0  0  0
  4  8  1  0  0  0  0
  4 10  1  0  0  0  0
  5  8  1  0  0  0  0
  5 10  1  0  0  0  0
  6 16  1  0  0  0  0
  7 16  1  0  0  0  0
  8  9  1  0  0  0  0
  9 18  1  0  0  0  0
 10 12  1  0  0  0  0
 10 18  1  0  0  0  0
 11 19  1  0  0  0  0
 12 14  1  0  0  0  0
 13 15  2  0  0  0  0
 14 15  2  0  0  0  0
  2 20  1  0  0  0  0
  2 21  1  0  0  0  0
  3 22  1  0  0  0  0
  3 23  1  0  0  0  0
  4 24  1  0  0  0  0
  4 25  1  0  0  0  0
  5 26  1  0  0  0  0
  5 27  1  0  0  0  0
  6 28  1  0  0  0  0
  6 29  1  0  0  0  0
  7 30  1  0  0  0  0
  7 31  1  0  0  0  0
 11 32  1  0  0  0  0
 11 33  1  0  0  0  0
 11 34  1  0  0  0  0
 12 35  1  0  0  0  0
 12 36  1  0  0  0  0
 16 37  1  0  0  0  0
M  CHG  2  13  -1  15   1
M  END
> <id>
EN300-37101349

> <smiles>
COC(=O)C1(CC2(CN=[N+]=[N-])C1)C3(CCNCC3)O2

> <IUPAC Name>
methyl 4-(azidomethyl)-3-oxaspiro[bicyclo[2.1.1]hexane-2,4'-piperidine]-1-carboxylate

> <CAS>
2757905-14-7

> <URL>
https://www.enaminestore.com/catalog/EN300-37101349

> <ROCS_ShapeQuery>
x0812_0A_x1140_0A_x1097_0A_x0365_0A_x1097_0A_x0310_0A

> <ROCS_TanimotoCombo>
0.700 

> <ROCS_ShapeTanimoto>
0.267 

> <ROCS_ColorTanimoto>
0.432 

> <ROCS_RefTversky>
0.239 

> <ROCS_RefColorTversky>
0.542 

> <ROCS_RefTverskyCombo>
0.781 

> <ROCS_FitTversky>
1.805 

> <ROCS_FitColorTversky>
0.681 

> <ROCS_FitTverskyCombo>
2.486 

> <ROCS_ColorScore>
-8.117

> <ROCS_Overlap>
2418.770

> <ROCS_Rank>
372                 

$$$$
untitled-dbase-341343_6
  -OEChem-02092408543D

 25 26  0     1  0  0  0  0  0999 V2000
    6.7720   12.0508   23.7962 C   0  0  0  0  0  0  0  0  0  0  0  0
    6.8199   11.2800   24.8937 C   0  0  0  0  0  0  0  0  0  0  0  0
   10.6722   12.0341   21.5193 C   0  0  0  0  0  0  0  0  0  0  0  0
    8.0160   12.3197   22.9835 C   0  0  0  0  0  0  0  0  0  0  0  0
    9.2955   11.6230   25.0231 C   0  0  0  0  0  0  0  0  0  0  0  0
    9.1158   10.0291   23.3175 C   0  0  0  0  0  0  0  0  0  0  0  0
    8.1327   10.6825   25.3241 C   0  0  2  0  0  0  0  0  0  0  0  0
    9.2650   11.5491   23.5009 C   0  0  1  0  0  0  0  0  0  0  0  0
   11.9924   12.6338   21.1077 C   0  0  0  0  0  0  0  0  0  0  0  0
   10.4663   12.0538   22.8915 N   0  0  0  0  0  0  0  0  0  0  0  0
    9.8734   11.5953   20.6936 O   0  0  0  0  0  0  0  0  0  0  0  0
    8.3714    9.5486   24.4633 O   0  0  0  0  0  0  0  0  0  0  0  0
   13.1466   12.3641   22.4230 Cl  0  0  0  0  0  0  0  0  0  0  0  0
    5.8326   12.4853   23.4715 H   0  0  0  0  0  0  0  0  0  0  0  0
    5.9217   11.0637   25.4612 H   0  0  0  0  0  0  0  0  0  0  0  0
    7.8229   12.0586   21.9361 H   0  0  0  0  0  0  0  0  0  0  0  0
    8.2037   13.4005   23.0224 H   0  0  0  0  0  0  0  0  0  0  0  0
    9.1611   12.6329   25.4252 H   0  0  0  0  0  0  0  0  0  0  0  0
   10.2312   11.2067   25.4178 H   0  0  0  0  0  0  0  0  0  0  0  0
    8.5882    9.7508   22.3998 H   0  0  0  0  0  0  0  0  0  0  0  0
   10.0822    9.5126   23.3340 H   0  0  0  0  0  0  0  0  0  0  0  0
    8.1041   10.3653   26.3700 H   0  0  0  0  0  0  0  0  0  0  0  0
   12.3910   12.1851   20.1945 H   0  0  0  0  0  0  0  0  0  0  0  0
   11.8704   13.7094   20.9533 H   0  0  0  0  0  0  0  0  0  0  0  0
   11.1936   12.4404   23.4900 H   0  0  0  0  0  0  0  0  0  0  0  0
  1  2  2  0  0  0  0
  1  4  1  0  0  0  0
  2  7  1  0  0  0  0
  3  9  1  0  0  0  0
  3 10  1  0  0  0  0
  3 11  2  0  0  0  0
  4  8  1  0  0  0  0
  5  7  1  0  0  0  0
  5  8  1  0  0  0  0
  6  8  1  0  0  0  0
  6 12  1  0  0  0  0
  7 12  1  0  0  0  0
  8 10  1  0  0  0  0
  9 13  1  0  0  0  0
  1 14  1  0  0  0  0
  2 15  1  0  0  0  0
  4 16  1  0  0  0  0
  4 17  1  0  0  0  0
  5 18  1  0  0  0  0
  5 19  1  0  0  0  0
  6 20  1  0  0  0  0
  6 21  1  0  0  0  0
  7 22  1  0  0  0  0
  9 23  1  0  0  0  0
  9 24  1  0  0  0  0
 10 25  1  0  0  0  0
M  END
> <id>
EN300-26598295

> <smiles>
ClCC(=O)NC1(COC2C1)CC=C2

> <IUPAC Name>
2-chloro-N-{6-oxabicyclo[3.2.1]oct-3-en-1-yl}acetamide

> <CAS>
2411278-75-4

> <URL>
https://www.enaminestore.com/catalog/EN300-26598295

> <ROCS_ShapeQuery>
x0812_0A_x1140_0A_x1097_0A_x0365_0A_x1097_0A_x0310_0A

> <ROCS_TanimotoCombo>
0.699 

> <ROCS_ShapeTanimoto>
0.208 

> <ROCS_ColorTanimoto>
0.491 

> <ROCS_RefTversky>
0.191 

> <ROCS_RefColorTversky>
0.532 

> <ROCS_RefTverskyCombo>
0.723 

> <ROCS_FitTversky>
1.802 

> <ROCS_FitColorTversky>
0.863 

> <ROCS_FitTverskyCombo>
2.665 

> <ROCS_ColorScore>
-7.892

> <ROCS_Overlap>
1928.285

> <ROCS_Rank>
373                 

$$$$
untitled-dbase-568112_1
  -OEChem-02092408543D

 29 30  0     0  0  0  0  0  0999 V2000
   10.0345   11.9163   22.4929 C   0  0  0  0  0  0  0  0  0  0  0  0
    9.1561   11.7435   25.0223 C   0  0  0  0  0  0  0  0  0  0  0  0
    7.6065   11.8083   23.6309 C   0  0  0  0  0  0  0  0  0  0  0  0
    8.9725    9.7687   23.5749 C   0  0  0  0  0  0  0  0  0  0  0  0
    7.7637   11.0196   24.9793 C   0  0  0  0  0  0  0  0  0  0  0  0
    9.0908   11.3072   23.5146 C   0  0  0  0  0  0  0  0  0  0  0  0
   11.0340   14.2299   21.1721 C   0  0  0  0  0  0  0  0  0  0  0  0
   12.6060   14.4364   23.1202 C   0  0  0  0  0  0  0  0  0  0  0  0
   12.7098   12.4109   21.6387 C   0  0  0  0  0  0  0  0  0  0  0  0
   11.7983   13.4708   22.2558 C   0  0  0  0  0  0  0  0  0  0  0  0
   10.0392   11.6239   21.3048 O   0  0  0  0  0  0  0  0  0  0  0  0
    8.0130    9.6326   24.6369 O   0  0  0  0  0  0  0  0  0  0  0  0
   10.8520   12.8177   23.1078 O   0  0  0  0  0  0  0  0  0  0  0  0
    9.1515   12.8191   25.2310 H   0  0  0  0  0  0  0  0  0  0  0  0
    9.9230   11.2603   25.6350 H   0  0  0  0  0  0  0  0  0  0  0  0
    6.8946   11.3868   22.9155 H   0  0  0  0  0  0  0  0  0  0  0  0
    7.4496   12.8903   23.7029 H   0  0  0  0  0  0  0  0  0  0  0  0
    8.5696    9.3396   22.6530 H   0  0  0  0  0  0  0  0  0  0  0  0
    9.9108    9.2833   23.8582 H   0  0  0  0  0  0  0  0  0  0  0  0
    7.0471   11.1754   25.7845 H   0  0  0  0  0  0  0  0  0  0  0  0
   10.4530   13.5403   20.5494 H   0  0  0  0  0  0  0  0  0  0  0  0
   10.3508   14.9691   21.6029 H   0  0  0  0  0  0  0  0  0  0  0  0
   11.7244   14.7487   20.4972 H   0  0  0  0  0  0  0  0  0  0  0  0
   13.1560   13.8960   23.8992 H   0  0  0  0  0  0  0  0  0  0  0  0
   11.9461   15.1402   23.6402 H   0  0  0  0  0  0  0  0  0  0  0  0
   13.3231   15.0096   22.5237 H   0  0  0  0  0  0  0  0  0  0  0  0
   13.2582   11.8663   22.4159 H   0  0  0  0  0  0  0  0  0  0  0  0
   12.1424   11.6873   21.0446 H   0  0  0  0  0  0  0  0  0  0  0  0
   13.4655   12.8743   20.9942 H   0  0  0  0  0  0  0  0  0  0  0  0
  1  6  1  1  0  0  0
  1 11  2  0  0  0  0
  1 13  1  0  0  0  0
  2  5  1  6  0  0  0
  2  6  1  0  0  0  0
  3  5  1  0  0  0  0
  3  6  1  0  0  0  0
  4  6  1  0  0  0  0
  4 12  1  0  0  0  0
  5 12  1  0  0  0  0
  7 10  1  0  0  0  0
  8 10  1  0  0  0  0
  9 10  1  0  0  0  0
 10 13  1  0  0  0  0
  2 14  1  0  0  0  0
  2 15  1  0  0  0  0
  3 16  1  0  0  0  0
  3 17  1  0  0  0  0
  4 18  1  0  0  0  0
  4 19  1  0  0  0  0
  5 20  1  0  0  0  0
  7 21  1  0  0  0  0
  7 22  1  0  0  0  0
  7 23  1  0  0  0  0
  8 24  1  0  0  0  0
  8 25  1  0  0  0  0
  8 26  1  0  0  0  0
  9 27  1  0  0  0  0
  9 28  1  0  0  0  0
  9 29  1  0  0  0  0
M  END
> <id>
EN300-37375417

> <smiles>
CC(C)(C)OC(=O)[C@]1(C[C@H]2C1)CO2

> <IUPAC Name>
tert-butyl (1r,4r)-2-oxabicyclo[2.1.1]hexane-4-carboxylate

> <CAS>
2648962-05-2

> <URL>
https://www.enaminestore.com/catalog/EN300-37375417

> <ROCS_ShapeQuery>
x0812_0A_x1140_0A_x1097_0A_x0365_0A_x1097_0A_x0310_0A

> <ROCS_TanimotoCombo>
0.699 

> <ROCS_ShapeTanimoto>
0.210 

> <ROCS_ColorTanimoto>
0.489 

> <ROCS_RefTversky>
0.192 

> <ROCS_RefColorTversky>
0.550 

> <ROCS_RefTverskyCombo>
0.743 

> <ROCS_FitTversky>
1.807 

> <ROCS_FitColorTversky>
0.814 

> <ROCS_FitTverskyCombo>
2.621 

> <ROCS_ColorScore>
-8.181

> <ROCS_Overlap>
1945.097

> <ROCS_Rank>
374                 

$$$$
untitled-dbase-163931_0
  -OEChem-02092408543D

 29 30  0     0  0  0  0  0  0999 V2000
    6.6131   12.9165   25.3449 C   0  0  0  0  0  0  0  0  0  0  0  0
    6.8245   10.9878   23.7672 C   0  0  0  0  0  0  0  0  0  0  0  0
    8.6940   12.6361   24.0110 C   0  0  0  0  0  0  0  0  0  0  0  0
    8.1815   11.0421   25.8731 C   0  0  0  0  0  0  0  0  0  0  0  0
    7.8020    9.9710   23.1642 C   0  0  0  0  0  0  0  0  0  0  0  0
    9.6694   11.6154   23.4108 C   0  0  0  0  0  0  0  0  0  0  0  0
    9.1558   10.0230   25.2688 C   0  0  0  0  0  0  0  0  0  0  0  0
    7.5600   11.9096   24.7603 C   0  0  0  0  0  0  0  0  0  0  0  0
    9.2122   10.1847   23.7402 C   0  0  0  0  0  0  0  0  0  0  0  0
    4.6296   13.1156   26.6136 C   0  0  0  0  0  0  0  0  0  0  0  0
    6.7458   14.1277   25.2326 O   0  0  0  0  0  0  0  0  0  0  0  0
   10.1036    9.2380   23.1745 O   0  0  0  0  0  0  0  0  0  0  0  0
    5.6096   12.2698   26.0035 O   0  0  0  0  0  0  0  0  0  0  0  0
    6.3606   11.5746   22.9639 H   0  0  0  0  0  0  0  0  0  0  0  0
    6.0025   10.4605   24.2680 H   0  0  0  0  0  0  0  0  0  0  0  0
    9.2337   13.3114   24.6875 H   0  0  0  0  0  0  0  0  0  0  0  0
    8.2855   13.2711   23.2142 H   0  0  0  0  0  0  0  0  0  0  0  0
    7.3984   10.5182   26.4359 H   0  0  0  0  0  0  0  0  0  0  0  0
    8.7096   11.6684   26.6034 H   0  0  0  0  0  0  0  0  0  0  0  0
    7.4586    8.9483   23.3653 H   0  0  0  0  0  0  0  0  0  0  0  0
    7.8180   10.0618   22.0707 H   0  0  0  0  0  0  0  0  0  0  0  0
    9.7416   11.7525   22.3243 H   0  0  0  0  0  0  0  0  0  0  0  0
   10.6832   11.7909   23.7926 H   0  0  0  0  0  0  0  0  0  0  0  0
   10.1549   10.1491   25.7047 H   0  0  0  0  0  0  0  0  0  0  0  0
    8.8508    9.0023   25.5324 H   0  0  0  0  0  0  0  0  0  0  0  0
    3.8757   12.5008   27.1113 H   0  0  0  0  0  0  0  0  0  0  0  0
    4.1596   13.7401   25.8497 H   0  0  0  0  0  0  0  0  0  0  0  0
    5.1210   13.7540   27.3517 H   0  0  0  0  0  0  0  0  0  0  0  0
   10.9787    9.4058   23.5622 H   0  0  0  0  0  0  0  0  0  0  0  0
  1  8  1  0  0  0  0
  1 11  2  0  0  0  0
  1 13  1  0  0  0  0
  2  5  1  0  0  0  0
  2  8  1  0  0  0  0
  3  6  1  0  0  0  0
  3  8  1  0  0  0  0
  4  7  1  0  0  0  0
  4  8  1  0  0  0  0
  5  9  1  0  0  0  0
  6  9  1  0  0  0  0
  7  9  1  0  0  0  0
  9 12  1  0  0  0  0
 10 13  1  0  0  0  0
  2 14  1  0  0  0  0
  2 15  1  0  0  0  0
  3 16  1  0  0  0  0
  3 17  1  0  0  0  0
  4 18  1  0  0  0  0
  4 19  1  0  0  0  0
  5 20  1  0  0  0  0
  5 21  1  0  0  0  0
  6 22  1  0  0  0  0
  6 23  1  0  0  0  0
  7 24  1  0  0  0  0
  7 25  1  0  0  0  0
 10 26  1  0  0  0  0
 10 27  1  0  0  0  0
 10 28  1  0  0  0  0
 12 29  1  0  0  0  0
M  END
> <id>
EN300-107122

> <smiles>
COC(=O)C1(CCC2(O)CC1)CC2

> <MDLNUMBER>
MFCD22689519

> <IUPAC Name>
methyl 4-hydroxybicyclo[2.2.2]octane-1-carboxylate

> <CAS>
23062-53-5

> <Purity>
95

> <URL>
https://www.enaminestore.com/catalog/EN300-107122

> <MP>
72-74

> <ROCS_ShapeQuery>
x0812_0A_x1140_0A_x1097_0A_x0365_0A_x1097_0A_x0310_0A

> <ROCS_TanimotoCombo>
0.699 

> <ROCS_ShapeTanimoto>
0.218 

> <ROCS_ColorTanimoto>
0.481 

> <ROCS_RefTversky>
0.198 

> <ROCS_RefColorTversky>
0.528 

> <ROCS_RefTverskyCombo>
0.726 

> <ROCS_FitTversky>
1.863 

> <ROCS_FitColorTversky>
0.843 

> <ROCS_FitTverskyCombo>
2.705 

> <ROCS_ColorScore>
-7.837

> <ROCS_Overlap>
2001.661

> <ROCS_Rank>
375                 

$$$$
untitled-dbase-87905_1
  -OEChem-02092408543D

 32 33  0     1  0  0  0  0  0999 V2000
    8.7946   11.8325   25.1951 C   0  0  0  0  0  0  0  0  0  0  0  0
    7.7052   11.7341   23.4084 C   0  0  0  0  0  0  0  0  0  0  0  0
    9.2421    9.8553   23.8026 C   0  0  0  0  0  0  0  0  0  0  0  0
    9.2070   11.3981   23.7393 C   0  0  0  0  0  0  0  0  0  0  0  0
    7.5495   10.9580   24.7741 C   0  0  0  0  0  0  0  0  0  0  0  0
    5.6998   11.7478   29.1525 C   0  0  0  0  0  0  0  0  0  0  0  0
    6.8460    9.7170   27.4987 C   0  0  0  0  0  0  0  0  0  0  0  0
   10.3323   12.0735   23.0152 C   0  0  0  0  0  0  0  0  0  0  0  0
    6.2692   11.0008   25.5516 C   0  0  0  0  0  0  0  0  0  0  0  0
    5.3878   11.6159   27.7006 C   0  0  0  0  0  0  0  0  0  0  0  0
    6.5289   11.0507   26.9611 N   0  0  1  0  0  0  0  0  0  0  0  0
    8.0393    9.6071   24.5499 O   0  0  0  0  0  0  0  0  0  0  0  0
   10.2129   11.8319   21.6163 O   0  0  0  0  0  0  0  0  0  0  0  0
    9.4072   11.4341   26.0091 H   0  0  0  0  0  0  0  0  0  0  0  0
    8.6180   12.9007   25.3629 H   0  0  0  0  0  0  0  0  0  0  0  0
    7.4229   12.7927   23.4026 H   0  0  0  0  0  0  0  0  0  0  0  0
    7.2841   11.2420   22.5269 H   0  0  0  0  0  0  0  0  0  0  0  0
    9.1679    9.3897   22.8157 H   0  0  0  0  0  0  0  0  0  0  0  0
   10.1063    9.4741   24.3541 H   0  0  0  0  0  0  0  0  0  0  0  0
    6.5693   12.4088   29.2826 H   0  0  0  0  0  0  0  0  0  0  0  0
    4.8324   12.1757   29.6764 H   0  0  0  0  0  0  0  0  0  0  0  0
    5.9276   10.7559   29.5700 H   0  0  0  0  0  0  0  0  0  0  0  0
    7.0390    9.7929   28.5790 H   0  0  0  0  0  0  0  0  0  0  0  0
    5.9965    9.0402   27.3248 H   0  0  0  0  0  0  0  0  0  0  0  0
    7.7395    9.3212   26.9937 H   0  0  0  0  0  0  0  0  0  0  0  0
   11.3074   11.6890   23.3469 H   0  0  0  0  0  0  0  0  0  0  0  0
   10.3155   13.1607   23.1775 H   0  0  0  0  0  0  0  0  0  0  0  0
    5.7065   11.8946   25.2530 H   0  0  0  0  0  0  0  0  0  0  0  0
    5.6871   10.0996   25.3200 H   0  0  0  0  0  0  0  0  0  0  0  0
    4.5177   10.9539   27.5791 H   0  0  0  0  0  0  0  0  0  0  0  0
    5.1521   12.6098   27.2923 H   0  0  0  0  0  0  0  0  0  0  0  0
   10.9581   12.2856   21.1925 H   0  0  0  0  0  0  0  0  0  0  0  0
  1  4  1  0  0  0  0
  1  5  1  0  0  0  0
  2  4  1  0  0  0  0
  2  5  1  0  0  0  0
  3  4  1  0  0  0  0
  3 12  1  0  0  0  0
  4  8  1  0  0  0  0
  5  9  1  0  0  0  0
  5 12  1  0  0  0  0
  6 10  1  0  0  0  0
  7 11  1  0  0  0  0
  8 13  1  0  0  0  0
  9 11  1  0  0  0  0
 10 11  1  0  0  0  0
  1 14  1  0  0  0  0
  1 15  1  0  0  0  0
  2 16  1  0  0  0  0
  2 17  1  0  0  0  0
  3 18  1  0  0  0  0
  3 19  1  0  0  0  0
  6 20  1  0  0  0  0
  6 21  1  0  0  0  0
  6 22  1  0  0  0  0
  7 23  1  0  0  0  0
  7 24  1  0  0  0  0
  7 25  1  0  0  0  0
  8 26  1  0  0  0  0
  8 27  1  0  0  0  0
  9 28  1  0  0  0  0
  9 29  1  0  0  0  0
 10 30  1  0  0  0  0
 10 31  1  0  0  0  0
 13 32  1  0  0  0  0
M  END
> <id>
EN300-694477

> <smiles>
CCN(C)CC1(CC2(CO)C1)OC2

> <MDLNUMBER>
MFCD31430341

> <IUPAC Name>
(1-{[ethyl(methyl)amino]methyl}-2-oxabicyclo[2.1.1]hexan-4-yl)methanol

> <CAS>
2137812-10-1

> <URL>
https://www.enaminestore.com/catalog/EN300-694477

> <ROCS_ShapeQuery>
x0812_0A_x1140_0A_x1097_0A_x0365_0A_x1097_0A_x0310_0A

> <ROCS_TanimotoCombo>
0.699 

> <ROCS_ShapeTanimoto>
0.217 

> <ROCS_ColorTanimoto>
0.482 

> <ROCS_RefTversky>
0.197 

> <ROCS_RefColorTversky>
0.565 

> <ROCS_RefTverskyCombo>
0.762 

> <ROCS_FitTversky>
1.876 

> <ROCS_FitColorTversky>
0.767 

> <ROCS_FitTverskyCombo>
2.642 

> <ROCS_ColorScore>
-8.429

> <ROCS_Overlap>
1990.651

> <ROCS_Rank>
376                 

$$$$
untitled-dbase-473124_2
  -OEChem-02092408543D

 37 38  0     1  0  0  0  0  0999 V2000
    9.9067   13.4209   24.2054 C   0  0  0  0  0  0  0  0  0  0  0  0
    7.1153   11.1186   24.5540 C   0  0  0  0  0  0  0  0  0  0  0  0
    9.2056   10.2839   25.3363 C   0  0  0  0  0  0  0  0  0  0  0  0
    8.6056   11.7680   22.8419 C   0  0  0  0  0  0  0  0  0  0  0  0
    7.8457   10.5224   23.3418 C   0  0  1  0  0  0  0  0  0  0  0  0
    8.4144   11.6016   25.2022 C   0  0  1  0  0  0  0  0  0  0  0  0
    8.8335    9.5337   24.0287 C   0  0  2  0  0  0  0  0  0  0  0  0
    8.2130    8.1660   24.3067 C   0  0  0  0  0  0  0  0  0  0  0  0
   12.3195   12.6181   23.5766 C   0  0  0  0  0  0  0  0  0  0  0  0
   11.9717   13.5330   21.2633 C   0  0  0  0  0  0  0  0  0  0  0  0
   12.3786   15.1030   23.1811 C   0  0  0  0  0  0  0  0  0  0  0  0
   11.7533   13.7754   22.7552 C   0  0  0  0  0  0  0  0  0  0  0  0
    9.0245   12.3655   24.1046 N   0  0  0  0  0  0  0  0  0  0  0  0
   10.2598   13.9245   25.2692 O   0  0  0  0  0  0  0  0  0  0  0  0
    9.9990    9.3324   23.2383 O   0  0  0  0  0  0  0  0  0  0  0  0
   10.3405   13.8444   22.9787 O   0  0  0  0  0  0  0  0  0  0  0  0
    6.4385   11.9382   24.2886 H   0  0  0  0  0  0  0  0  0  0  0  0
    6.5735   10.3841   25.1567 H   0  0  0  0  0  0  0  0  0  0  0  0
   10.2816   10.4608   25.4399 H   0  0  0  0  0  0  0  0  0  0  0  0
    8.8580    9.7397   26.2222 H   0  0  0  0  0  0  0  0  0  0  0  0
    9.4694   11.5596   22.2050 H   0  0  0  0  0  0  0  0  0  0  0  0
    7.9452   12.4769   22.3309 H   0  0  0  0  0  0  0  0  0  0  0  0
    7.2081   10.0706   22.5790 H   0  0  0  0  0  0  0  0  0  0  0  0
    8.3167   12.1713   26.1278 H   0  0  0  0  0  0  0  0  0  0  0  0
    7.9674    7.6743   23.3669 H   0  0  0  0  0  0  0  0  0  0  0  0
    7.3046    8.2857   24.8948 H   0  0  0  0  0  0  0  0  0  0  0  0
    8.9173    7.5469   24.8599 H   0  0  0  0  0  0  0  0  0  0  0  0
   12.1647   12.7883   24.6480 H   0  0  0  0  0  0  0  0  0  0  0  0
   11.8540   11.6650   23.3051 H   0  0  0  0  0  0  0  0  0  0  0  0
   13.4022   12.5283   23.4311 H   0  0  0  0  0  0  0  0  0  0  0  0
   11.5669   14.3609   20.6701 H   0  0  0  0  0  0  0  0  0  0  0  0
   11.4448   12.6304   20.9333 H   0  0  0  0  0  0  0  0  0  0  0  0
   13.0341   13.4216   21.0234 H   0  0  0  0  0  0  0  0  0  0  0  0
   11.9725   15.9333   22.5920 H   0  0  0  0  0  0  0  0  0  0  0  0
   12.1999   15.3113   24.2409 H   0  0  0  0  0  0  0  0  0  0  0  0
   13.4603   15.0986   23.0046 H   0  0  0  0  0  0  0  0  0  0  0  0
   10.6113    8.8033   23.7740 H   0  0  0  0  0  0  0  0  0  0  0  0
  1 13  1  0  0  0  0
  1 14  2  0  0  0  0
  1 16  1  0  0  0  0
  2  5  1  1  0  0  0
  2  6  1  1  0  0  0
  3  6  1  0  0  0  0
  3  7  1  0  0  0  0
  4  5  1  0  0  0  0
  4 13  1  0  0  0  0
  5  7  1  0  0  0  0
  6 13  1  0  0  0  0
  7  8  1  1  0  0  0
  7 15  1  6  0  0  0
  9 12  1  0  0  0  0
 10 12  1  0  0  0  0
 11 12  1  0  0  0  0
 12 16  1  0  0  0  0
  2 17  1  0  0  0  0
  2 18  1  0  0  0  0
  3 19  1  0  0  0  0
  3 20  1  0  0  0  0
  4 21  1  0  0  0  0
  4 22  1  0  0  0  0
  5 23  1  0  0  0  0
  6 24  1  0  0  0  0
  8 25  1  0  0  0  0
  8 26  1  0  0  0  0
  8 27  1  0  0  0  0
  9 28  1  0  0  0  0
  9 29  1  0  0  0  0
  9 30  1  0  0  0  0
 10 31  1  0  0  0  0
 10 32  1  0  0  0  0
 10 33  1  0  0  0  0
 11 34  1  0  0  0  0
 11 35  1  0  0  0  0
 11 36  1  0  0  0  0
 15 37  1  0  0  0  0
M  END
> <id>
EN300-27718635

> <smiles>
CC(C)(C)OC(=O)N1C[C@@H]2C[C@H]1C[C@]2(C)O |&1:9,11,13,r|

> <IUPAC Name>
rac-tert-butyl (1R,4R,5R)-5-hydroxy-5-methyl-2-azabicyclo[2.2.1]heptane-2-carboxylate

> <CAS>
2416821-06-0

> <URL>
https://www.enaminestore.com/catalog/EN300-27718635

> <ROCS_ShapeQuery>
x0812_0A_x1140_0A_x1097_0A_x0365_0A_x1097_0A_x0310_0A

> <ROCS_TanimotoCombo>
0.699 

> <ROCS_ShapeTanimoto>
0.227 

> <ROCS_ColorTanimoto>
0.472 

> <ROCS_RefTversky>
0.207 

> <ROCS_RefColorTversky>
0.548 

> <ROCS_RefTverskyCombo>
0.756 

> <ROCS_FitTversky>
1.735 

> <ROCS_FitColorTversky>
0.771 

> <ROCS_FitTverskyCombo>
2.506 

> <ROCS_ColorScore>
-8.168

> <ROCS_Overlap>
2097.228

> <ROCS_Rank>
377                 

$$$$
untitled-dbase-510482_3
  -OEChem-02092408543D

 32 34  0     0  0  0  0  0  0999 V2000
    9.9642   12.0433   22.4705 C   0  0  0  0  0  0  0  0  0  0  0  0
    8.9328   11.9943   24.9516 C   0  0  0  0  0  0  0  0  0  0  0  0
    7.4940   11.6785   23.4628 C   0  0  0  0  0  0  0  0  0  0  0  0
    9.0105    8.9564   22.5750 C   0  0  0  0  0  0  0  0  0  0  0  0
   10.4488    9.2720   24.0624 C   0  0  0  0  0  0  0  0  0  0  0  0
    9.0492   11.3922   23.4936 C   0  0  0  0  0  0  0  0  0  0  0  0
    9.0554    9.8563   23.8133 C   0  0  0  0  0  0  0  0  0  0  0  0
    7.6388   11.0851   24.9219 C   0  0  0  0  0  0  0  0  0  0  0  0
   12.0728   14.9973   22.9365 C   0  0  0  0  0  0  0  0  0  0  0  0
    6.5473   11.3030   25.9303 C   0  0  0  0  0  0  0  0  0  0  0  0
   11.4759   13.8349   22.1721 C   0  0  0  0  0  0  0  0  0  0  0  0
   10.4751    8.8110   22.6621 N   0  0  0  0  0  0  0  0  0  0  0  0
   10.1088   11.6387   21.3249 O   0  0  0  0  0  0  0  0  0  0  0  0
    8.0398    9.6788   24.8328 O   0  0  0  0  0  0  0  0  0  0  0  0
   10.5790   13.1236   23.0310 O   0  0  0  0  0  0  0  0  0  0  0  0
    4.7085   10.4227   25.2872 I   0  0  0  0  0  0  0  0  0  0  0  0
    9.7062   11.6948   25.6651 H   0  0  0  0  0  0  0  0  0  0  0  0
    8.7774   13.0767   25.0245 H   0  0  0  0  0  0  0  0  0  0  0  0
    7.1898   12.7283   23.3819 H   0  0  0  0  0  0  0  0  0  0  0  0
    6.9023   11.0795   22.7643 H   0  0  0  0  0  0  0  0  0  0  0  0
    8.4656    8.0174   22.7278 H   0  0  0  0  0  0  0  0  0  0  0  0
    8.6581    9.4128   21.6455 H   0  0  0  0  0  0  0  0  0  0  0  0
   11.2427    9.9798   24.3181 H   0  0  0  0  0  0  0  0  0  0  0  0
   10.4640    8.4558   24.7943 H   0  0  0  0  0  0  0  0  0  0  0  0
   11.2921   15.6854   23.2726 H   0  0  0  0  0  0  0  0  0  0  0  0
   12.6292   14.6403   23.8093 H   0  0  0  0  0  0  0  0  0  0  0  0
   12.7826   15.5474   22.3097 H   0  0  0  0  0  0  0  0  0  0  0  0
    6.3914   12.3798   26.0993 H   0  0  0  0  0  0  0  0  0  0  0  0
    6.8324   10.8726   26.9029 H   0  0  0  0  0  0  0  0  0  0  0  0
   12.2618   13.1506   21.8388 H   0  0  0  0  0  0  0  0  0  0  0  0
   10.9196   14.1934   21.3008 H   0  0  0  0  0  0  0  0  0  0  0  0
   10.8207    7.8622   22.5292 H   0  0  0  0  0  0  0  0  0  0  0  0
  1  6  1  0  0  0  0
  1 13  2  0  0  0  0
  1 15  1  0  0  0  0
  2  6  1  0  0  0  0
  2  8  1  0  0  0  0
  3  6  1  0  0  0  0
  3  8  1  0  0  0  0
  4  7  1  0  0  0  0
  4 12  1  0  0  0  0
  5  7  1  0  0  0  0
  5 12  1  0  0  0  0
  6  7  1  0  0  0  0
  7 14  1  0  0  0  0
  8 10  1  0  0  0  0
  8 14  1  0  0  0  0
  9 11  1  0  0  0  0
 10 16  1  0  0  0  0
 11 15  1  0  0  0  0
  2 17  1  0  0  0  0
  2 18  1  0  0  0  0
  3 19  1  0  0  0  0
  3 20  1  0  0  0  0
  4 21  1  0  0  0  0
  4 22  1  0  0  0  0
  5 23  1  0  0  0  0
  5 24  1  0  0  0  0
  9 25  1  0  0  0  0
  9 26  1  0  0  0  0
  9 27  1  0  0  0  0
 10 28  1  0  0  0  0
 10 29  1  0  0  0  0
 11 30  1  0  0  0  0
 11 31  1  0  0  0  0
 12 32  1  0  0  0  0
M  END
> <id>
EN300-28296517

> <smiles>
CCOC(=O)C1(CC2(CI)C1)C3(CNC3)O2

> <IUPAC Name>
ethyl 4'-(iodomethyl)-3'-oxaspiro[azetidine-3,2'-bicyclo[2.1.1]hexane]-1'-carboxylate

> <CAS>
2680753-99-3

> <URL>
https://www.enaminestore.com/catalog/EN300-28296517

> <ROCS_ShapeQuery>
x0812_0A_x1140_0A_x1097_0A_x0365_0A_x1097_0A_x0310_0A

> <ROCS_TanimotoCombo>
0.699 

> <ROCS_ShapeTanimoto>
0.268 

> <ROCS_ColorTanimoto>
0.431 

> <ROCS_RefTversky>
0.236 

> <ROCS_RefColorTversky>
0.560 

> <ROCS_RefTverskyCombo>
0.796 

> <ROCS_FitTversky>
1.999 

> <ROCS_FitColorTversky>
0.651 

> <ROCS_FitTverskyCombo>
2.651 

> <ROCS_ColorScore>
-8.408

> <ROCS_Overlap>
2391.397

> <ROCS_Rank>
378                 

$$$$
untitled-dbase-86203_1
  -OEChem-02092408543D

 29 30  0     0  0  0  0  0  0999 V2000
    8.8011   11.8304   25.1955 C   0  0  0  0  0  0  0  0  0  0  0  0
    7.7063   11.7367   23.4119 C   0  0  0  0  0  0  0  0  0  0  0  0
    9.2394    9.8535   23.7998 C   0  0  0  0  0  0  0  0  0  0  0  0
    9.2081   11.3964   23.7381 C   0  0  0  0  0  0  0  0  0  0  0  0
    7.5525   10.9596   24.7773 C   0  0  0  0  0  0  0  0  0  0  0  0
    6.8537    9.7176   27.5026 C   0  0  0  0  0  0  0  0  0  0  0  0
    5.4006   11.6196   27.7104 C   0  0  0  0  0  0  0  0  0  0  0  0
   10.3331   12.0695   23.0114 C   0  0  0  0  0  0  0  0  0  0  0  0
    6.2746   11.0050   25.5584 C   0  0  0  0  0  0  0  0  0  0  0  0
    6.5385   11.0528   26.9673 N   0  0  0  0  0  0  0  0  0  0  0  0
    8.0381    9.6076   24.5503 O   0  0  0  0  0  0  0  0  0  0  0  0
   10.2090   11.8298   21.6126 O   0  0  0  0  0  0  0  0  0  0  0  0
    9.4150   11.4296   26.0073 H   0  0  0  0  0  0  0  0  0  0  0  0
    8.6279   12.8989   25.3649 H   0  0  0  0  0  0  0  0  0  0  0  0
    7.4267   12.7960   23.4080 H   0  0  0  0  0  0  0  0  0  0  0  0
    7.2813   11.2466   22.5311 H   0  0  0  0  0  0  0  0  0  0  0  0
    9.1611    9.3890   22.8126 H   0  0  0  0  0  0  0  0  0  0  0  0
   10.1042    9.4694   24.3484 H   0  0  0  0  0  0  0  0  0  0  0  0
    7.7035    9.2914   26.9493 H   0  0  0  0  0  0  0  0  0  0  0  0
    7.1151    9.8021   28.5677 H   0  0  0  0  0  0  0  0  0  0  0  0
    5.9777    9.0618   27.3909 H   0  0  0  0  0  0  0  0  0  0  0  0
    5.1627   12.6173   27.3127 H   0  0  0  0  0  0  0  0  0  0  0  0
    4.5257   10.9623   27.5986 H   0  0  0  0  0  0  0  0  0  0  0  0
    5.6631   11.7026   28.7754 H   0  0  0  0  0  0  0  0  0  0  0  0
   11.3082   11.6823   23.3399 H   0  0  0  0  0  0  0  0  0  0  0  0
   10.3196   13.1566   23.1749 H   0  0  0  0  0  0  0  0  0  0  0  0
    5.7133   11.9005   25.2624 H   0  0  0  0  0  0  0  0  0  0  0  0
    5.6895   10.1055   25.3277 H   0  0  0  0  0  0  0  0  0  0  0  0
   10.9542   12.2819   21.1871 H   0  0  0  0  0  0  0  0  0  0  0  0
  1  4  1  0  0  0  0
  1  5  1  0  0  0  0
  2  4  1  0  0  0  0
  2  5  1  0  0  0  0
  3  4  1  0  0  0  0
  3 11  1  0  0  0  0
  4  8  1  0  0  0  0
  5  9  1  0  0  0  0
  5 11  1  0  0  0  0
  6 10  1  0  0  0  0
  7 10  1  0  0  0  0
  8 12  1  0  0  0  0
  9 10  1  0  0  0  0
  1 13  1  0  0  0  0
  1 14  1  0  0  0  0
  2 15  1  0  0  0  0
  2 16  1  0  0  0  0
  3 17  1  0  0  0  0
  3 18  1  0  0  0  0
  6 19  1  0  0  0  0
  6 20  1  0  0  0  0
  6 21  1  0  0  0  0
  7 22  1  0  0  0  0
  7 23  1  0  0  0  0
  7 24  1  0  0  0  0
  8 25  1  0  0  0  0
  8 26  1  0  0  0  0
  9 27  1  0  0  0  0
  9 28  1  0  0  0  0
 12 29  1  0  0  0  0
M  END
> <id>
EN300-694467

> <smiles>
CN(C)CC1(CC2(CO)C1)OC2

> <MDLNUMBER>
MFCD31430334

> <IUPAC Name>
{1-[(dimethylamino)methyl]-2-oxabicyclo[2.1.1]hexan-4-yl}methanol

> <CAS>
2137852-35-6

> <URL>
https://www.enaminestore.com/catalog/EN300-694467

> <ROCS_ShapeQuery>
x0812_0A_x1140_0A_x1097_0A_x0365_0A_x1097_0A_x0310_0A

> <ROCS_TanimotoCombo>
0.699 

> <ROCS_ShapeTanimoto>
0.217 

> <ROCS_ColorTanimoto>
0.482 

> <ROCS_RefTversky>
0.196 

> <ROCS_RefColorTversky>
0.565 

> <ROCS_RefTverskyCombo>
0.761 

> <ROCS_FitTversky>
1.938 

> <ROCS_FitColorTversky>
0.767 

> <ROCS_FitTverskyCombo>
2.705 

> <ROCS_ColorScore>
-8.430

> <ROCS_Overlap>
1981.960

> <ROCS_Rank>
379                 

$$$$
untitled-dbase-479550_7
  -OEChem-02092408543D

 21 22  0     0  0  0  0  0  0999 V2000
    9.2833   11.7059   25.0179 C   0  0  0  0  0  0  0  0  0  0  0  0
    7.6512   11.9373   23.7251 C   0  0  0  0  0  0  0  0  0  0  0  0
    8.9900    9.9057   23.3682 C   0  0  0  0  0  0  0  0  0  0  0  0
    9.1237   11.4406   23.4745 C   0  0  0  0  0  0  0  0  0  0  0  0
    7.8726   10.9987   24.9749 C   0  0  0  0  0  0  0  0  0  0  0  0
   10.0117   12.1155   22.4731 C   0  0  0  0  0  0  0  0  0  0  0  0
    6.9455   11.0384   26.1513 C   0  0  0  0  0  0  0  0  0  0  0  0
    8.0895    9.6557   24.4607 O   0  0  0  0  0  0  0  0  0  0  0  0
    5.9871    9.9900   26.0400 O   0  0  0  0  0  0  0  0  0  0  0  0
    9.8470   13.4653   22.5644 F   0  0  0  0  0  0  0  0  0  0  0  0
   10.0815   11.1535   25.5222 H   0  0  0  0  0  0  0  0  0  0  0  0
    9.3054   12.7523   25.3419 H   0  0  0  0  0  0  0  0  0  0  0  0
    7.5147   13.0061   23.9234 H   0  0  0  0  0  0  0  0  0  0  0  0
    6.9005   11.6041   23.0026 H   0  0  0  0  0  0  0  0  0  0  0  0
    8.5308    9.5851   22.4288 H   0  0  0  0  0  0  0  0  0  0  0  0
    9.9364    9.3855   23.5417 H   0  0  0  0  0  0  0  0  0  0  0  0
    9.7661   11.8198   21.4451 H   0  0  0  0  0  0  0  0  0  0  0  0
   11.0717   11.8973   22.6557 H   0  0  0  0  0  0  0  0  0  0  0  0
    6.4031   11.9936   26.2001 H   0  0  0  0  0  0  0  0  0  0  0  0
    7.4924   10.9028   27.0956 H   0  0  0  0  0  0  0  0  0  0  0  0
    5.4131   10.0561   26.8190 H   0  0  0  0  0  0  0  0  0  0  0  0
  1  4  1  0  0  0  0
  1  5  1  0  0  0  0
  2  4  1  0  0  0  0
  2  5  1  0  0  0  0
  3  4  1  0  0  0  0
  3  8  1  0  0  0  0
  4  6  1  0  0  0  0
  5  7  1  0  0  0  0
  5  8  1  0  0  0  0
  6 10  1  0  0  0  0
  7  9  1  0  0  0  0
  1 11  1  0  0  0  0
  1 12  1  0  0  0  0
  2 13  1  0  0  0  0
  2 14  1  0  0  0  0
  3 15  1  0  0  0  0
  3 16  1  0  0  0  0
  6 17  1  0  0  0  0
  6 18  1  0  0  0  0
  7 19  1  0  0  0  0
  7 20  1  0  0  0  0
  9 21  1  0  0  0  0
M  END
> <id>
EN300-27719457

> <smiles>
OCC1(CC2(CF)C1)OC2

> <MDLNUMBER>
MFCD33020491

> <IUPAC Name>
[4-(fluoromethyl)-2-oxabicyclo[2.1.1]hexan-1-yl]methanol

> <CAS>
2580210-98-4

> <Purity>
95

> <URL>
https://www.enaminestore.com/catalog/EN300-27719457

> <ROCS_ShapeQuery>
x0812_0A_x1140_0A_x1097_0A_x0365_0A_x1097_0A_x0310_0A

> <ROCS_TanimotoCombo>
0.699 

> <ROCS_ShapeTanimoto>
0.204 

> <ROCS_ColorTanimoto>
0.494 

> <ROCS_RefTversky>
0.186 

> <ROCS_RefColorTversky>
0.554 

> <ROCS_RefTverskyCombo>
0.740 

> <ROCS_FitTversky>
1.985 

> <ROCS_FitColorTversky>
0.820 

> <ROCS_FitTverskyCombo>
2.806 

> <ROCS_ColorScore>
-8.242

> <ROCS_Overlap>
1874.539

> <ROCS_Rank>
380                 

$$$$
untitled-dbase-356653_1
  -OEChem-02092408543D

 44 47  0     1  0  0  0  0  0999 V2000
   12.4613   15.1936   22.8030 C   0  0  0  0  0  0  0  0  0  0  0  0
   10.5688   12.5223   22.6979 C   0  0  0  0  0  0  0  0  0  0  0  0
   14.6441   13.1876   22.1534 C   0  0  0  0  0  0  0  0  0  0  0  0
   13.2029   13.0542   21.6120 C   0  0  0  0  0  0  0  0  0  0  0  0
   14.0374   13.3328   23.5673 C   0  0  0  0  0  0  0  0  0  0  0  0
    7.9366    9.3281   23.9391 C   0  0  0  0  0  0  0  0  0  0  0  0
    8.4214   11.2769   22.4357 C   0  0  0  0  0  0  0  0  0  0  0  0
   10.0912   10.5910   24.1835 C   0  0  0  0  0  0  0  0  0  0  0  0
    6.6523   11.4659   24.2024 C   0  0  0  0  0  0  0  0  0  0  0  0
    8.3184   10.7805   25.9469 C   0  0  0  0  0  0  0  0  0  0  0  0
    8.8035   12.7304   24.4479 C   0  0  0  0  0  0  0  0  0  0  0  0
    7.3123   10.5182   23.1874 C   0  0  2  0  0  0  0  0  0  0  0  0
    8.9907    9.8282   24.9440 C   0  0  1  0  0  0  0  0  0  0  0  0
   12.7227   13.7800   22.8888 C   0  0  0  0  0  0  0  0  0  0  0  0
    9.4813   11.7916   23.4315 C   0  0  0  0  0  0  0  0  0  0  0  0
    7.7032   11.9706   25.1994 C   0  0  0  0  0  0  0  0  0  0  0  0
   11.6415   12.9025   24.9262 C   0  0  0  0  0  0  0  0  0  0  0  0
   12.2508   16.3325   22.7340 N   0  0  0  0  0  0  0  0  0  0  0  0
   11.6032   13.0475   23.4732 N   0  0  0  0  0  0  0  0  0  0  0  0
   10.5026   12.6247   21.4700 O   0  0  0  0  0  0  0  0  0  0  0  0
    7.1119   12.8035   26.0913 F   0  0  0  0  0  0  0  0  0  0  0  0
   15.2442   12.2815   22.0265 H   0  0  0  0  0  0  0  0  0  0  0  0
   15.2079   14.0482   21.7902 H   0  0  0  0  0  0  0  0  0  0  0  0
   13.0425   13.6089   20.6838 H   0  0  0  0  0  0  0  0  0  0  0  0
   12.8575   12.0297   21.4722 H   0  0  0  0  0  0  0  0  0  0  0  0
   13.9994   12.4111   24.1481 H   0  0  0  0  0  0  0  0  0  0  0  0
   14.5283   14.1052   24.1652 H   0  0  0  0  0  0  0  0  0  0  0  0
    7.1547    8.7674   24.4658 H   0  0  0  0  0  0  0  0  0  0  0  0
    8.3994    8.6359   23.2251 H   0  0  0  0  0  0  0  0  0  0  0  0
    8.8842   10.6162   21.6908 H   0  0  0  0  0  0  0  0  0  0  0  0
    7.9871   12.1149   21.8748 H   0  0  0  0  0  0  0  0  0  0  0  0
   10.8623   10.9327   24.8865 H   0  0  0  0  0  0  0  0  0  0  0  0
   10.5955    9.9156   23.4797 H   0  0  0  0  0  0  0  0  0  0  0  0
    6.1849   12.3150   23.6886 H   0  0  0  0  0  0  0  0  0  0  0  0
    5.8437   10.9531   24.7378 H   0  0  0  0  0  0  0  0  0  0  0  0
    7.5425   10.2541   26.5163 H   0  0  0  0  0  0  0  0  0  0  0  0
    9.0467   11.1377   26.6856 H   0  0  0  0  0  0  0  0  0  0  0  0
    9.5347   13.1307   25.1626 H   0  0  0  0  0  0  0  0  0  0  0  0
    8.3772   13.6088   23.9453 H   0  0  0  0  0  0  0  0  0  0  0  0
    6.5626   10.1555   22.4755 H   0  0  0  0  0  0  0  0  0  0  0  0
    9.4293    8.9770   25.4765 H   0  0  0  0  0  0  0  0  0  0  0  0
   12.1782   11.9790   25.1891 H   0  0  0  0  0  0  0  0  0  0  0  0
   12.1606   13.7663   25.3672 H   0  0  0  0  0  0  0  0  0  0  0  0
   10.6144   12.8534   25.3169 H   0  0  0  0  0  0  0  0  0  0  0  0
  1 14  1  0  0  0  0
  1 18  3  0  0  0  0
  2 15  1  0  0  0  0
  2 19  1  0  0  0  0
  2 20  2  0  0  0  0
  3  4  1  0  0  0  0
  3  5  1  0  0  0  0
  4 14  1  0  0  0  0
  5 14  1  0  0  0  0
  6 12  1  0  0  0  0
  6 13  1  0  0  0  0
  7 12  1  0  0  0  0
  7 15  1  0  0  0  0
  8 13  1  0  0  0  0
  8 15  1  0  0  0  0
  9 12  1  0  0  0  0
  9 16  1  0  0  0  0
 10 13  1  0  0  0  0
 10 16  1  0  0  0  0
 11 15  1  0  0  0  0
 11 16  1  0  0  0  0
 14 19  1  0  0  0  0
 16 21  1  0  0  0  0
 17 19  1  0  0  0  0
  3 22  1  0  0  0  0
  3 23  1  0  0  0  0
  4 24  1  0  0  0  0
  4 25  1  0  0  0  0
  5 26  1  0  0  0  0
  5 27  1  0  0  0  0
  6 28  1  0  0  0  0
  6 29  1  0  0  0  0
  7 30  1  0  0  0  0
  7 31  1  0  0  0  0
  8 32  1  0  0  0  0
  8 33  1  0  0  0  0
  9 34  1  0  0  0  0
  9 35  1  0  0  0  0
 10 36  1  0  0  0  0
 10 37  1  0  0  0  0
 11 38  1  0  0  0  0
 11 39  1  0  0  0  0
 12 40  1  0  0  0  0
 13 41  1  0  0  0  0
 17 42  1  0  0  0  0
 17 43  1  0  0  0  0
 17 44  1  0  0  0  0
M  END
> <id>
EN300-26679530

> <smiles>
CN(C(=O)C1(CC2CC3CC(F)(C2)C1)C3)C4(CCC4)C#N

> <IUPAC Name>
N-(1-cyanocyclobutyl)-3-fluoro-N-methyladamantane-1-carboxamide

> <CAS>
2191664-03-4

> <URL>
https://www.enaminestore.com/catalog/EN300-26679530

> <ROCS_ShapeQuery>
x0812_0A_x1140_0A_x1097_0A_x0365_0A_x1097_0A_x0310_0A

> <ROCS_TanimotoCombo>
0.699 

> <ROCS_ShapeTanimoto>
0.269 

> <ROCS_ColorTanimoto>
0.430 

> <ROCS_RefTversky>
0.242 

> <ROCS_RefColorTversky>
0.498 

> <ROCS_RefTverskyCombo>
0.740 

> <ROCS_FitTversky>
1.696 

> <ROCS_FitColorTversky>
0.758 

> <ROCS_FitTverskyCombo>
2.454 

> <ROCS_ColorScore>
-7.399

> <ROCS_Overlap>
2452.217

> <ROCS_Rank>
381                 

$$$$
untitled-dbase-285684_2
  -OEChem-02092408543D

 43 46  0     0  0  0  0  0  0999 V2000
   15.3544   15.9310   24.4770 C   0  0  0  0  0  0  0  0  0  0  0  0
   14.2988   16.5644   23.9530 C   0  0  0  0  0  0  0  0  0  0  0  0
   15.5340   14.5161   24.2943 C   0  0  0  0  0  0  0  0  0  0  0  0
   14.6342   13.8195   23.5916 C   0  0  0  0  0  0  0  0  0  0  0  0
   13.2825   15.8011   23.1661 C   0  0  0  0  0  0  0  0  0  0  0  0
   11.7399   12.7993   23.2261 C   0  0  0  0  0  0  0  0  0  0  0  0
    6.7797   11.5908   24.6281 C   0  0  0  0  0  0  0  0  0  0  0  0
    8.5674   10.2400   25.7545 C   0  0  0  0  0  0  0  0  0  0  0  0
    7.6235    9.4859   23.5569 C   0  0  0  0  0  0  0  0  0  0  0  0
    9.1250   12.4694   24.7515 C   0  0  0  0  0  0  0  0  0  0  0  0
    8.1799   11.7145   22.5517 C   0  0  0  0  0  0  0  0  0  0  0  0
    9.9703   10.3612   23.6794 C   0  0  0  0  0  0  0  0  0  0  0  0
    8.0467   11.6642   25.4969 C   0  0  0  0  0  0  0  0  0  0  0  0
    7.0978   10.9062   23.2881 C   0  0  0  0  0  0  0  0  0  0  0  0
    8.8949    9.5480   24.4204 C   0  0  0  0  0  0  0  0  0  0  0  0
    9.4657   11.7942   23.4044 C   0  0  0  0  0  0  0  0  0  0  0  0
   12.5778   13.6149   22.2749 C   0  0  0  0  0  0  0  0  0  0  0  0
   13.5316   14.4347   23.0363 N   0  0  0  0  0  0  0  0  0  0  0  0
   10.4776   12.5557   22.7057 N   0  0  0  0  0  0  0  0  0  0  0  0
   12.3202   16.4067   22.6969 O   0  0  0  0  0  0  0  0  0  0  0  0
   12.1443   12.4081   24.3178 O   0  0  0  0  0  0  0  0  0  0  0  0
   16.0994   16.4713   25.0502 H   0  0  0  0  0  0  0  0  0  0  0  0
   14.1517   17.6301   24.0818 H   0  0  0  0  0  0  0  0  0  0  0  0
   16.4024   14.0384   24.7320 H   0  0  0  0  0  0  0  0  0  0  0  0
   14.7406   12.7518   23.4355 H   0  0  0  0  0  0  0  0  0  0  0  0
    5.9955   11.0343   25.1558 H   0  0  0  0  0  0  0  0  0  0  0  0
    6.3883   12.5999   24.4498 H   0  0  0  0  0  0  0  0  0  0  0  0
    9.4628   10.2772   26.3872 H   0  0  0  0  0  0  0  0  0  0  0  0
    7.8146    9.6595   26.3019 H   0  0  0  0  0  0  0  0  0  0  0  0
    6.8542    8.8923   24.0661 H   0  0  0  0  0  0  0  0  0  0  0  0
    7.8390    8.9803   22.6077 H   0  0  0  0  0  0  0  0  0  0  0  0
    8.7657   13.4934   24.5850 H   0  0  0  0  0  0  0  0  0  0  0  0
   10.0238   12.5442   25.3774 H   0  0  0  0  0  0  0  0  0  0  0  0
    8.3937   11.2427   21.5837 H   0  0  0  0  0  0  0  0  0  0  0  0
    7.8015   12.7227   22.3382 H   0  0  0  0  0  0  0  0  0  0  0  0
   10.8875   10.3896   24.2818 H   0  0  0  0  0  0  0  0  0  0  0  0
   10.2232    9.8582   22.7368 H   0  0  0  0  0  0  0  0  0  0  0  0
    7.8133   12.1512   26.4502 H   0  0  0  0  0  0  0  0  0  0  0  0
    6.1918   10.8555   22.6740 H   0  0  0  0  0  0  0  0  0  0  0  0
    9.2630    8.5336   24.6101 H   0  0  0  0  0  0  0  0  0  0  0  0
   13.1297   12.9484   21.6056 H   0  0  0  0  0  0  0  0  0  0  0  0
   11.9335   14.2710   21.6822 H   0  0  0  0  0  0  0  0  0  0  0  0
   10.2528   12.9304   21.7892 H   0  0  0  0  0  0  0  0  0  0  0  0
  1  2  2  0  0  0  0
  1  3  1  0  0  0  0
  2  5  1  0  0  0  0
  3  4  2  0  0  0  0
  4 18  1  0  0  0  0
  5 18  1  0  0  0  0
  5 20  2  0  0  0  0
  6 17  1  0  0  0  0
  6 19  1  0  0  0  0
  6 21  2  0  0  0  0
  7 13  1  0  0  0  0
  7 14  1  0  0  0  0
  8 13  1  0  0  0  0
  8 15  1  0  0  0  0
  9 14  1  0  0  0  0
  9 15  1  0  0  0  0
 10 13  1  0  0  0  0
 10 16  1  0  0  0  0
 11 14  1  0  0  0  0
 11 16  1  0  0  0  0
 12 15  1  0  0  0  0
 12 16  1  0  0  0  0
 16 19  1  0  0  0  0
 17 18  1  0  0  0  0
  1 22  1  0  0  0  0
  2 23  1  0  0  0  0
  3 24  1  0  0  0  0
  4 25  1  0  0  0  0
  7 26  1  0  0  0  0
  7 27  1  0  0  0  0
  8 28  1  0  0  0  0
  8 29  1  0  0  0  0
  9 30  1  0  0  0  0
  9 31  1  0  0  0  0
 10 32  1  0  0  0  0
 10 33  1  0  0  0  0
 11 34  1  0  0  0  0
 11 35  1  0  0  0  0
 12 36  1  0  0  0  0
 12 37  1  0  0  0  0
 13 38  1  0  0  0  0
 14 39  1  0  0  0  0
 15 40  1  0  0  0  0
 17 41  1  0  0  0  0
 17 42  1  0  0  0  0
 19 43  1  0  0  0  0
M  END
> <id>
EN300-26867490

> <smiles>
O=C(CN1C=CC=CC1=O)NC2(CC3CC4CC(C3)C2)C4

> <IUPAC Name>
N-(adamantan-1-yl)-2-(2-oxo-1,2-dihydropyridin-1-yl)acetamide

> <CAS>
941057-54-1

> <URL>
https://www.enaminestore.com/catalog/EN300-26867490

> <ROCS_ShapeQuery>
x0812_0A_x1140_0A_x1097_0A_x0365_0A_x1097_0A_x0310_0A

> <ROCS_TanimotoCombo>
0.699 

> <ROCS_ShapeTanimoto>
0.238 

> <ROCS_ColorTanimoto>
0.460 

> <ROCS_RefTversky>
0.220 

> <ROCS_RefColorTversky>
0.541 

> <ROCS_RefTverskyCombo>
0.761 

> <ROCS_FitTversky>
1.543 

> <ROCS_FitColorTversky>
0.754 

> <ROCS_FitTverskyCombo>
2.297 

> <ROCS_ColorScore>
-8.070

> <ROCS_Overlap>
2228.028

> <ROCS_Rank>
382                 

$$$$
untitled-dbase-431620_2
  -OEChem-02092408543D

 23 25  0     1  0  0  0  0  0999 V2000
   10.5039   10.6537   23.4869 C   0  0  0  0  0  0  0  0  0  0  0  0
    6.8547   11.6019   23.8728 C   0  0  0  0  0  0  0  0  0  0  0  0
    9.2038   11.3103   23.1060 C   0  0  2  0  0  0  0  0  0  0  0  0
    9.6993   11.4131   24.5083 C   0  0  1  0  0  0  0  0  0  0  0  0
    7.3742   11.7360   25.3282 C   0  0  2  0  0  0  0  0  0  0  0  0
    7.8675   10.6215   23.2663 C   0  0  1  0  0  0  0  0  0  0  0  0
    8.5825   10.7778   25.3084 C   0  0  1  0  0  0  0  0  0  0  0  0
    6.3215   11.3097   26.3452 C   0  0  0  0  0  0  0  0  0  0  0  0
    5.9561    9.9502   26.1239 N   0  0  0  0  0  0  0  0  0  0  0  0
    8.0810    9.7551   24.4091 O   0  0  0  0  0  0  0  0  0  0  0  0
   10.5466    9.5740   23.5532 H   0  0  0  0  0  0  0  0  0  0  0  0
   11.4184   11.1106   23.1276 H   0  0  0  0  0  0  0  0  0  0  0  0
    5.8465   11.1732   23.8531 H   0  0  0  0  0  0  0  0  0  0  0  0
    6.8365   12.5633   23.3501 H   0  0  0  0  0  0  0  0  0  0  0  0
    9.2073   12.1823   22.4706 H   0  0  0  0  0  0  0  0  0  0  0  0
   10.0613   12.3587   24.8815 H   0  0  0  0  0  0  0  0  0  0  0  0
    7.6810   12.7660   25.5444 H   0  0  0  0  0  0  0  0  0  0  0  0
    7.5230   10.0712   22.3885 H   0  0  0  0  0  0  0  0  0  0  0  0
    8.8891   10.3642   26.2718 H   0  0  0  0  0  0  0  0  0  0  0  0
    6.7581   11.4315   27.3359 H   0  0  0  0  0  0  0  0  0  0  0  0
    5.4595   11.9630   26.2145 H   0  0  0  0  0  0  0  0  0  0  0  0
    4.9700    9.8812   25.9478 H   0  0  0  0  0  0  0  0  0  0  0  0
    6.4527    9.5837   25.3319 H   0  0  0  0  0  0  0  0  0  0  0  0
  1  3  1  1  0  0  0
  1  4  1  1  0  0  0
  2  5  1  0  0  0  0
  2  6  1  0  0  0  0
  3  4  1  0  0  0  0
  3  6  1  0  0  0  0
  4  7  1  0  0  0  0
  5  7  1  0  0  0  0
  5  8  1  1  0  0  0
  6 10  1  1  0  0  0
  7 10  1  1  0  0  0
  8  9  1  0  0  0  0
  1 11  1  0  0  0  0
  1 12  1  0  0  0  0
  2 13  1  0  0  0  0
  2 14  1  0  0  0  0
  3 15  1  0  0  0  0
  4 16  1  0  0  0  0
  5 17  1  0  0  0  0
  6 18  1  0  0  0  0
  7 19  1  0  0  0  0
  8 20  1  0  0  0  0
  8 21  1  0  0  0  0
  9 22  1  0  0  0  0
  9 23  1  0  0  0  0
M  END
> <id>
EN300-6503654

> <smiles>
NC[C@@H]1C[C@@H]2O[C@H]1[C@H]3C[C@H]32 |&1:2,4,6,7,9,r|

> <IUPAC Name>
rac-[(1R,2S,4R,5R,6R)-8-oxatricyclo[3.2.1.0,2,4]octan-6-yl]methanamine

> <CAS>
2253639-34-6

> <URL>
https://www.enaminestore.com/catalog/EN300-6503654

> <ROCS_ShapeQuery>
x0812_0A_x1140_0A_x1097_0A_x0365_0A_x1097_0A_x0310_0A

> <ROCS_TanimotoCombo>
0.698 

> <ROCS_ShapeTanimoto>
0.198 

> <ROCS_ColorTanimoto>
0.501 

> <ROCS_RefTversky>
0.181 

> <ROCS_RefColorTversky>
0.766 

> <ROCS_RefTverskyCombo>
0.946 

> <ROCS_FitTversky>
1.901 

> <ROCS_FitColorTversky>
0.591 

> <ROCS_FitTverskyCombo>
2.493 

> <ROCS_ColorScore>
-11.781

> <ROCS_Overlap>
1827.884

> <ROCS_Rank>
383                 

$$$$
untitled-dbase-294880_2
  -OEChem-02092408543D

 23 25  0     1  0  0  0  0  0999 V2000
   10.5039   10.6537   23.4869 C   0  0  0  0  0  0  0  0  0  0  0  0
    6.8547   11.6019   23.8728 C   0  0  0  0  0  0  0  0  0  0  0  0
    9.2038   11.3103   23.1060 C   0  0  2  0  0  0  0  0  0  0  0  0
    9.6993   11.4131   24.5083 C   0  0  1  0  0  0  0  0  0  0  0  0
    7.3742   11.7360   25.3282 C   0  0  2  0  0  0  0  0  0  0  0  0
    7.8675   10.6215   23.2663 C   0  0  1  0  0  0  0  0  0  0  0  0
    8.5825   10.7778   25.3084 C   0  0  1  0  0  0  0  0  0  0  0  0
    6.3215   11.3097   26.3452 C   0  0  0  0  0  0  0  0  0  0  0  0
    5.9561    9.9502   26.1239 N   0  0  0  0  0  0  0  0  0  0  0  0
    8.0810    9.7551   24.4091 O   0  0  0  0  0  0  0  0  0  0  0  0
   10.5466    9.5740   23.5532 H   0  0  0  0  0  0  0  0  0  0  0  0
   11.4184   11.1106   23.1276 H   0  0  0  0  0  0  0  0  0  0  0  0
    5.8465   11.1732   23.8531 H   0  0  0  0  0  0  0  0  0  0  0  0
    6.8365   12.5633   23.3501 H   0  0  0  0  0  0  0  0  0  0  0  0
    9.2073   12.1823   22.4706 H   0  0  0  0  0  0  0  0  0  0  0  0
   10.0613   12.3587   24.8815 H   0  0  0  0  0  0  0  0  0  0  0  0
    7.6810   12.7660   25.5444 H   0  0  0  0  0  0  0  0  0  0  0  0
    7.5230   10.0712   22.3885 H   0  0  0  0  0  0  0  0  0  0  0  0
    8.8891   10.3642   26.2718 H   0  0  0  0  0  0  0  0  0  0  0  0
    6.7581   11.4315   27.3359 H   0  0  0  0  0  0  0  0  0  0  0  0
    5.4595   11.9630   26.2145 H   0  0  0  0  0  0  0  0  0  0  0  0
    4.9700    9.8812   25.9478 H   0  0  0  0  0  0  0  0  0  0  0  0
    6.4527    9.5837   25.3319 H   0  0  0  0  0  0  0  0  0  0  0  0
  1  3  1  1  0  0  0
  1  4  1  1  0  0  0
  2  5  1  0  0  0  0
  2  6  1  0  0  0  0
  3  4  1  0  0  0  0
  3  6  1  0  0  0  0
  4  7  1  0  0  0  0
  5  7  1  0  0  0  0
  5  8  1  1  0  0  0
  6 10  1  1  0  0  0
  7 10  1  1  0  0  0
  8  9  1  0  0  0  0
  1 11  1  0  0  0  0
  1 12  1  0  0  0  0
  2 13  1  0  0  0  0
  2 14  1  0  0  0  0
  3 15  1  0  0  0  0
  4 16  1  0  0  0  0
  5 17  1  0  0  0  0
  6 18  1  0  0  0  0
  7 19  1  0  0  0  0
  8 20  1  0  0  0  0
  8 21  1  0  0  0  0
  9 22  1  0  0  0  0
  9 23  1  0  0  0  0
M  END
> <id>
EN300-6503653

> <smiles>
Cl.NC[C@@H]1C[C@@H]2O[C@H]1[C@H]3C[C@H]32 |&1:3,5,7,8,10,r|

> <IUPAC Name>
rac-[(1R,2S,4R,5R,6R)-8-oxatricyclo[3.2.1.0,2,4]octan-6-yl]methanamine hydrochloride

> <CAS>
2253639-35-7

> <Purity>
95

> <URL>
https://www.enaminestore.com/catalog/EN300-6503653

> <Saltdate>
Cl

> <ROCS_ShapeQuery>
x0812_0A_x1140_0A_x1097_0A_x0365_0A_x1097_0A_x0310_0A

> <ROCS_TanimotoCombo>
0.698 

> <ROCS_ShapeTanimoto>
0.198 

> <ROCS_ColorTanimoto>
0.501 

> <ROCS_RefTversky>
0.181 

> <ROCS_RefColorTversky>
0.766 

> <ROCS_RefTverskyCombo>
0.946 

> <ROCS_FitTversky>
1.901 

> <ROCS_FitColorTversky>
0.591 

> <ROCS_FitTverskyCombo>
2.493 

> <ROCS_ColorScore>
-11.781

> <ROCS_Overlap>
1827.884

> <ROCS_Rank>
384                 

$$$$
untitled-dbase-479924_4
  -OEChem-02092408543D

 32 33  0     1  0  0  0  0  0999 V2000
    7.6998   13.6217   23.7664 C   0  0  0  0  0  0  0  0  0  0  0  0
    8.5018   11.8794   25.4392 C   0  0  0  0  0  0  0  0  0  0  0  0
    7.4146   10.2476   23.3623 C   0  0  0  0  0  0  0  0  0  0  0  0
    8.4923   11.3086   23.1368 C   0  0  2  0  0  0  0  0  0  0  0  0
    8.9284   10.4437   25.1033 C   0  0  2  0  0  0  0  0  0  0  0  0
    9.6884   10.6404   23.7958 C   0  0  1  0  0  0  0  0  0  0  0  0
    9.5634   15.0571   22.6159 C   0  0  0  0  0  0  0  0  0  0  0  0
    8.6172   14.4121   20.3803 C   0  0  0  0  0  0  0  0  0  0  0  0
    7.4128   16.0880   21.8116 C   0  0  0  0  0  0  0  0  0  0  0  0
    8.2846   14.8331   21.8100 C   0  0  0  0  0  0  0  0  0  0  0  0
    8.2089   12.3837   24.0941 N   0  0  0  0  0  0  0  0  0  0  0  0
    7.4158   14.4923   24.5852 O   0  0  0  0  0  0  0  0  0  0  0  0
    7.7252    9.7365   24.6880 O   0  0  0  0  0  0  0  0  0  0  0  0
   10.0647    9.4153   23.2050 O   0  0  0  0  0  0  0  0  0  0  0  0
    7.5469   13.7647   22.4138 O   0  0  0  0  0  0  0  0  0  0  0  0
    7.5992   11.9390   26.0536 H   0  0  0  0  0  0  0  0  0  0  0  0
    9.3087   12.4788   25.8708 H   0  0  0  0  0  0  0  0  0  0  0  0
    6.3953   10.6455   23.3525 H   0  0  0  0  0  0  0  0  0  0  0  0
    7.4843    9.4181   22.6515 H   0  0  0  0  0  0  0  0  0  0  0  0
    8.5921   11.6442   22.1036 H   0  0  0  0  0  0  0  0  0  0  0  0
    9.4400    9.8964   25.8965 H   0  0  0  0  0  0  0  0  0  0  0  0
   10.5653   11.2903   23.8884 H   0  0  0  0  0  0  0  0  0  0  0  0
    9.3289   15.3595   23.6428 H   0  0  0  0  0  0  0  0  0  0  0  0
   10.1810   14.1537   22.6518 H   0  0  0  0  0  0  0  0  0  0  0  0
   10.1609   15.8679   22.1837 H   0  0  0  0  0  0  0  0  0  0  0  0
    7.7026   14.2503   19.7984 H   0  0  0  0  0  0  0  0  0  0  0  0
    9.1618   13.4610   20.3701 H   0  0  0  0  0  0  0  0  0  0  0  0
    9.2251   15.1651   19.8684 H   0  0  0  0  0  0  0  0  0  0  0  0
    6.4955   15.9276   21.2337 H   0  0  0  0  0  0  0  0  0  0  0  0
    7.1335   16.3838   22.8281 H   0  0  0  0  0  0  0  0  0  0  0  0
    7.9352   16.9260   21.3362 H   0  0  0  0  0  0  0  0  0  0  0  0
   10.8325    9.0781   23.7002 H   0  0  0  0  0  0  0  0  0  0  0  0
  1 11  1  0  0  0  0
  1 12  2  0  0  0  0
  1 15  1  0  0  0  0
  2  5  1  0  0  0  0
  2 11  1  0  0  0  0
  3  4  1  0  0  0  0
  3 13  1  0  0  0  0
  4  6  1  0  0  0  0
  4 11  1  6  0  0  0
  5  6  1  0  0  0  0
  5 13  1  6  0  0  0
  6 14  1  1  0  0  0
  7 10  1  0  0  0  0
  8 10  1  0  0  0  0
  9 10  1  0  0  0  0
 10 15  1  0  0  0  0
  2 16  1  0  0  0  0
  2 17  1  0  0  0  0
  3 18  1  0  0  0  0
  3 19  1  0  0  0  0
  4 20  1  0  0  0  0
  5 21  1  0  0  0  0
  6 22  1  0  0  0  0
  7 23  1  0  0  0  0
  7 24  1  0  0  0  0
  7 25  1  0  0  0  0
  8 26  1  0  0  0  0
  8 27  1  0  0  0  0
  8 28  1  0  0  0  0
  9 29  1  0  0  0  0
  9 30  1  0  0  0  0
  9 31  1  0  0  0  0
 14 32  1  0  0  0  0
M  END
> <id>
EN300-27718337

> <smiles>
CC(C)(C)OC(=O)N1C[C@H]2OC[C@@H]1[C@@H]2O

> <IUPAC Name>
tert-butyl (1R,4R,7S)-7-hydroxy-2-oxa-5-azabicyclo[2.2.1]heptane-5-carboxylate

> <CAS>
2580102-62-9

> <URL>
https://www.enaminestore.com/catalog/EN300-27718337

> <ROCS_ShapeQuery>
x0812_0A_x1140_0A_x1097_0A_x0365_0A_x1097_0A_x0310_0A

> <ROCS_TanimotoCombo>
0.698 

> <ROCS_ShapeTanimoto>
0.190 

> <ROCS_ColorTanimoto>
0.508 

> <ROCS_RefTversky>
0.178 

> <ROCS_RefColorTversky>
0.599 

> <ROCS_RefTverskyCombo>
0.777 

> <ROCS_FitTversky>
1.535 

> <ROCS_FitColorTversky>
0.770 

> <ROCS_FitTverskyCombo>
2.305 

> <ROCS_ColorScore>
-8.954

> <ROCS_Overlap>
1804.874

> <ROCS_Rank>
385                 

$$$$
untitled-dbase-360123_4
  -OEChem-02092408543D

 32 33  0     1  0  0  0  0  0999 V2000
    7.6996   13.6217   23.7671 C   0  0  0  0  0  0  0  0  0  0  0  0
    8.5023   11.8793   25.4393 C   0  0  0  0  0  0  0  0  0  0  0  0
    7.4146   10.2477   23.3621 C   0  0  0  0  0  0  0  0  0  0  0  0
    8.4923   11.3087   23.1369 C   0  0  2  0  0  0  0  0  0  0  0  0
    8.9282   10.4435   25.1033 C   0  0  2  0  0  0  0  0  0  0  0  0
    9.6883   10.6403   23.7959 C   0  0  1  0  0  0  0  0  0  0  0  0
    9.5634   15.0575   22.6163 C   0  0  0  0  0  0  0  0  0  0  0  0
    8.6169   14.4126   20.3807 C   0  0  0  0  0  0  0  0  0  0  0  0
    7.4127   16.0885   21.8123 C   0  0  0  0  0  0  0  0  0  0  0  0
    8.2845   14.8336   21.8106 C   0  0  0  0  0  0  0  0  0  0  0  0
    8.2090   12.3837   24.0943 N   0  0  0  0  0  0  0  0  0  0  0  0
    7.4157   14.4922   24.5861 O   0  0  0  0  0  0  0  0  0  0  0  0
    7.7248    9.7368   24.6880 O   0  0  0  0  0  0  0  0  0  0  0  0
   10.0649    9.4152   23.2050 O   0  0  0  0  0  0  0  0  0  0  0  0
    7.5467   13.7651   22.4144 O   0  0  0  0  0  0  0  0  0  0  0  0
    7.6000   11.9393   26.0546 H   0  0  0  0  0  0  0  0  0  0  0  0
    9.3098   12.4784   25.8704 H   0  0  0  0  0  0  0  0  0  0  0  0
    6.3951   10.6458   23.3521 H   0  0  0  0  0  0  0  0  0  0  0  0
    7.4843    9.4183   22.6512 H   0  0  0  0  0  0  0  0  0  0  0  0
    8.5923   11.6445   22.1036 H   0  0  0  0  0  0  0  0  0  0  0  0
    9.4392    9.8958   25.8967 H   0  0  0  0  0  0  0  0  0  0  0  0
   10.5653   11.2903   23.8879 H   0  0  0  0  0  0  0  0  0  0  0  0
    9.3290   15.3598   23.6432 H   0  0  0  0  0  0  0  0  0  0  0  0
   10.1809   14.1541   22.6520 H   0  0  0  0  0  0  0  0  0  0  0  0
   10.1609   15.8683   22.1841 H   0  0  0  0  0  0  0  0  0  0  0  0
    7.7022   14.2509   19.7990 H   0  0  0  0  0  0  0  0  0  0  0  0
    9.1614   13.4615   20.3705 H   0  0  0  0  0  0  0  0  0  0  0  0
    9.2247   15.1656   19.8688 H   0  0  0  0  0  0  0  0  0  0  0  0
    6.4953   15.9282   21.2345 H   0  0  0  0  0  0  0  0  0  0  0  0
    7.1336   16.3842   22.8288 H   0  0  0  0  0  0  0  0  0  0  0  0
    7.9351   16.9265   21.3369 H   0  0  0  0  0  0  0  0  0  0  0  0
   10.8325    9.0780   23.7002 H   0  0  0  0  0  0  0  0  0  0  0  0
  1 11  1  0  0  0  0
  1 12  2  0  0  0  0
  1 15  1  0  0  0  0
  2  5  1  0  0  0  0
  2 11  1  0  0  0  0
  3  4  1  0  0  0  0
  3 13  1  0  0  0  0
  4  6  1  0  0  0  0
  4 11  1  0  0  0  0
  5  6  1  0  0  0  0
  5 13  1  6  0  0  0
  6 14  1  1  0  0  0
  7 10  1  0  0  0  0
  8 10  1  0  0  0  0
  9 10  1  0  0  0  0
 10 15  1  0  0  0  0
  2 16  1  0  0  0  0
  2 17  1  0  0  0  0
  3 18  1  0  0  0  0
  3 19  1  0  0  0  0
  4 20  1  0  0  0  0
  5 21  1  0  0  0  0
  6 22  1  0  0  0  0
  7 23  1  0  0  0  0
  7 24  1  0  0  0  0
  7 25  1  0  0  0  0
  8 26  1  0  0  0  0
  8 27  1  0  0  0  0
  8 28  1  0  0  0  0
  9 29  1  0  0  0  0
  9 30  1  0  0  0  0
  9 31  1  0  0  0  0
 14 32  1  0  0  0  0
M  END
> <id>
EN300-26666024

> <smiles>
CC(C)(C)OC(=O)N1C[C@H]2OCC1[C@@H]2O

> <IUPAC Name>
tert-butyl (1R,7S)-7-hydroxy-2-oxa-5-azabicyclo[2.2.1]heptane-5-carboxylate

> <CAS>
2413864-22-7

> <URL>
https://www.enaminestore.com/catalog/EN300-26666024

> <ROCS_ShapeQuery>
x0812_0A_x1140_0A_x1097_0A_x0365_0A_x1097_0A_x0310_0A

> <ROCS_TanimotoCombo>
0.698 

> <ROCS_ShapeTanimoto>
0.190 

> <ROCS_ColorTanimoto>
0.508 

> <ROCS_RefTversky>
0.178 

> <ROCS_RefColorTversky>
0.599 

> <ROCS_RefTverskyCombo>
0.777 

> <ROCS_FitTversky>
1.535 

> <ROCS_FitColorTversky>
0.770 

> <ROCS_FitTverskyCombo>
2.305 

> <ROCS_ColorScore>
-8.953

> <ROCS_Overlap>
1804.858

> <ROCS_Rank>
386                 

$$$$
untitled-dbase-560433_1
  -OEChem-02092408543D

 22 23  0     0  0  0  0  0  0999 V2000
    8.3317   11.8099   25.3286 C   0  0  0  0  0  0  0  0  0  0  0  0
    7.8024   11.7300   23.3033 C   0  0  0  0  0  0  0  0  0  0  0  0
    9.4707   10.0698   24.0161 C   0  0  0  0  0  0  0  0  0  0  0  0
    9.1921   11.5888   24.0291 C   0  0  0  0  0  0  0  0  0  0  0  0
    7.4158   10.8071   24.5241 C   0  0  0  0  0  0  0  0  0  0  0  0
   10.3400   12.4923   23.6934 C   0  0  0  0  0  0  0  0  0  0  0  0
    5.9846   10.5821   24.9067 C   0  0  0  0  0  0  0  0  0  0  0  0
   10.6709   12.4013   22.3011 N   0  0  0  0  0  0  0  0  0  0  0  0
    8.1704    9.5729   24.3756 O   0  0  0  0  0  0  0  0  0  0  0  0
    5.2749   11.7307   24.8412 F   0  0  0  0  0  0  0  0  0  0  0  0
    5.3940    9.6865   24.0842 F   0  0  0  0  0  0  0  0  0  0  0  0
    5.8850   10.1089   26.1691 F   0  0  0  0  0  0  0  0  0  0  0  0
    8.7583   11.4277   26.2605 H   0  0  0  0  0  0  0  0  0  0  0  0
    7.9369   12.8181   25.4968 H   0  0  0  0  0  0  0  0  0  0  0  0
    7.3564   12.7302   23.2746 H   0  0  0  0  0  0  0  0  0  0  0  0
    7.7272   11.2712   22.3131 H   0  0  0  0  0  0  0  0  0  0  0  0
    9.7481    9.6991   23.0252 H   0  0  0  0  0  0  0  0  0  0  0  0
   10.2041    9.7677   24.7692 H   0  0  0  0  0  0  0  0  0  0  0  0
   10.0561   13.5247   23.9340 H   0  0  0  0  0  0  0  0  0  0  0  0
   11.2084   12.1947   24.2948 H   0  0  0  0  0  0  0  0  0  0  0  0
   11.6180   12.0935   22.1992 H   0  0  0  0  0  0  0  0  0  0  0  0
   10.0605   11.7470   21.8523 H   0  0  0  0  0  0  0  0  0  0  0  0
  1  4  1  0  0  0  0
  1  5  1  0  0  0  0
  2  4  1  0  0  0  0
  2  5  1  0  0  0  0
  3  4  1  0  0  0  0
  3  9  1  0  0  0  0
  4  6  1  1  0  0  0
  5  7  1  1  0  0  0
  5  9  1  0  0  0  0
  6  8  1  0  0  0  0
  7 10  1  0  0  0  0
  7 11  1  0  0  0  0
  7 12  1  0  0  0  0
  1 13  1  0  0  0  0
  1 14  1  0  0  0  0
  2 15  1  0  0  0  0
  2 16  1  0  0  0  0
  3 17  1  0  0  0  0
  3 18  1  0  0  0  0
  6 19  1  0  0  0  0
  6 20  1  0  0  0  0
  8 21  1  0  0  0  0
  8 22  1  0  0  0  0
M  END
> <id>
EN300-37375441

> <smiles>
Cl.NC[C@]1(C[C@]2(C1)C(F)(F)F)CO2

> <IUPAC Name>
1-[1-(trifluoromethyl)-2-oxabicyclo[2.1.1]hexan-4-yl]methanamine hydrochloride

> <CAS>
2624134-77-4

> <URL>
https://www.enaminestore.com/catalog/EN300-37375441

> <ROCS_ShapeQuery>
x0812_0A_x1140_0A_x1097_0A_x0365_0A_x1097_0A_x0310_0A

> <ROCS_TanimotoCombo>
0.698 

> <ROCS_ShapeTanimoto>
0.211 

> <ROCS_ColorTanimoto>
0.488 

> <ROCS_RefTversky>
0.192 

> <ROCS_RefColorTversky>
0.549 

> <ROCS_RefTverskyCombo>
0.741 

> <ROCS_FitTversky>
1.858 

> <ROCS_FitColorTversky>
0.813 

> <ROCS_FitTverskyCombo>
2.670 

> <ROCS_ColorScore>
-8.165

> <ROCS_Overlap>
1941.192

> <ROCS_Rank>
387                 

$$$$
untitled-dbase-495573_1
  -OEChem-02092408543D

 22 23  0     0  0  0  0  0  0999 V2000
    8.3317   11.8099   25.3286 C   0  0  0  0  0  0  0  0  0  0  0  0
    7.8024   11.7300   23.3033 C   0  0  0  0  0  0  0  0  0  0  0  0
    9.4707   10.0698   24.0161 C   0  0  0  0  0  0  0  0  0  0  0  0
    9.1921   11.5888   24.0291 C   0  0  0  0  0  0  0  0  0  0  0  0
    7.4158   10.8071   24.5241 C   0  0  0  0  0  0  0  0  0  0  0  0
   10.3400   12.4923   23.6934 C   0  0  0  0  0  0  0  0  0  0  0  0
    5.9846   10.5821   24.9067 C   0  0  0  0  0  0  0  0  0  0  0  0
   10.6709   12.4013   22.3011 N   0  0  0  0  0  0  0  0  0  0  0  0
    8.1704    9.5729   24.3756 O   0  0  0  0  0  0  0  0  0  0  0  0
    5.2749   11.7307   24.8412 F   0  0  0  0  0  0  0  0  0  0  0  0
    5.3940    9.6865   24.0842 F   0  0  0  0  0  0  0  0  0  0  0  0
    5.8850   10.1089   26.1691 F   0  0  0  0  0  0  0  0  0  0  0  0
    8.7583   11.4277   26.2605 H   0  0  0  0  0  0  0  0  0  0  0  0
    7.9369   12.8181   25.4968 H   0  0  0  0  0  0  0  0  0  0  0  0
    7.3564   12.7302   23.2746 H   0  0  0  0  0  0  0  0  0  0  0  0
    7.7272   11.2712   22.3131 H   0  0  0  0  0  0  0  0  0  0  0  0
    9.7481    9.6991   23.0252 H   0  0  0  0  0  0  0  0  0  0  0  0
   10.2041    9.7677   24.7692 H   0  0  0  0  0  0  0  0  0  0  0  0
   10.0561   13.5247   23.9340 H   0  0  0  0  0  0  0  0  0  0  0  0
   11.2084   12.1947   24.2948 H   0  0  0  0  0  0  0  0  0  0  0  0
   11.6180   12.0935   22.1992 H   0  0  0  0  0  0  0  0  0  0  0  0
   10.0605   11.7470   21.8523 H   0  0  0  0  0  0  0  0  0  0  0  0
  1  4  1  0  0  0  0
  1  5  1  0  0  0  0
  2  4  1  0  0  0  0
  2  5  1  0  0  0  0
  3  4  1  0  0  0  0
  3  9  1  0  0  0  0
  4  6  1  1  0  0  0
  5  7  1  1  0  0  0
  5  9  1  0  0  0  0
  6  8  1  0  0  0  0
  7 10  1  0  0  0  0
  7 11  1  0  0  0  0
  7 12  1  0  0  0  0
  1 13  1  0  0  0  0
  1 14  1  0  0  0  0
  2 15  1  0  0  0  0
  2 16  1  0  0  0  0
  3 17  1  0  0  0  0
  3 18  1  0  0  0  0
  6 19  1  0  0  0  0
  6 20  1  0  0  0  0
  8 21  1  0  0  0  0
  8 22  1  0  0  0  0
M  END
> <id>
EN300-27754093

> <smiles>
NC[C@]1(C[C@]2(C1)C(F)(F)F)CO2

> <IUPAC Name>
1-[1-(trifluoromethyl)-2-oxabicyclo[2.1.1]hexan-4-yl]methanamine

> <URL>
https://www.enaminestore.com/catalog/EN300-27754093

> <ROCS_ShapeQuery>
x0812_0A_x1140_0A_x1097_0A_x0365_0A_x1097_0A_x0310_0A

> <ROCS_TanimotoCombo>
0.698 

> <ROCS_ShapeTanimoto>
0.211 

> <ROCS_ColorTanimoto>
0.488 

> <ROCS_RefTversky>
0.192 

> <ROCS_RefColorTversky>
0.549 

> <ROCS_RefTverskyCombo>
0.741 

> <ROCS_FitTversky>
1.858 

> <ROCS_FitColorTversky>
0.813 

> <ROCS_FitTverskyCombo>
2.670 

> <ROCS_ColorScore>
-8.165

> <ROCS_Overlap>
1941.192

> <ROCS_Rank>
388                 

$$$$
untitled-dbase-493002_1
  -OEChem-02092408543D

 22 23  0     0  0  0  0  0  0999 V2000
    8.3315   11.8099   25.3288 C   0  0  0  0  0  0  0  0  0  0  0  0
    7.8027   11.7302   23.3033 C   0  0  0  0  0  0  0  0  0  0  0  0
    9.4708   10.0699   24.0162 C   0  0  0  0  0  0  0  0  0  0  0  0
    9.1922   11.5889   24.0294 C   0  0  0  0  0  0  0  0  0  0  0  0
    7.4157   10.8071   24.5239 C   0  0  0  0  0  0  0  0  0  0  0  0
   10.3400   12.4924   23.6934 C   0  0  0  0  0  0  0  0  0  0  0  0
    5.9843   10.5820   24.9057 C   0  0  0  0  0  0  0  0  0  0  0  0
   10.6708   12.4012   22.3012 N   0  0  0  0  0  0  0  0  0  0  0  0
    8.1705    9.5728   24.3754 O   0  0  0  0  0  0  0  0  0  0  0  0
    5.2746   11.7306   24.8401 F   0  0  0  0  0  0  0  0  0  0  0  0
    5.3942    9.6864   24.0829 F   0  0  0  0  0  0  0  0  0  0  0  0
    5.8841   10.1086   26.1680 F   0  0  0  0  0  0  0  0  0  0  0  0
    8.7580   11.4273   26.2606 H   0  0  0  0  0  0  0  0  0  0  0  0
    7.9368   12.8180   25.4972 H   0  0  0  0  0  0  0  0  0  0  0  0
    7.3567   12.7305   23.2748 H   0  0  0  0  0  0  0  0  0  0  0  0
    7.7275   11.2716   22.3130 H   0  0  0  0  0  0  0  0  0  0  0  0
    9.7483    9.6993   23.0253 H   0  0  0  0  0  0  0  0  0  0  0  0
   10.2040    9.7677   24.7694 H   0  0  0  0  0  0  0  0  0  0  0  0
   10.0560   13.5248   23.9338 H   0  0  0  0  0  0  0  0  0  0  0  0
   11.2084   12.1950   24.2949 H   0  0  0  0  0  0  0  0  0  0  0  0
   11.6180   12.0934   22.1992 H   0  0  0  0  0  0  0  0  0  0  0  0
   10.0604   11.7467   21.8525 H   0  0  0  0  0  0  0  0  0  0  0  0
  1  4  1  0  0  0  0
  1  5  1  0  0  0  0
  2  4  1  0  0  0  0
  2  5  1  0  0  0  0
  3  4  1  0  0  0  0
  3  9  1  0  0  0  0
  4  6  1  0  0  0  0
  5  7  1  0  0  0  0
  5  9  1  0  0  0  0
  6  8  1  0  0  0  0
  7 10  1  0  0  0  0
  7 11  1  0  0  0  0
  7 12  1  0  0  0  0
  1 13  1  0  0  0  0
  1 14  1  0  0  0  0
  2 15  1  0  0  0  0
  2 16  1  0  0  0  0
  3 17  1  0  0  0  0
  3 18  1  0  0  0  0
  6 19  1  0  0  0  0
  6 20  1  0  0  0  0
  8 21  1  0  0  0  0
  8 22  1  0  0  0  0
M  END
> <id>
EN300-27747258

> <smiles>
Cl.NCC1(CC2(C1)C(F)(F)F)CO2

> <MDLNUMBER>
MFCD33550207

> <IUPAC Name>
1-[1-(trifluoromethyl)-2-oxabicyclo[2.1.1]hexan-4-yl]methanamine hydrochloride

> <CAS>
2624134-77-4

> <Purity>
95

> <URL>
https://www.enaminestore.com/catalog/EN300-27747258

> <ROCS_ShapeQuery>
x0812_0A_x1140_0A_x1097_0A_x0365_0A_x1097_0A_x0310_0A

> <ROCS_TanimotoCombo>
0.698 

> <ROCS_ShapeTanimoto>
0.211 

> <ROCS_ColorTanimoto>
0.488 

> <ROCS_RefTversky>
0.192 

> <ROCS_RefColorTversky>
0.549 

> <ROCS_RefTverskyCombo>
0.741 

> <ROCS_FitTversky>
1.857 

> <ROCS_FitColorTversky>
0.813 

> <ROCS_FitTverskyCombo>
2.670 

> <ROCS_ColorScore>
-8.165

> <ROCS_Overlap>
1940.966

> <ROCS_Rank>
389                 

$$$$
untitled-dbase-493171_1
  -OEChem-02092408543D

 22 23  0     0  0  0  0  0  0999 V2000
    8.3315   11.8099   25.3288 C   0  0  0  0  0  0  0  0  0  0  0  0
    7.8027   11.7302   23.3033 C   0  0  0  0  0  0  0  0  0  0  0  0
    9.4708   10.0699   24.0162 C   0  0  0  0  0  0  0  0  0  0  0  0
    9.1922   11.5889   24.0294 C   0  0  0  0  0  0  0  0  0  0  0  0
    7.4157   10.8071   24.5239 C   0  0  0  0  0  0  0  0  0  0  0  0
   10.3400   12.4924   23.6934 C   0  0  0  0  0  0  0  0  0  0  0  0
    5.9843   10.5820   24.9057 C   0  0  0  0  0  0  0  0  0  0  0  0
   10.6708   12.4012   22.3012 N   0  0  0  0  0  0  0  0  0  0  0  0
    8.1705    9.5728   24.3754 O   0  0  0  0  0  0  0  0  0  0  0  0
    5.2746   11.7306   24.8401 F   0  0  0  0  0  0  0  0  0  0  0  0
    5.3942    9.6864   24.0829 F   0  0  0  0  0  0  0  0  0  0  0  0
    5.8841   10.1086   26.1680 F   0  0  0  0  0  0  0  0  0  0  0  0
    8.7580   11.4273   26.2606 H   0  0  0  0  0  0  0  0  0  0  0  0
    7.9368   12.8180   25.4972 H   0  0  0  0  0  0  0  0  0  0  0  0
    7.3567   12.7305   23.2748 H   0  0  0  0  0  0  0  0  0  0  0  0
    7.7275   11.2716   22.3130 H   0  0  0  0  0  0  0  0  0  0  0  0
    9.7483    9.6993   23.0253 H   0  0  0  0  0  0  0  0  0  0  0  0
   10.2040    9.7677   24.7694 H   0  0  0  0  0  0  0  0  0  0  0  0
   10.0560   13.5248   23.9338 H   0  0  0  0  0  0  0  0  0  0  0  0
   11.2084   12.1950   24.2949 H   0  0  0  0  0  0  0  0  0  0  0  0
   11.6180   12.0934   22.1992 H   0  0  0  0  0  0  0  0  0  0  0  0
   10.0604   11.7467   21.8525 H   0  0  0  0  0  0  0  0  0  0  0  0
  1  4  1  0  0  0  0
  1  5  1  0  0  0  0
  2  4  1  0  0  0  0
  2  5  1  0  0  0  0
  3  4  1  0  0  0  0
  3  9  1  0  0  0  0
  4  6  1  0  0  0  0
  5  7  1  0  0  0  0
  5  9  1  0  0  0  0
  6  8  1  0  0  0  0
  7 10  1  0  0  0  0
  7 11  1  0  0  0  0
  7 12  1  0  0  0  0
  1 13  1  0  0  0  0
  1 14  1  0  0  0  0
  2 15  1  0  0  0  0
  2 16  1  0  0  0  0
  3 17  1  0  0  0  0
  3 18  1  0  0  0  0
  6 19  1  0  0  0  0
  6 20  1  0  0  0  0
  8 21  1  0  0  0  0
  8 22  1  0  0  0  0
M  END
> <id>
EN300-27719205

> <smiles>
NCC1(CC2(C1)C(F)(F)F)CO2

> <MDLNUMBER>
MFCD33550241

> <IUPAC Name>
1-[1-(trifluoromethyl)-2-oxabicyclo[2.1.1]hexan-4-yl]methanamine

> <CAS>
2624134-76-3

> <URL>
https://www.enaminestore.com/catalog/EN300-27719205

> <ROCS_ShapeQuery>
x0812_0A_x1140_0A_x1097_0A_x0365_0A_x1097_0A_x0310_0A

> <ROCS_TanimotoCombo>
0.698 

> <ROCS_ShapeTanimoto>
0.211 

> <ROCS_ColorTanimoto>
0.488 

> <ROCS_RefTversky>
0.192 

> <ROCS_RefColorTversky>
0.549 

> <ROCS_RefTverskyCombo>
0.741 

> <ROCS_FitTversky>
1.857 

> <ROCS_FitColorTversky>
0.813 

> <ROCS_FitTverskyCombo>
2.670 

> <ROCS_ColorScore>
-8.165

> <ROCS_Overlap>
1940.966

> <ROCS_Rank>
390                 

$$$$
untitled-dbase-331033_5
  -OEChem-02092408543D

 37 38  0     1  0  0  0  0  0999 V2000
    9.7375   12.9031   22.0634 C   0  0  0  0  0  0  0  0  0  0  0  0
    7.1427   10.8676   24.8464 C   0  0  0  0  0  0  0  0  0  0  0  0
    9.4657   10.5041   25.3281 C   0  0  0  0  0  0  0  0  0  0  0  0
    8.7413   12.7116   24.3208 C   0  0  0  0  0  0  0  0  0  0  0  0
    8.0331   11.1052   22.5235 C   0  0  0  0  0  0  0  0  0  0  0  0
    8.3905   11.6055   25.3273 C   0  0  1  0  0  0  0  0  0  0  0  0
    7.7273   10.1111   23.6568 C   0  0  1  0  0  0  0  0  0  0  0  0
    8.9919    9.4875   24.2761 C   0  0  1  0  0  0  0  0  0  0  0  0
   12.2665   13.9612   21.2433 C   0  0  0  0  0  0  0  0  0  0  0  0
   12.1544   15.3506   23.3329 C   0  0  0  0  0  0  0  0  0  0  0  0
   12.2192   12.8453   23.4988 C   0  0  0  0  0  0  0  0  0  0  0  0
   11.7362   14.0377   22.6743 C   0  0  0  0  0  0  0  0  0  0  0  0
    8.9101   12.2065   22.9527 N   0  0  0  0  0  0  0  0  0  0  0  0
    9.9437   12.5630   20.8998 O   0  0  0  0  0  0  0  0  0  0  0  0
    9.9918    9.2205   23.3113 O   0  0  0  0  0  0  0  0  0  0  0  0
   10.3048   14.0129   22.6319 O   0  0  0  0  0  0  0  0  0  0  0  0
    6.7755   10.1750   25.6131 H   0  0  0  0  0  0  0  0  0  0  0  0
    6.3252   11.5409   24.5686 H   0  0  0  0  0  0  0  0  0  0  0  0
   10.4710   10.8921   25.1329 H   0  0  0  0  0  0  0  0  0  0  0  0
    9.4846   10.0177   26.3111 H   0  0  0  0  0  0  0  0  0  0  0  0
    7.9389   13.4587   24.2857 H   0  0  0  0  0  0  0  0  0  0  0  0
    9.6539   13.2321   24.6328 H   0  0  0  0  0  0  0  0  0  0  0  0
    8.4759   10.5811   21.6706 H   0  0  0  0  0  0  0  0  0  0  0  0
    7.1034   11.5664   22.1682 H   0  0  0  0  0  0  0  0  0  0  0  0
    8.2540   12.0379   26.3236 H   0  0  0  0  0  0  0  0  0  0  0  0
    7.0452    9.3385   23.2874 H   0  0  0  0  0  0  0  0  0  0  0  0
    8.7390    8.5429   24.7730 H   0  0  0  0  0  0  0  0  0  0  0  0
   11.9685   13.0202   20.7672 H   0  0  0  0  0  0  0  0  0  0  0  0
   11.8990   14.7918   20.6320 H   0  0  0  0  0  0  0  0  0  0  0  0
   13.3622   13.9805   21.2308 H   0  0  0  0  0  0  0  0  0  0  0  0
   11.7761   15.4097   24.3598 H   0  0  0  0  0  0  0  0  0  0  0  0
   11.7303   16.2080   22.7979 H   0  0  0  0  0  0  0  0  0  0  0  0
   13.2433   15.4613   23.3576 H   0  0  0  0  0  0  0  0  0  0  0  0
   11.8390   12.8999   24.5253 H   0  0  0  0  0  0  0  0  0  0  0  0
   11.8967   11.8951   23.0610 H   0  0  0  0  0  0  0  0  0  0  0  0
   13.3126   12.8408   23.5739 H   0  0  0  0  0  0  0  0  0  0  0  0
   10.7602    8.8604   23.7868 H   0  0  0  0  0  0  0  0  0  0  0  0
  1 13  1  0  0  0  0
  1 14  2  0  0  0  0
  1 16  1  0  0  0  0
  2  6  1  6  0  0  0
  2  7  1  6  0  0  0
  3  6  1  0  0  0  0
  3  8  1  0  0  0  0
  4  6  1  0  0  0  0
  4 13  1  0  0  0  0
  5  7  1  0  0  0  0
  5 13  1  0  0  0  0
  7  8  1  0  0  0  0
  8 15  1  1  0  0  0
  9 12  1  0  0  0  0
 10 12  1  0  0  0  0
 11 12  1  0  0  0  0
 12 16  1  0  0  0  0
  2 17  1  0  0  0  0
  2 18  1  0  0  0  0
  3 19  1  0  0  0  0
  3 20  1  0  0  0  0
  4 21  1  0  0  0  0
  4 22  1  0  0  0  0
  5 23  1  0  0  0  0
  5 24  1  0  0  0  0
  6 25  1  0  0  0  0
  7 26  1  0  0  0  0
  8 27  1  0  0  0  0
  9 28  1  0  0  0  0
  9 29  1  0  0  0  0
  9 30  1  0  0  0  0
 10 31  1  0  0  0  0
 10 32  1  0  0  0  0
 10 33  1  0  0  0  0
 11 34  1  0  0  0  0
 11 35  1  0  0  0  0
 11 36  1  0  0  0  0
 15 37  1  0  0  0  0
M  END
> <id>
EN300-37100384

> <smiles>
CC(C)(C)OC(=O)N1C[C@@H]2C[C@H](O)[C@@H](C2)C1 |&1:9,11,13,r|

> <IUPAC Name>
rac-tert-butyl (1R,5R,6R)-6-hydroxy-3-azabicyclo[3.2.1]octane-3-carboxylate

> <URL>
https://www.enaminestore.com/catalog/EN300-37100384

> <ROCS_ShapeQuery>
x0812_0A_x1140_0A_x1097_0A_x0365_0A_x1097_0A_x0310_0A

> <ROCS_TanimotoCombo>
0.698 

> <ROCS_ShapeTanimoto>
0.230 

> <ROCS_ColorTanimoto>
0.469 

> <ROCS_RefTversky>
0.209 

> <ROCS_RefColorTversky>
0.535 

> <ROCS_RefTverskyCombo>
0.744 

> <ROCS_FitTversky>
1.760 

> <ROCS_FitColorTversky>
0.790 

> <ROCS_FitTverskyCombo>
2.550 

> <ROCS_ColorScore>
-7.956

> <ROCS_Overlap>
2112.780

> <ROCS_Rank>
391                 

$$$$
untitled-dbase-300879_5
  -OEChem-02092408543D

 29 31  0     1  0  0  0  0  0999 V2000
    9.6751   12.0181   22.1164 C   0  0  0  0  0  0  0  0  0  0  0  0
    7.4643   12.6364   22.4191 C   0  0  0  0  0  0  0  0  0  0  0  0
    9.5507   11.5928   25.0758 C   0  0  0  0  0  0  0  0  0  0  0  0
    8.0899   12.0019   25.2759 C   0  0  0  0  0  0  0  0  0  0  0  0
    9.0075   10.8009   22.6989 C   0  0  2  0  0  0  0  0  0  0  0  0
    7.5386   11.2118   22.9002 C   0  0  1  0  0  0  0  0  0  0  0  0
    9.4250   10.3985   24.1200 C   0  0  1  0  0  0  0  0  0  0  0  0
    7.3449   10.9806   24.4051 C   0  0  2  0  0  0  0  0  0  0  0  0
   10.5780    9.4219   24.1835 C   0  0  0  0  0  0  0  0  0  0  0  0
    5.9137   10.7270   24.8229 C   0  0  0  0  0  0  0  0  0  0  0  0
    8.7175   12.9959   21.9813 N   0  0  0  0  0  0  0  0  0  0  0  0
   10.8614   12.1025   21.8363 O   0  0  0  0  0  0  0  0  0  0  0  0
    6.4606   13.3330   22.4387 O   0  0  0  0  0  0  0  0  0  0  0  0
    8.1855    9.8105   24.6021 O   0  0  0  0  0  0  0  0  0  0  0  0
   10.5936    8.6447   22.9949 O   0  0  0  0  0  0  0  0  0  0  0  0
    5.9005   10.2215   26.1500 O   0  0  0  0  0  0  0  0  0  0  0  0
   10.1747   12.4044   24.6922 H   0  0  0  0  0  0  0  0  0  0  0  0
    9.9688   11.2832   26.0414 H   0  0  0  0  0  0  0  0  0  0  0  0
    7.8290   11.8825   26.3345 H   0  0  0  0  0  0  0  0  0  0  0  0
    7.8940   13.0428   25.0041 H   0  0  0  0  0  0  0  0  0  0  0  0
    9.0681    9.9663   21.9913 H   0  0  0  0  0  0  0  0  0  0  0  0
    6.8861   10.5765   22.2904 H   0  0  0  0  0  0  0  0  0  0  0  0
   10.4675    8.7506   25.0410 H   0  0  0  0  0  0  0  0  0  0  0  0
   11.5304    9.9549   24.2675 H   0  0  0  0  0  0  0  0  0  0  0  0
    5.4440    9.9917   24.1620 H   0  0  0  0  0  0  0  0  0  0  0  0
    5.3337   11.6549   24.7944 H   0  0  0  0  0  0  0  0  0  0  0  0
    8.9246   13.9170   21.6115 H   0  0  0  0  0  0  0  0  0  0  0  0
   11.3430    8.0315   23.0698 H   0  0  0  0  0  0  0  0  0  0  0  0
    4.9701   10.0709   26.3844 H   0  0  0  0  0  0  0  0  0  0  0  0
  1  5  1  6  0  0  0
  1 11  1  0  0  0  0
  1 12  2  0  0  0  0
  2  6  1  6  0  0  0
  2 11  1  0  0  0  0
  2 13  2  0  0  0  0
  3  4  1  0  0  0  0
  3  7  1  0  0  0  0
  4  8  1  0  0  0  0
  5  6  1  0  0  0  0
  5  7  1  0  0  0  0
  6  8  1  0  0  0  0
  7  9  1  1  0  0  0
  7 14  1  0  0  0  0
  8 10  1  1  0  0  0
  8 14  1  0  0  0  0
  9 15  1  0  0  0  0
 10 16  1  0  0  0  0
  3 17  1  0  0  0  0
  3 18  1  0  0  0  0
  4 19  1  0  0  0  0
  4 20  1  0  0  0  0
  5 21  1  0  0  0  0
  6 22  1  0  0  0  0
  9 23  1  0  0  0  0
  9 24  1  0  0  0  0
 10 25  1  0  0  0  0
 10 26  1  0  0  0  0
 11 27  1  0  0  0  0
 15 28  1  0  0  0  0
 16 29  1  0  0  0  0
M  END
> <id>
EN300-6731327

> <smiles>
OC[C@@]1(CC[C@]2(CO)O1)[C@H]3[C@@H]2C(=O)NC3=O

> <MDLNUMBER>
MFCD31737245

> <IUPAC Name>
(1R,2R,6S,7S)-1,7-bis(hydroxymethyl)-10-oxa-4-azatricyclo[5.2.1.0,2,6]decane-3,5-dione

> <CAS>
2135776-49-5

> <Purity>
95

> <URL>
https://www.enaminestore.com/catalog/EN300-6731327

> <ROCS_ShapeQuery>
x0812_0A_x1140_0A_x1097_0A_x0365_0A_x1097_0A_x0310_0A

> <ROCS_TanimotoCombo>
0.698 

> <ROCS_ShapeTanimoto>
0.241 

> <ROCS_ColorTanimoto>
0.457 

> <ROCS_RefTversky>
0.218 

> <ROCS_RefColorTversky>
0.633 

> <ROCS_RefTverskyCombo>
0.851 

> <ROCS_FitTversky>
1.783 

> <ROCS_FitColorTversky>
0.621 

> <ROCS_FitTverskyCombo>
2.404 

> <ROCS_ColorScore>
-9.591

> <ROCS_Overlap>
2208.832

> <ROCS_Rank>
392                 

$$$$
untitled-dbase-299958_5
  -OEChem-02092408543D

 34 36  0     0  0  0  0  0  0999 V2000
   11.9880   14.0145   23.8804 C   0  0  0  0  0  0  0  0  0  0  0  0
   12.3618   13.9752   22.5371 C   0  0  0  0  0  0  0  0  0  0  0  0
   10.9435   13.2109   24.3375 C   0  0  0  0  0  0  0  0  0  0  0  0
   11.6910   13.1323   21.6509 C   0  0  0  0  0  0  0  0  0  0  0  0
   10.2727   12.3681   23.4513 C   0  0  0  0  0  0  0  0  0  0  0  0
   10.6465   12.3287   22.1080 C   0  0  0  0  0  0  0  0  0  0  0  0
    8.9580   10.8958   25.3943 C   0  0  0  0  0  0  0  0  0  0  0  0
    8.6795   10.1024   23.4361 C   0  0  0  0  0  0  0  0  0  0  0  0
    7.6166   11.8497   24.0388 C   0  0  0  0  0  0  0  0  0  0  0  0
    9.1623   11.5191   23.9531 C   0  0  0  0  0  0  0  0  0  0  0  0
    7.7462   10.4361   24.5927 C   0  0  0  0  0  0  0  0  0  0  0  0
   10.2274    9.6491   19.7421 C   0  0  0  0  0  0  0  0  0  0  0  0
   10.7597   11.0118   20.1310 C   0  0  0  0  0  0  0  0  0  0  0  0
    6.0196   10.2898   26.1622 N   0  0  0  0  0  0  0  0  0  0  0  0
    6.6952    9.6321   25.0682 N   0  0  0  0  0  0  0  0  0  0  0  0
   10.0010   11.5103   21.2311 O   0  0  0  0  0  0  0  0  0  0  0  0
   12.5105   14.6713   24.5697 H   0  0  0  0  0  0  0  0  0  0  0  0
   13.1749   14.6013   22.1816 H   0  0  0  0  0  0  0  0  0  0  0  0
   10.6584   13.2472   25.3854 H   0  0  0  0  0  0  0  0  0  0  0  0
   11.9869   13.1071   20.6057 H   0  0  0  0  0  0  0  0  0  0  0  0
    9.6748   10.1315   25.7125 H   0  0  0  0  0  0  0  0  0  0  0  0
    8.7836   11.5958   26.2184 H   0  0  0  0  0  0  0  0  0  0  0  0
    8.2457   10.0613   22.4313 H   0  0  0  0  0  0  0  0  0  0  0  0
    9.3702    9.2629   23.5688 H   0  0  0  0  0  0  0  0  0  0  0  0
    7.3150   12.6400   24.7343 H   0  0  0  0  0  0  0  0  0  0  0  0
    7.0810   11.9755   23.0919 H   0  0  0  0  0  0  0  0  0  0  0  0
   10.3143    8.9443   20.5737 H   0  0  0  0  0  0  0  0  0  0  0  0
    9.1759    9.7161   19.4438 H   0  0  0  0  0  0  0  0  0  0  0  0
   10.7772    9.2510   18.8827 H   0  0  0  0  0  0  0  0  0  0  0  0
   10.6698   11.7118   19.2950 H   0  0  0  0  0  0  0  0  0  0  0  0
   11.8100   10.9429   20.4295 H   0  0  0  0  0  0  0  0  0  0  0  0
    6.1208    9.7189   27.0010 H   0  0  0  0  0  0  0  0  0  0  0  0
    6.4653   11.1810   26.3767 H   0  0  0  0  0  0  0  0  0  0  0  0
    5.9810    9.4502   24.3383 H   0  0  0  0  0  0  0  0  0  0  0  0
  1  2  1  0  0  0  0
  1  3  2  0  0  0  0
  2  4  2  0  0  0  0
  3  5  1  0  0  0  0
  4  6  1  0  0  0  0
  5  6  2  0  0  0  0
  5 10  1  0  0  0  0
  6 16  1  0  0  0  0
  7 10  1  0  0  0  0
  7 11  1  0  0  0  0
  8 10  1  0  0  0  0
  8 11  1  0  0  0  0
  9 10  1  0  0  0  0
  9 11  1  0  0  0  0
 11 15  1  0  0  0  0
 12 13  1  0  0  0  0
 13 16  1  0  0  0  0
 14 15  1  0  0  0  0
  1 17  1  0  0  0  0
  2 18  1  0  0  0  0
  3 19  1  0  0  0  0
  4 20  1  0  0  0  0
  7 21  1  0  0  0  0
  7 22  1  0  0  0  0
  8 23  1  0  0  0  0
  8 24  1  0  0  0  0
  9 25  1  0  0  0  0
  9 26  1  0  0  0  0
 12 27  1  0  0  0  0
 12 28  1  0  0  0  0
 12 29  1  0  0  0  0
 13 30  1  0  0  0  0
 13 31  1  0  0  0  0
 14 32  1  0  0  0  0
 14 33  1  0  0  0  0
 15 34  1  0  0  0  0
M  END
> <id>
EN300-6760373

> <smiles>
CCOC=1C=CC=CC1C2(CC3(C2)NN)C3

> <IUPAC Name>
[3-(2-ethoxyphenyl)bicyclo[1.1.1]pentan-1-yl]hydrazine

> <CAS>
2287288-40-6

> <URL>
https://www.enaminestore.com/catalog/EN300-6760373

> <ROCS_ShapeQuery>
x0812_0A_x1140_0A_x1097_0A_x0365_0A_x1097_0A_x0310_0A

> <ROCS_TanimotoCombo>
0.698 

> <ROCS_ShapeTanimoto>
0.225 

> <ROCS_ColorTanimoto>
0.473 

> <ROCS_RefTversky>
0.205 

> <ROCS_RefColorTversky>
0.577 

> <ROCS_RefTverskyCombo>
0.783 

> <ROCS_FitTversky>
1.718 

> <ROCS_FitColorTversky>
0.724 

> <ROCS_FitTverskyCombo>
2.442 

> <ROCS_ColorScore>
-8.640

> <ROCS_Overlap>
2078.873

> <ROCS_Rank>
393                 

$$$$
untitled-dbase-516246_9
  -OEChem-02092408543D

 36 38  0     1  0  0  0  0  0999 V2000
    3.0892    9.8980   29.7765 C   0  0  0  0  0  0  0  0  0  0  0  0
    4.0721    9.2191   30.4966 C   0  0  0  0  0  0  0  0  0  0  0  0
    3.4535   10.8694   28.8440 C   0  0  0  0  0  0  0  0  0  0  0  0
    5.4194    9.5116   30.2843 C   0  0  0  0  0  0  0  0  0  0  0  0
    4.8007   11.1619   28.6318 C   0  0  0  0  0  0  0  0  0  0  0  0
    5.7837   10.4830   29.3519 C   0  0  0  0  0  0  0  0  0  0  0  0
    7.6846   10.2355   26.8611 C   0  0  0  0  0  0  0  0  0  0  0  0
    7.5053   10.7279   23.2926 C   0  0  0  0  0  0  0  0  0  0  0  0
    7.7356   12.1397   25.1802 C   0  0  0  0  0  0  0  0  0  0  0  0
    8.1611   12.0547   23.7040 C   0  0  1  0  0  0  0  0  0  0  0  0
    8.1945    9.9416   24.4106 C   0  0  1  0  0  0  0  0  0  0  0  0
    9.6634   11.6865   23.6321 C   0  0  1  0  0  0  0  0  0  0  0  0
    9.6831   10.2129   24.1134 C   0  0  2  0  0  0  0  0  0  0  0  0
    7.2327   10.7984   29.1233 C   0  0  0  0  0  0  0  0  0  0  0  0
    7.8382   10.7389   25.5868 N   0  0  0  0  0  0  0  0  0  0  0  0
    7.7810    9.0456   27.1512 O   0  0  0  0  0  0  0  0  0  0  0  0
   10.1262   11.8294   22.2992 O   0  0  0  0  0  0  0  0  0  0  0  0
   10.1416    9.3147   23.1166 O   0  0  0  0  0  0  0  0  0  0  0  0
    7.4102   11.2238   27.7676 O   0  0  0  0  0  0  0  0  0  0  0  0
    2.0403    9.6692   29.9409 H   0  0  0  0  0  0  0  0  0  0  0  0
    3.7887    8.4620   31.2218 H   0  0  0  0  0  0  0  0  0  0  0  0
    2.6886   11.3974   28.2824 H   0  0  0  0  0  0  0  0  0  0  0  0
    6.1784    8.9778   30.8501 H   0  0  0  0  0  0  0  0  0  0  0  0
    5.0752   11.9204   27.9034 H   0  0  0  0  0  0  0  0  0  0  0  0
    6.4139   10.7394   23.3873 H   0  0  0  0  0  0  0  0  0  0  0  0
    7.7801   10.3973   22.2857 H   0  0  0  0  0  0  0  0  0  0  0  0
    8.3862   12.7678   25.7958 H   0  0  0  0  0  0  0  0  0  0  0  0
    6.6945   12.4579   25.2975 H   0  0  0  0  0  0  0  0  0  0  0  0
    7.8707   12.9116   23.0930 H   0  0  0  0  0  0  0  0  0  0  0  0
    7.9194    8.8878   24.4910 H   0  0  0  0  0  0  0  0  0  0  0  0
   10.2583   12.3364   24.2829 H   0  0  0  0  0  0  0  0  0  0  0  0
   10.2974   10.0819   25.0112 H   0  0  0  0  0  0  0  0  0  0  0  0
    7.5711   11.5949   29.7947 H   0  0  0  0  0  0  0  0  0  0  0  0
    7.8553    9.9161   29.3073 H   0  0  0  0  0  0  0  0  0  0  0  0
    9.9889   12.7585   22.0497 H   0  0  0  0  0  0  0  0  0  0  0  0
   10.0205    8.4164   23.4671 H   0  0  0  0  0  0  0  0  0  0  0  0
  1  2  1  0  0  0  0
  1  3  2  0  0  0  0
  2  4  2  0  0  0  0
  3  5  1  0  0  0  0
  4  6  1  0  0  0  0
  5  6  2  0  0  0  0
  6 14  1  0  0  0  0
  7 15  1  0  0  0  0
  7 16  2  0  0  0  0
  7 19  1  0  0  0  0
  8 10  1  1  0  0  0
  8 11  1  1  0  0  0
  9 10  1  0  0  0  0
  9 15  1  0  0  0  0
 10 12  1  0  0  0  0
 11 13  1  0  0  0  0
 11 15  1  0  0  0  0
 12 13  1  0  0  0  0
 12 17  1  1  0  0  0
 13 18  1  1  0  0  0
 14 19  1  0  0  0  0
  1 20  1  0  0  0  0
  2 21  1  0  0  0  0
  3 22  1  0  0  0  0
  4 23  1  0  0  0  0
  5 24  1  0  0  0  0
  8 25  1  0  0  0  0
  8 26  1  0  0  0  0
  9 27  1  0  0  0  0
  9 28  1  0  0  0  0
 10 29  1  0  0  0  0
 11 30  1  0  0  0  0
 12 31  1  0  0  0  0
 13 32  1  0  0  0  0
 14 33  1  0  0  0  0
 14 34  1  0  0  0  0
 17 35  1  0  0  0  0
 18 36  1  0  0  0  0
M  END
> <id>
EN300-7082837

> <smiles>
O[C@@H]1[C@H](O)[C@@H]2C[C@H]1CN2C(=O)OCC=3C=CC=CC3 |&1:1,2,4,6,r|

> <IUPAC Name>
rac-benzyl (1R,4R,5R,6S)-5,6-dihydroxy-2-azabicyclo[2.2.1]heptane-2-carboxylate

> <CAS>
2679926-44-2

> <URL>
https://www.enaminestore.com/catalog/EN300-7082837

> <ROCS_ShapeQuery>
x0812_0A_x1140_0A_x1097_0A_x0365_0A_x1097_0A_x0310_0A

> <ROCS_TanimotoCombo>
0.698 

> <ROCS_ShapeTanimoto>
0.203 

> <ROCS_ColorTanimoto>
0.495 

> <ROCS_RefTversky>
0.191 

> <ROCS_RefColorTversky>
0.607 

> <ROCS_RefTverskyCombo>
0.798 

> <ROCS_FitTversky>
1.433 

> <ROCS_FitColorTversky>
0.728 

> <ROCS_FitTverskyCombo>
2.161 

> <ROCS_ColorScore>
-9.103

> <ROCS_Overlap>
1936.759

> <ROCS_Rank>
394                 

$$$$
untitled-dbase-567656_8
  -OEChem-02092408543D

 21 22  0     0  0  0  0  0  0999 V2000
    9.5949   11.4796   22.1276 C   0  0  0  0  0  0  0  0  0  0  0  0
    7.6483   11.8908   23.7857 C   0  0  0  0  0  0  0  0  0  0  0  0
    9.4925   11.5668   24.7140 C   0  0  0  0  0  0  0  0  0  0  0  0
    8.5611    9.6217   23.5326 C   0  0  0  0  0  0  0  0  0  0  0  0
    8.9228   11.1028   23.3312 C   0  0  0  0  0  0  0  0  0  0  0  0
    8.0292   11.1228   25.1134 C   0  0  0  0  0  0  0  0  0  0  0  0
    7.4311   11.5016   26.4336 C   0  0  0  0  0  0  0  0  0  0  0  0
   10.1405   11.7855   21.1504 N   0  0  0  0  0  0  0  0  0  0  0  0
    5.5896   13.0425   25.3816 O   0  0  0  0  0  0  0  0  0  0  0  0
    5.1292   11.9329   27.6118 O   0  0  0  0  0  0  0  0  0  0  0  0
    7.9259    9.7001   24.8221 O   0  0  0  0  0  0  0  0  0  0  0  0
    5.7185   11.9190   26.2879 S   0  0  0  0  0  0  0  0  0  0  0  0
    4.8185   10.3532   25.3230 Cl  0  0  0  0  0  0  0  0  0  0  0  0
    7.7128   12.9847   23.8101 H   0  0  0  0  0  0  0  0  0  0  0  0
    6.7028   11.5947   23.3212 H   0  0  0  0  0  0  0  0  0  0  0  0
   10.3027   10.9625   25.1333 H   0  0  0  0  0  0  0  0  0  0  0  0
    9.7367   12.6291   24.8288 H   0  0  0  0  0  0  0  0  0  0  0  0
    7.8459    9.2499   22.7928 H   0  0  0  0  0  0  0  0  0  0  0  0
    9.4380    8.9703   23.5940 H   0  0  0  0  0  0  0  0  0  0  0  0
    7.9307   12.3780   26.8688 H   0  0  0  0  0  0  0  0  0  0  0  0
    7.4920   10.6779   27.1579 H   0  0  0  0  0  0  0  0  0  0  0  0
  1  5  1  1  0  0  0
  1  8  3  0  0  0  0
  2  5  1  0  0  0  0
  2  6  1  0  0  0  0
  3  5  1  0  0  0  0
  3  6  1  0  0  0  0
  4  5  1  0  0  0  0
  4 11  1  0  0  0  0
  6  7  1  1  0  0  0
  6 11  1  0  0  0  0
  7 12  1  0  0  0  0
  9 12  2  0  0  0  0
 10 12  2  0  0  0  0
 12 13  1  0  0  0  0
  2 14  1  0  0  0  0
  2 15  1  0  0  0  0
  3 16  1  0  0  0  0
  3 17  1  0  0  0  0
  4 18  1  0  0  0  0
  4 19  1  0  0  0  0
  7 20  1  0  0  0  0
  7 21  1  0  0  0  0
M  END
> <id>
EN300-37375259

> <smiles>
ClS(=O)(=O)C[C@]1(C[C@]2(C1)C#N)OC2

> <IUPAC Name>
{4-cyano-2-oxabicyclo[2.1.1]hexan-1-yl}methanesulfonyl chloride

> <CAS>
2243509-66-0

> <URL>
https://www.enaminestore.com/catalog/EN300-37375259

> <ROCS_ShapeQuery>
x0812_0A_x1140_0A_x1097_0A_x0365_0A_x1097_0A_x0310_0A

> <ROCS_TanimotoCombo>
0.698 

> <ROCS_ShapeTanimoto>
0.208 

> <ROCS_ColorTanimoto>
0.489 

> <ROCS_RefTversky>
0.190 

> <ROCS_RefColorTversky>
0.530 

> <ROCS_RefTverskyCombo>
0.720 

> <ROCS_FitTversky>
1.835 

> <ROCS_FitColorTversky>
0.864 

> <ROCS_FitTverskyCombo>
2.699 

> <ROCS_ColorScore>
-7.855

> <ROCS_Overlap>
1924.543

> <ROCS_Rank>
395                 

$$$$
untitled-dbase-281351_5
  -OEChem-02092408543D

 21 22  0     0  0  0  0  0  0999 V2000
    9.5957   11.4780   22.1270 C   0  0  0  0  0  0  0  0  0  0  0  0
    9.4923   11.5685   24.7133 C   0  0  0  0  0  0  0  0  0  0  0  0
    7.6485   11.8913   23.7836 C   0  0  0  0  0  0  0  0  0  0  0  0
    8.5614    9.6218   23.5340 C   0  0  0  0  0  0  0  0  0  0  0  0
    8.9232   11.1027   23.3308 C   0  0  0  0  0  0  0  0  0  0  0  0
    8.0288   11.1250   25.1125 C   0  0  0  0  0  0  0  0  0  0  0  0
    7.4301   11.5053   26.4323 C   0  0  0  0  0  0  0  0  0  0  0  0
   10.1418   11.7827   21.1497 N   0  0  0  0  0  0  0  0  0  0  0  0
    5.1842   11.3222   27.7719 O   0  0  0  0  0  0  0  0  0  0  0  0
    5.2617   10.4645   25.3896 O   0  0  0  0  0  0  0  0  0  0  0  0
    7.9255    9.7019   24.8230 O   0  0  0  0  0  0  0  0  0  0  0  0
    5.6640   11.4144   26.4075 S   0  0  0  0  0  0  0  0  0  0  0  0
    4.9977   13.2291   25.7325 Cl  0  0  0  0  0  0  0  0  0  0  0  0
   10.3026   10.9651   25.1336 H   0  0  0  0  0  0  0  0  0  0  0  0
    9.7354   12.6311   24.8275 H   0  0  0  0  0  0  0  0  0  0  0  0
    7.7128   12.9853   23.8056 H   0  0  0  0  0  0  0  0  0  0  0  0
    6.7030   11.5941   23.3198 H   0  0  0  0  0  0  0  0  0  0  0  0
    7.8468    9.2486   22.7943 H   0  0  0  0  0  0  0  0  0  0  0  0
    9.4385    8.9708   23.5973 H   0  0  0  0  0  0  0  0  0  0  0  0
    7.6865   12.5364   26.7118 H   0  0  0  0  0  0  0  0  0  0  0  0
    7.7667   10.8383   27.2375 H   0  0  0  0  0  0  0  0  0  0  0  0
  1  5  1  0  0  0  0
  1  8  3  0  0  0  0
  2  5  1  0  0  0  0
  2  6  1  0  0  0  0
  3  5  1  0  0  0  0
  3  6  1  0  0  0  0
  4  5  1  0  0  0  0
  4 11  1  0  0  0  0
  6  7  1  0  0  0  0
  6 11  1  0  0  0  0
  7 12  1  0  0  0  0
  9 12  2  0  0  0  0
 10 12  2  0  0  0  0
 12 13  1  0  0  0  0
  2 14  1  0  0  0  0
  2 15  1  0  0  0  0
  3 16  1  0  0  0  0
  3 17  1  0  0  0  0
  4 18  1  0  0  0  0
  4 19  1  0  0  0  0
  7 20  1  0  0  0  0
  7 21  1  0  0  0  0
M  END
> <id>
EN300-6482097

> <smiles>
ClS(=O)(=O)CC1(CC2(C1)C#N)OC2

> <MDLNUMBER>
MFCD31668357

> <IUPAC Name>
{4-cyano-2-oxabicyclo[2.1.1]hexan-1-yl}methanesulfonyl chloride

> <CAS>
2243509-66-0

> <Purity>
95

> <URL>
https://www.enaminestore.com/catalog/EN300-6482097

> <ROCS_ShapeQuery>
x0812_0A_x1140_0A_x1097_0A_x0365_0A_x1097_0A_x0310_0A

> <ROCS_TanimotoCombo>
0.698 

> <ROCS_ShapeTanimoto>
0.208 

> <ROCS_ColorTanimoto>
0.489 

> <ROCS_RefTversky>
0.190 

> <ROCS_RefColorTversky>
0.530 

> <ROCS_RefTverskyCombo>
0.720 

> <ROCS_FitTversky>
1.835 

> <ROCS_FitColorTversky>
0.864 

> <ROCS_FitTverskyCombo>
2.699 

> <ROCS_ColorScore>
-7.855

> <ROCS_Overlap>
1924.460

> <ROCS_Rank>
396                 

$$$$
untitled-dbase-491213_5
  -OEChem-02092408543D

 39 41  0     0  0  0  0  0  0999 V2000
    9.7626   12.1255   22.3647 C   0  0  0  0  0  0  0  0  0  0  0  0
    8.9809   11.9765   24.9315 C   0  0  0  0  0  0  0  0  0  0  0  0
    7.4465   11.5155   23.5826 C   0  0  0  0  0  0  0  0  0  0  0  0
    9.1374    8.9585   22.5337 C   0  0  0  0  0  0  0  0  0  0  0  0
   10.6711    9.4193   23.8812 C   0  0  0  0  0  0  0  0  0  0  0  0
    9.0184   11.3871   23.4642 C   0  0  0  0  0  0  0  0  0  0  0  0
    9.2088    9.8601   23.7694 C   0  0  0  0  0  0  0  0  0  0  0  0
    7.7876   10.9418   25.0167 C   0  0  0  0  0  0  0  0  0  0  0  0
   10.1083   14.4876   20.8163 C   0  0  0  0  0  0  0  0  0  0  0  0
   11.5805   15.2792   22.6912 C   0  0  0  0  0  0  0  0  0  0  0  0
   12.2075   13.2238   21.3912 C   0  0  0  0  0  0  0  0  0  0  0  0
    6.7802   11.0503   26.1254 C   0  0  0  0  0  0  0  0  0  0  0  0
   11.0518   14.0596   21.9394 C   0  0  0  0  0  0  0  0  0  0  0  0
   10.6108    8.9612   22.4810 N   0  0  0  0  0  0  0  0  0  0  0  0
    9.8379   11.7358   21.2072 O   0  0  0  0  0  0  0  0  0  0  0  0
    8.3173    9.5828   24.8788 O   0  0  0  0  0  0  0  0  0  0  0  0
    5.5891   10.3653   25.7527 O   0  0  0  0  0  0  0  0  0  0  0  0
   10.3162   13.2629   22.8734 O   0  0  0  0  0  0  0  0  0  0  0  0
    9.8444   11.7574   25.5664 H   0  0  0  0  0  0  0  0  0  0  0  0
    8.7253   13.0379   25.0276 H   0  0  0  0  0  0  0  0  0  0  0  0
    7.0323   12.5292   23.5393 H   0  0  0  0  0  0  0  0  0  0  0  0
    6.8544   10.8591   22.9382 H   0  0  0  0  0  0  0  0  0  0  0  0
    8.7062    7.9697   22.7295 H   0  0  0  0  0  0  0  0  0  0  0  0
    8.6545    9.3758   21.6453 H   0  0  0  0  0  0  0  0  0  0  0  0
   11.4106   10.2037   24.0666 H   0  0  0  0  0  0  0  0  0  0  0  0
   10.8373    8.6098   24.6017 H   0  0  0  0  0  0  0  0  0  0  0  0
    9.7267   13.6150   20.2743 H   0  0  0  0  0  0  0  0  0  0  0  0
    9.2565   15.0582   21.2006 H   0  0  0  0  0  0  0  0  0  0  0  0
   10.6335   15.1047   20.0783 H   0  0  0  0  0  0  0  0  0  0  0  0
   12.2579   14.9768   23.4980 H   0  0  0  0  0  0  0  0  0  0  0  0
   10.7609   15.8301   23.1667 H   0  0  0  0  0  0  0  0  0  0  0  0
   12.1175   15.9627   22.0256 H   0  0  0  0  0  0  0  0  0  0  0  0
   12.8845   12.9166   22.1966 H   0  0  0  0  0  0  0  0  0  0  0  0
   11.8481   12.3247   20.8802 H   0  0  0  0  0  0  0  0  0  0  0  0
   12.8105   13.8075   20.6863 H   0  0  0  0  0  0  0  0  0  0  0  0
    6.5252   12.0994   26.3270 H   0  0  0  0  0  0  0  0  0  0  0  0
    7.1609   10.5998   27.0519 H   0  0  0  0  0  0  0  0  0  0  0  0
   11.0356    8.0518   22.3084 H   0  0  0  0  0  0  0  0  0  0  0  0
    4.9702   10.4610   26.4938 H   0  0  0  0  0  0  0  0  0  0  0  0
  1  6  1  0  0  0  0
  1 15  2  0  0  0  0
  1 18  1  0  0  0  0
  2  6  1  0  0  0  0
  2  8  1  0  0  0  0
  3  6  1  0  0  0  0
  3  8  1  0  0  0  0
  4  7  1  0  0  0  0
  4 14  1  0  0  0  0
  5  7  1  0  0  0  0
  5 14  1  0  0  0  0
  6  7  1  0  0  0  0
  7 16  1  0  0  0  0
  8 12  1  0  0  0  0
  8 16  1  0  0  0  0
  9 13  1  0  0  0  0
 10 13  1  0  0  0  0
 11 13  1  0  0  0  0
 12 17  1  0  0  0  0
 13 18  1  0  0  0  0
  2 19  1  0  0  0  0
  2 20  1  0  0  0  0
  3 21  1  0  0  0  0
  3 22  1  0  0  0  0
  4 23  1  0  0  0  0
  4 24  1  0  0  0  0
  5 25  1  0  0  0  0
  5 26  1  0  0  0  0
  9 27  1  0  0  0  0
  9 28  1  0  0  0  0
  9 29  1  0  0  0  0
 10 30  1  0  0  0  0
 10 31  1  0  0  0  0
 10 32  1  0  0  0  0
 11 33  1  0  0  0  0
 11 34  1  0  0  0  0
 11 35  1  0  0  0  0
 12 36  1  0  0  0  0
 12 37  1  0  0  0  0
 14 38  1  0  0  0  0
 17 39  1  0  0  0  0
M  END
> <id>
EN300-27731574

> <smiles>
CC(C)(C)OC(=O)C1(CC2(CO)C1)C3(CNC3)O2

> <IUPAC Name>
tert-butyl 4'-(hydroxymethyl)-3'-oxaspiro[azetidine-3,2'-bicyclo[2.1.1]hexane]-1'-carboxylate

> <CAS>
2639459-46-2

> <URL>
https://www.enaminestore.com/catalog/EN300-27731574

> <ROCS_ShapeQuery>
x0812_0A_x1140_0A_x1097_0A_x0365_0A_x1097_0A_x0310_0A

> <ROCS_TanimotoCombo>
0.698 

> <ROCS_ShapeTanimoto>
0.279 

> <ROCS_ColorTanimoto>
0.418 

> <ROCS_RefTversky>
0.246 

> <ROCS_RefColorTversky>
0.584 

> <ROCS_RefTverskyCombo>
0.830 

> <ROCS_FitTversky>
1.921 

> <ROCS_FitColorTversky>
0.596 

> <ROCS_FitTverskyCombo>
2.516 

> <ROCS_ColorScore>
-8.823

> <ROCS_Overlap>
2494.596

> <ROCS_Rank>
397                 

$$$$
untitled-dbase-17807_0
  -OEChem-02092408543D

 29 30  0     1  0  0  0  0  0999 V2000
    7.0517   11.1169   23.3673 C   0  0  0  0  0  0  0  0  0  0  0  0
    8.3648   11.5841   22.7169 C   0  0  0  0  0  0  0  0  0  0  0  0
    8.3137    9.6826   24.9415 C   0  0  0  0  0  0  0  0  0  0  0  0
    7.4412   10.9581   24.8541 C   0  0  1  0  0  0  0  0  0  0  0  0
    9.6498   10.1431   24.3296 C   0  0  2  0  0  0  0  0  0  0  0  0
    9.3514   11.6167   23.9184 C   0  0  2  0  0  0  0  0  0  0  0  0
    8.4505   12.1135   25.0897 C   0  0  0  0  0  0  0  0  0  0  0  0
   10.6020   12.4241   23.6245 C   0  0  0  0  0  0  0  0  0  0  0  0
    7.8462   13.5212   24.9117 C   0  0  0  0  0  0  0  0  0  0  0  0
    9.1046   12.1033   26.4859 C   0  0  0  0  0  0  0  0  0  0  0  0
   10.0125    9.3160   23.2376 O   0  0  0  0  0  0  0  0  0  0  0  0
    6.2639   11.8663   23.2366 H   0  0  0  0  0  0  0  0  0  0  0  0
    6.6902   10.1821   22.9260 H   0  0  0  0  0  0  0  0  0  0  0  0
    8.6809   10.9076   21.9165 H   0  0  0  0  0  0  0  0  0  0  0  0
    8.2398   12.5729   22.2614 H   0  0  0  0  0  0  0  0  0  0  0  0
    8.4524    9.3858   25.9867 H   0  0  0  0  0  0  0  0  0  0  0  0
    7.8700    8.8318   24.4135 H   0  0  0  0  0  0  0  0  0  0  0  0
    6.5798   10.9376   25.5259 H   0  0  0  0  0  0  0  0  0  0  0  0
   10.4538   10.0763   25.0706 H   0  0  0  0  0  0  0  0  0  0  0  0
   11.2668   12.4220   24.4910 H   0  0  0  0  0  0  0  0  0  0  0  0
   10.3392   13.4577   23.3891 H   0  0  0  0  0  0  0  0  0  0  0  0
   11.1372   11.9975   22.7733 H   0  0  0  0  0  0  0  0  0  0  0  0
    8.6156   14.2625   25.0938 H   0  0  0  0  0  0  0  0  0  0  0  0
    7.0355   13.6507   25.6192 H   0  0  0  0  0  0  0  0  0  0  0  0
    7.4714   13.6203   23.8996 H   0  0  0  0  0  0  0  0  0  0  0  0
    9.7903   12.9393   26.5623 H   0  0  0  0  0  0  0  0  0  0  0  0
    9.6435   11.1722   26.6181 H   0  0  0  0  0  0  0  0  0  0  0  0
    8.3313   12.1914   27.2404 H   0  0  0  0  0  0  0  0  0  0  0  0
   10.0970    8.4110   23.5822 H   0  0  0  0  0  0  0  0  0  0  0  0
  1  2  1  0  0  0  0
  1  4  1  1  0  0  0
  2  6  1  0  0  0  0
  3  4  1  0  0  0  0
  3  5  1  0  0  0  0
  4  7  1  0  0  0  0
  5  6  1  0  0  0  0
  5 11  1  1  0  0  0
  6  7  1  0  0  0  0
  6  8  1  6  0  0  0
  7  9  1  0  0  0  0
  7 10  1  0  0  0  0
  1 12  1  0  0  0  0
  1 13  1  0  0  0  0
  2 14  1  0  0  0  0
  2 15  1  0  0  0  0
  3 16  1  0  0  0  0
  3 17  1  0  0  0  0
  4 18  1  0  0  0  0
  5 19  1  0  0  0  0
  8 20  1  0  0  0  0
  8 21  1  0  0  0  0
  8 22  1  0  0  0  0
  9 23  1  0  0  0  0
  9 24  1  0  0  0  0
  9 25  1  0  0  0  0
 10 26  1  0  0  0  0
 10 27  1  0  0  0  0
 10 28  1  0  0  0  0
 11 29  1  0  0  0  0
M  END
> <id>
EN300-105274

> <smiles>
CC1(C)[C@H]2CC[C@]1(C)[C@H](O)C2

> <MDLNUMBER>
MFCD00003759

> <IUPAC Name>
(1S,2R,4S)-1,7,7-trimethylbicyclo[2.2.1]heptan-2-ol

> <CAS>
464-45-9

> <Purity>
95

> <URL>
https://www.enaminestore.com/catalog/EN300-105274

> <MP>
206-209

> <ROCS_ShapeQuery>
x0812_0A_x1140_0A_x1097_0A_x0365_0A_x1097_0A_x0310_0A

> <ROCS_TanimotoCombo>
0.697 

> <ROCS_ShapeTanimoto>
0.205 

> <ROCS_ColorTanimoto>
0.492 

> <ROCS_RefTversky>
0.187 

> <ROCS_RefColorTversky>
0.543 

> <ROCS_RefTverskyCombo>
0.730 

> <ROCS_FitTversky>
1.917 

> <ROCS_FitColorTversky>
0.841 

> <ROCS_FitTverskyCombo>
2.757 

> <ROCS_ColorScore>
-8.060

> <ROCS_Overlap>
1886.758

> <ROCS_Rank>
398                 

$$$$
untitled-dbase-498596_7
  -OEChem-02092408543D

 26 27  0     0  0  0  0  0  0999 V2000
    9.3587    9.1991   22.7395 C   0  0  0  0  0  0  0  0  0  0  0  0
    9.8945   12.2184   22.2926 C   0  0  0  0  0  0  0  0  0  0  0  0
    8.9671   10.2058   25.1943 C   0  0  0  0  0  0  0  0  0  0  0  0
    7.2660   10.3265   23.9805 C   0  0  0  0  0  0  0  0  0  0  0  0
    8.4289   12.4849   24.3700 C   0  0  0  0  0  0  0  0  0  0  0  0
    8.8034   10.2980   23.6281 C   0  0  0  0  0  0  0  0  0  0  0  0
    7.8180   11.2769   25.1062 C   0  0  0  0  0  0  0  0  0  0  0  0
    6.9797   11.5894   26.3122 C   0  0  0  0  0  0  0  0  0  0  0  0
   10.6098   13.5095   22.5998 C   0  0  0  0  0  0  0  0  0  0  0  0
    9.1226   11.7230   23.3226 N   0  0  0  0  0  0  0  0  0  0  0  0
    8.8932    8.8675   21.6594 O   0  0  0  0  0  0  0  0  0  0  0  0
   10.0204   11.6836   21.1912 O   0  0  0  0  0  0  0  0  0  0  0  0
   10.4477    8.6274   23.3092 O   0  0  0  0  0  0  0  0  0  0  0  0
    7.3787   10.8019   27.3341 F   0  0  0  0  0  0  0  0  0  0  0  0
    5.6937   11.2809   26.0389 F   0  0  0  0  0  0  0  0  0  0  0  0
   10.3342   13.9159   23.8519 F   0  0  0  0  0  0  0  0  0  0  0  0
   11.9411   13.3514   22.4911 F   0  0  0  0  0  0  0  0  0  0  0  0
   10.2298   14.4791   21.7484 F   0  0  0  0  0  0  0  0  0  0  0  0
    8.7103    9.2456   25.6570 H   0  0  0  0  0  0  0  0  0  0  0  0
    9.9200   10.5538   25.6054 H   0  0  0  0  0  0  0  0  0  0  0  0
    6.6055   10.7892   23.2403 H   0  0  0  0  0  0  0  0  0  0  0  0
    6.8222    9.3796   24.3096 H   0  0  0  0  0  0  0  0  0  0  0  0
    7.6819   13.1467   23.9232 H   0  0  0  0  0  0  0  0  0  0  0  0
    9.1513   13.0429   24.9719 H   0  0  0  0  0  0  0  0  0  0  0  0
    7.0591   12.6349   26.5954 H   0  0  0  0  0  0  0  0  0  0  0  0
   10.8207    7.9125   22.7505 H   0  0  0  0  0  0  0  0  0  0  0  0
  1  6  1  0  0  0  0
  1 11  2  0  0  0  0
  1 13  1  0  0  0  0
  2  9  1  0  0  0  0
  2 10  1  0  0  0  0
  2 12  2  0  0  0  0
  3  6  1  0  0  0  0
  3  7  1  0  0  0  0
  4  6  1  0  0  0  0
  4  7  1  0  0  0  0
  5  7  1  0  0  0  0
  5 10  1  0  0  0  0
  6 10  1  0  0  0  0
  7  8  1  0  0  0  0
  8 14  1  0  0  0  0
  8 15  1  0  0  0  0
  9 16  1  0  0  0  0
  9 17  1  0  0  0  0
  9 18  1  0  0  0  0
  3 19  1  0  0  0  0
  3 20  1  0  0  0  0
  4 21  1  0  0  0  0
  4 22  1  0  0  0  0
  5 23  1  0  0  0  0
  5 24  1  0  0  0  0
  8 25  1  0  0  0  0
 13 26  1  0  0  0  0
M  END
> <id>
EN300-28283797

> <smiles>
OC(=O)C1(CC2(C1)C(F)F)N(C2)C(=O)C(F)(F)F

> <IUPAC Name>
4-(difluoromethyl)-2-(2,2,2-trifluoroacetyl)-2-azabicyclo[2.1.1]hexane-1-carboxylic acid

> <CAS>
2680845-49-0

> <URL>
https://www.enaminestore.com/catalog/EN300-28283797

> <ROCS_ShapeQuery>
x0812_0A_x1140_0A_x1097_0A_x0365_0A_x1097_0A_x0310_0A

> <ROCS_TanimotoCombo>
0.697 

> <ROCS_ShapeTanimoto>
0.286 

> <ROCS_ColorTanimoto>
0.411 

> <ROCS_RefTversky>
0.251 

> <ROCS_RefColorTversky>
0.506 

> <ROCS_RefTverskyCombo>
0.758 

> <ROCS_FitTversky>
1.928 

> <ROCS_FitColorTversky>
0.687 

> <ROCS_FitTverskyCombo>
2.614 

> <ROCS_ColorScore>
-7.555

> <ROCS_Overlap>
2544.546

> <ROCS_Rank>
399                 

$$$$
untitled-dbase-262798_7
  -OEChem-02092408543D

 43 44  0     1  0  0  0  0  0999 V2000
   11.8423   13.5549   22.5411 C   0  0  0  0  0  0  0  0  0  0  0  0
    8.1363    9.8506   25.6031 C   0  0  0  0  0  0  0  0  0  0  0  0
    7.1925    9.6764   24.4040 C   0  0  0  0  0  0  0  0  0  0  0  0
    7.5700   12.0039   24.7540 C   0  0  0  0  0  0  0  0  0  0  0  0
    9.9722   11.3331   24.6004 C   0  0  0  0  0  0  0  0  0  0  0  0
    8.3893   11.0453   22.5975 C   0  0  0  0  0  0  0  0  0  0  0  0
    8.7003   11.2717   25.4712 C   0  0  2  0  0  0  0  0  0  0  0  0
    7.2556   11.0072   23.6424 C   0  0  1  0  0  0  0  0  0  0  0  0
    9.7900   10.7526   23.1810 C   0  0  0  0  0  0  0  0  0  0  0  0
   13.6875   15.6174   21.8400 C   0  0  0  0  0  0  0  0  0  0  0  0
   11.8340   17.2138   22.4105 C   0  0  0  0  0  0  0  0  0  0  0  0
   12.7743   15.7040   24.1838 C   0  0  0  0  0  0  0  0  0  0  0  0
   10.8853   11.2750   22.2464 C   0  0  0  0  0  0  0  0  0  0  0  0
   12.4438   15.8436   22.6985 C   0  0  0  0  0  0  0  0  0  0  0  0
   10.8134   12.6938   22.1726 N   0  0  0  0  0  0  0  0  0  0  0  0
   12.9344   13.2012   22.9734 O   0  0  0  0  0  0  0  0  0  0  0  0
    9.9724    9.3336   23.2637 O   0  0  0  0  0  0  0  0  0  0  0  0
   11.4664   14.8554   22.3540 O   0  0  0  0  0  0  0  0  0  0  0  0
    7.5572    9.7634   26.5306 H   0  0  0  0  0  0  0  0  0  0  0  0
    8.9155    9.0833   25.6388 H   0  0  0  0  0  0  0  0  0  0  0  0
    7.4579    8.8161   23.7822 H   0  0  0  0  0  0  0  0  0  0  0  0
    6.1735    9.5041   24.7717 H   0  0  0  0  0  0  0  0  0  0  0  0
    6.7065   12.1340   25.4177 H   0  0  0  0  0  0  0  0  0  0  0  0
    7.8646   12.9895   24.3792 H   0  0  0  0  0  0  0  0  0  0  0  0
   10.2742   12.3864   24.5295 H   0  0  0  0  0  0  0  0  0  0  0  0
   10.7805   10.8018   25.1191 H   0  0  0  0  0  0  0  0  0  0  0  0
    8.1566   10.3285   21.8000 H   0  0  0  0  0  0  0  0  0  0  0  0
    8.3854   12.0439   22.1410 H   0  0  0  0  0  0  0  0  0  0  0  0
    8.9086   11.7095   26.4529 H   0  0  0  0  0  0  0  0  0  0  0  0
    6.3015   11.2321   23.1543 H   0  0  0  0  0  0  0  0  0  0  0  0
   14.1282   14.6349   22.0438 H   0  0  0  0  0  0  0  0  0  0  0  0
   13.4569   15.6803   20.7715 H   0  0  0  0  0  0  0  0  0  0  0  0
   14.4621   16.3576   22.0711 H   0  0  0  0  0  0  0  0  0  0  0  0
   10.9414   17.3804   23.0243 H   0  0  0  0  0  0  0  0  0  0  0  0
   11.5082   17.2844   21.3664 H   0  0  0  0  0  0  0  0  0  0  0  0
   12.5457   18.0221   22.6070 H   0  0  0  0  0  0  0  0  0  0  0  0
   11.8824   15.8662   24.7997 H   0  0  0  0  0  0  0  0  0  0  0  0
   13.1788   14.7134   24.4155 H   0  0  0  0  0  0  0  0  0  0  0  0
   13.5053   16.4597   24.4930 H   0  0  0  0  0  0  0  0  0  0  0  0
   11.8378   10.9573   22.6637 H   0  0  0  0  0  0  0  0  0  0  0  0
   10.7111   10.8277   21.2708 H   0  0  0  0  0  0  0  0  0  0  0  0
    9.9433   13.1107   21.8237 H   0  0  0  0  0  0  0  0  0  0  0  0
   10.8705    9.1974   23.5970 H   0  0  0  0  0  0  0  0  0  0  0  0
  1 15  1  0  0  0  0
  1 16  2  0  0  0  0
  1 18  1  0  0  0  0
  2  3  1  0  0  0  0
  2  7  1  0  0  0  0
  3  8  1  0  0  0  0
  4  7  1  0  0  0  0
  4  8  1  0  0  0  0
  5  7  1  0  0  0  0
  5  9  1  0  0  0  0
  6  8  1  0  0  0  0
  6  9  1  0  0  0  0
  9 13  1  0  0  0  0
  9 17  1  0  0  0  0
 10 14  1  0  0  0  0
 11 14  1  0  0  0  0
 12 14  1  0  0  0  0
 13 15  1  0  0  0  0
 14 18  1  0  0  0  0
  2 19  1  0  0  0  0
  2 20  1  0  0  0  0
  3 21  1  0  0  0  0
  3 22  1  0  0  0  0
  4 23  1  0  0  0  0
  4 24  1  0  0  0  0
  5 25  1  0  0  0  0
  5 26  1  0  0  0  0
  6 27  1  0  0  0  0
  6 28  1  0  0  0  0
  7 29  1  0  0  0  0
  8 30  1  0  0  0  0
 10 31  1  0  0  0  0
 10 32  1  0  0  0  0
 10 33  1  0  0  0  0
 11 34  1  0  0  0  0
 11 35  1  0  0  0  0
 11 36  1  0  0  0  0
 12 37  1  0  0  0  0
 12 38  1  0  0  0  0
 12 39  1  0  0  0  0
 13 40  1  0  0  0  0
 13 41  1  0  0  0  0
 15 42  1  0  0  0  0
 17 43  1  0  0  0  0
M  END
> <id>
EN300-7548404

> <smiles>
CC(C)(C)OC(=O)NCC1(O)CC2CCC(C2)C1

> <IUPAC Name>
tert-butyl N-({3-hydroxybicyclo[3.2.1]octan-3-yl}methyl)carbamate

> <CAS>
2649030-66-8

> <URL>
https://www.enaminestore.com/catalog/EN300-7548404

> <ROCS_ShapeQuery>
x0812_0A_x1140_0A_x1097_0A_x0365_0A_x1097_0A_x0310_0A

> <ROCS_TanimotoCombo>
0.697 

> <ROCS_ShapeTanimoto>
0.229 

> <ROCS_ColorTanimoto>
0.469 

> <ROCS_RefTversky>
0.210 

> <ROCS_RefColorTversky>
0.554 

> <ROCS_RefTverskyCombo>
0.764 

> <ROCS_FitTversky>
1.659 

> <ROCS_FitColorTversky>
0.752 

> <ROCS_FitTverskyCombo>
2.411 

> <ROCS_ColorScore>
-8.267

> <ROCS_Overlap>
2121.036

> <ROCS_Rank>
400                 

$$$$
untitled-dbase-526650_3
  -OEChem-02092408543D

 41 42  0     1  0  0  0  0  0999 V2000
    9.3869   10.1049   23.7570 C   0  0  0  0  0  0  0  0  0  0  0  0
   10.6309   11.9450   21.5976 C   0  0  0  0  0  0  0  0  0  0  0  0
    8.5115    9.6159   24.8962 C   0  0  0  0  0  0  0  0  0  0  0  0
    6.8412   11.2848   24.0878 C   0  0  0  0  0  0  0  0  0  0  0  0
    7.7819   11.7131   22.9380 C   0  0  0  0  0  0  0  0  0  0  0  0
    7.8206   10.9593   25.2462 C   0  0  2  0  0  0  0  0  0  0  0  0
    9.1766   11.6075   23.5906 C   0  0  1  0  0  0  0  0  0  0  0  0
    8.9418   12.0212   25.0664 C   0  0  0  0  0  0  0  0  0  0  0  0
    8.4667   13.4735   25.2627 C   0  0  0  0  0  0  0  0  0  0  0  0
   10.1572   11.8233   25.9958 C   0  0  0  0  0  0  0  0  0  0  0  0
    9.9611   13.9190   20.0164 C   0  0  0  0  0  0  0  0  0  0  0  0
   12.2931   14.8258   20.2363 C   0  0  0  0  0  0  0  0  0  0  0  0
   11.8691   12.7954   18.8200 C   0  0  0  0  0  0  0  0  0  0  0  0
   11.4466   13.5656   20.0702 C   0  0  0  0  0  0  0  0  0  0  0  0
   10.2367   12.2508   22.8978 N   0  0  0  0  0  0  0  0  0  0  0  0
   10.0965    9.3923   23.0646 O   0  0  0  0  0  0  0  0  0  0  0  0
   10.1141   11.0856   20.8913 O   0  0  0  0  0  0  0  0  0  0  0  0
   11.6767   12.7373   21.2155 O   0  0  0  0  0  0  0  0  0  0  0  0
    7.8071    8.8544   24.5542 H   0  0  0  0  0  0  0  0  0  0  0  0
    9.1263    9.2381   25.7159 H   0  0  0  0  0  0  0  0  0  0  0  0
    6.1607   12.0994   24.3566 H   0  0  0  0  0  0  0  0  0  0  0  0
    6.2250   10.4241   23.8070 H   0  0  0  0  0  0  0  0  0  0  0  0
    7.6708   11.0473   22.0744 H   0  0  0  0  0  0  0  0  0  0  0  0
    7.5504   12.7327   22.6115 H   0  0  0  0  0  0  0  0  0  0  0  0
    7.3368   10.9467   26.2258 H   0  0  0  0  0  0  0  0  0  0  0  0
    9.3062   14.1448   25.1203 H   0  0  0  0  0  0  0  0  0  0  0  0
    8.0728   13.5862   26.2666 H   0  0  0  0  0  0  0  0  0  0  0  0
    7.6919   13.6954   24.5372 H   0  0  0  0  0  0  0  0  0  0  0  0
   10.8824   12.6045   25.8009 H   0  0  0  0  0  0  0  0  0  0  0  0
   10.5984   10.8533   25.7993 H   0  0  0  0  0  0  0  0  0  0  0  0
    9.8265   11.8760   27.0265 H   0  0  0  0  0  0  0  0  0  0  0  0
    9.3500   13.0171   19.8972 H   0  0  0  0  0  0  0  0  0  0  0  0
    9.6375   14.4410   20.9228 H   0  0  0  0  0  0  0  0  0  0  0  0
    9.7420   14.5572   19.1526 H   0  0  0  0  0  0  0  0  0  0  0  0
   13.3598   14.5769   20.2755 H   0  0  0  0  0  0  0  0  0  0  0  0
   12.0594   15.3314   21.1802 H   0  0  0  0  0  0  0  0  0  0  0  0
   12.1318   15.5320   19.4155 H   0  0  0  0  0  0  0  0  0  0  0  0
   12.9347   12.5418   18.8584 H   0  0  0  0  0  0  0  0  0  0  0  0
   11.2973   11.8689   18.7046 H   0  0  0  0  0  0  0  0  0  0  0  0
   11.7288   13.4056   17.9204 H   0  0  0  0  0  0  0  0  0  0  0  0
   10.7480   12.9931   23.3900 H   0  0  0  0  0  0  0  0  0  0  0  0
  1  3  1  0  0  0  0
  1  7  1  0  0  0  0
  1 16  2  0  0  0  0
  2 15  1  0  0  0  0
  2 17  2  0  0  0  0
  2 18  1  0  0  0  0
  3  6  1  0  0  0  0
  4  5  1  0  0  0  0
  4  6  1  0  0  0  0
  5  7  1  0  0  0  0
  6  8  1  0  0  0  0
  7  8  1  0  0  0  0
  7 15  1  0  0  0  0
  8  9  1  0  0  0  0
  8 10  1  0  0  0  0
 11 14  1  0  0  0  0
 12 14  1  0  0  0  0
 13 14  1  0  0  0  0
 14 18  1  0  0  0  0
  3 19  1  0  0  0  0
  3 20  1  0  0  0  0
  4 21  1  0  0  0  0
  4 22  1  0  0  0  0
  5 23  1  0  0  0  0
  5 24  1  0  0  0  0
  6 25  1  0  0  0  0
  9 26  1  0  0  0  0
  9 27  1  0  0  0  0
  9 28  1  0  0  0  0
 10 29  1  0  0  0  0
 10 30  1  0  0  0  0
 10 31  1  0  0  0  0
 11 32  1  0  0  0  0
 11 33  1  0  0  0  0
 11 34  1  0  0  0  0
 12 35  1  0  0  0  0
 12 36  1  0  0  0  0
 12 37  1  0  0  0  0
 13 38  1  0  0  0  0
 13 39  1  0  0  0  0
 13 40  1  0  0  0  0
 15 41  1  0  0  0  0
M  END
> <id>
EN300-248247

> <smiles>
CC(C)(C)OC(=O)NC1(CCC2CC1=O)C2(C)C

> <MDLNUMBER>
MFCD09837115

> <IUPAC Name>
tert-butyl N-{7,7-dimethyl-2-oxobicyclo[2.2.1]heptan-1-yl}carbamate

> <CAS>
862487-24-9

> <Purity>
95

> <URL>
https://www.enaminestore.com/catalog/EN300-248247

> <ROCS_ShapeQuery>
x0812_0A_x1140_0A_x1097_0A_x0365_0A_x1097_0A_x0310_0A

> <ROCS_TanimotoCombo>
0.697 

> <ROCS_ShapeTanimoto>
0.234 

> <ROCS_ColorTanimoto>
0.463 

> <ROCS_RefTversky>
0.214 

> <ROCS_RefColorTversky>
0.561 

> <ROCS_RefTverskyCombo>
0.775 

> <ROCS_FitTversky>
1.672 

> <ROCS_FitColorTversky>
0.727 

> <ROCS_FitTverskyCombo>
2.399 

> <ROCS_ColorScore>
-8.381

> <ROCS_Overlap>
2164.592

> <ROCS_Rank>
401                 

$$$$
untitled-dbase-353071_3
  -OEChem-02092408543D

 21 22  0     0  0  0  0  0  0999 V2000
   10.0250   11.9458   22.4307 C   0  0  0  0  0  0  0  0  0  0  0  0
    9.1955   11.7690   24.9760 C   0  0  0  0  0  0  0  0  0  0  0  0
    7.6189   11.7881   23.6063 C   0  0  0  0  0  0  0  0  0  0  0  0
    9.0327    9.7820   23.5429 C   0  0  0  0  0  0  0  0  0  0  0  0
    9.1129   11.3222   23.4723 C   0  0  0  0  0  0  0  0  0  0  0  0
    7.8132   11.0115   24.9643 C   0  0  0  0  0  0  0  0  0  0  0  0
    6.8359   11.1541   26.0911 C   0  0  0  0  0  0  0  0  0  0  0  0
   10.0309   11.6612   21.2423 O   0  0  0  0  0  0  0  0  0  0  0  0
    8.0945    9.6269   24.6212 O   0  0  0  0  0  0  0  0  0  0  0  0
   10.8414   12.8665   22.9990 O   0  0  0  0  0  0  0  0  0  0  0  0
    5.9176   10.0651   26.0679 O   0  0  0  0  0  0  0  0  0  0  0  0
    9.9855   11.3058   25.5748 H   0  0  0  0  0  0  0  0  0  0  0  0
    9.1728   12.8459   25.1768 H   0  0  0  0  0  0  0  0  0  0  0  0
    7.4382   12.8670   23.6703 H   0  0  0  0  0  0  0  0  0  0  0  0
    6.9091   11.3437   22.9025 H   0  0  0  0  0  0  0  0  0  0  0  0
    8.6250    9.3377   22.6304 H   0  0  0  0  0  0  0  0  0  0  0  0
    9.9873    9.3212   23.8125 H   0  0  0  0  0  0  0  0  0  0  0  0
    6.2613   12.0877   26.0054 H   0  0  0  0  0  0  0  0  0  0  0  0
    7.3461   11.1505   27.0652 H   0  0  0  0  0  0  0  0  0  0  0  0
   11.4408   13.2802   22.3417 H   0  0  0  0  0  0  0  0  0  0  0  0
    5.3090   10.2005   26.8109 H   0  0  0  0  0  0  0  0  0  0  0  0
  1  5  1  0  0  0  0
  1  8  2  0  0  0  0
  1 10  1  0  0  0  0
  2  5  1  0  0  0  0
  2  6  1  0  0  0  0
  3  5  1  0  0  0  0
  3  6  1  0  0  0  0
  4  5  1  0  0  0  0
  4  9  1  0  0  0  0
  6  7  1  0  0  0  0
  6  9  1  0  0  0  0
  7 11  1  0  0  0  0
  2 12  1  0  0  0  0
  2 13  1  0  0  0  0
  3 14  1  0  0  0  0
  3 15  1  0  0  0  0
  4 16  1  0  0  0  0
  4 17  1  0  0  0  0
  7 18  1  0  0  0  0
  7 19  1  0  0  0  0
 10 20  1  0  0  0  0
 11 21  1  0  0  0  0
M  END
> <id>
EN300-2007891

> <smiles>
OCC1(CC2(C1)C(=O)O)OC2

> <MDLNUMBER>
MFCD32667404

> <IUPAC Name>
1-(hydroxymethyl)-2-oxabicyclo[2.1.1]hexane-4-carboxylic acid

> <CAS>
2416234-08-5

> <Purity>
95

> <URL>
https://www.enaminestore.com/catalog/EN300-2007891

> <ROCS_ShapeQuery>
x0812_0A_x1140_0A_x1097_0A_x0365_0A_x1097_0A_x0310_0A

> <ROCS_TanimotoCombo>
0.697 

> <ROCS_ShapeTanimoto>
0.219 

> <ROCS_ColorTanimoto>
0.478 

> <ROCS_RefTversky>
0.197 

> <ROCS_RefColorTversky>
0.601 

> <ROCS_RefTverskyCombo>
0.799 

> <ROCS_FitTversky>
2.011 

> <ROCS_FitColorTversky>
0.700 

> <ROCS_FitTverskyCombo>
2.710 

> <ROCS_ColorScore>
-9.032

> <ROCS_Overlap>
1994.664

> <ROCS_Rank>
402                 

$$$$
untitled-dbase-351278_0
  -OEChem-02092408543D

 25 27  0     1  0  0  0  0  0999 V2000
    9.3073    9.7150   23.9368 C   0  0  0  0  0  0  0  0  0  0  0  0
    9.6035   11.8502   21.8881 C   0  0  0  0  0  0  0  0  0  0  0  0
   10.0387   13.1458   23.7534 C   0  0  0  0  0  0  0  0  0  0  0  0
    9.6302   10.5013   25.1920 C   0  0  0  0  0  0  0  0  0  0  0  0
    6.9220   10.1851   24.1353 C   0  0  0  0  0  0  0  0  0  0  0  0
    7.2038   11.0700   25.3661 C   0  0  0  0  0  0  0  0  0  0  0  0
    8.1064   10.2329   23.1566 C   0  0  1  0  0  0  0  0  0  0  0  0
    8.3826   11.6901   22.7623 C   0  0  1  0  0  0  0  0  0  0  0  0
    8.6798   12.5420   24.0121 C   0  0  1  0  0  0  0  0  0  0  0  0
    8.6248   11.6681   25.2826 C   0  0  2  0  0  0  0  0  0  0  0  0
   10.4660   12.7106   22.5227 N   0  0  0  0  0  0  0  0  0  0  0  0
    9.9611    8.7387   23.5821 O   0  0  0  0  0  0  0  0  0  0  0  0
    9.7760   11.2965   20.8123 O   0  0  0  0  0  0  0  0  0  0  0  0
   10.6394   13.8809   24.5232 O   0  0  0  0  0  0  0  0  0  0  0  0
    9.5324    9.8387   26.0580 H   0  0  0  0  0  0  0  0  0  0  0  0
   10.6599   10.8650   25.1316 H   0  0  0  0  0  0  0  0  0  0  0  0
    6.7456    9.1536   24.4643 H   0  0  0  0  0  0  0  0  0  0  0  0
    6.0041   10.5218   23.6391 H   0  0  0  0  0  0  0  0  0  0  0  0
    6.4586   11.8728   25.4233 H   0  0  0  0  0  0  0  0  0  0  0  0
    7.0943   10.4760   26.2813 H   0  0  0  0  0  0  0  0  0  0  0  0
    7.9321    9.5972   22.2827 H   0  0  0  0  0  0  0  0  0  0  0  0
    7.5250   12.1079   22.2205 H   0  0  0  0  0  0  0  0  0  0  0  0
    7.9571   13.3646   24.0832 H   0  0  0  0  0  0  0  0  0  0  0  0
    8.8372   12.2701   26.1733 H   0  0  0  0  0  0  0  0  0  0  0  0
   11.3610   12.9779   22.1282 H   0  0  0  0  0  0  0  0  0  0  0  0
  1  4  1  0  0  0  0
  1  7  1  0  0  0  0
  1 12  2  0  0  0  0
  2  8  1  6  0  0  0
  2 11  1  0  0  0  0
  2 13  2  0  0  0  0
  3  9  1  6  0  0  0
  3 11  1  0  0  0  0
  3 14  2  0  0  0  0
  4 10  1  0  0  0  0
  5  6  1  0  0  0  0
  5  7  1  1  0  0  0
  6 10  1  1  0  0  0
  7  8  1  0  0  0  0
  8  9  1  0  0  0  0
  9 10  1  0  0  0  0
  4 15  1  0  0  0  0
  4 16  1  0  0  0  0
  5 17  1  0  0  0  0
  5 18  1  0  0  0  0
  6 19  1  0  0  0  0
  6 20  1  0  0  0  0
  7 21  1  0  0  0  0
  8 22  1  0  0  0  0
  9 23  1  0  0  0  0
 10 24  1  0  0  0  0
 11 25  1  0  0  0  0
M  END
> <id>
EN300-26863602

> <smiles>
O=C1NC(=O)[C@@H]2[C@H]1[C@H]3CC[C@@H]2C(=O)C3 |&1:5,6,7,10,r|

> <IUPAC Name>
rac-(1R,2S,6R,7R)-4-azatricyclo[5.2.2.0,2,6]undecane-3,5,8-trione

> <CAS>
1932117-92-4

> <Purity>
95

> <URL>
https://www.enaminestore.com/catalog/EN300-26863602

> <ROCS_ShapeQuery>
x0812_0A_x1140_0A_x1097_0A_x0365_0A_x1097_0A_x0310_0A

> <ROCS_TanimotoCombo>
0.697 

> <ROCS_ShapeTanimoto>
0.234 

> <ROCS_ColorTanimoto>
0.463 

> <ROCS_RefTversky>
0.211 

> <ROCS_RefColorTversky>
0.556 

> <ROCS_RefTverskyCombo>
0.767 

> <ROCS_FitTversky>
1.862 

> <ROCS_FitColorTversky>
0.735 

> <ROCS_FitTverskyCombo>
2.597 

> <ROCS_ColorScore>
-8.306

> <ROCS_Overlap>
2133.889

> <ROCS_Rank>
403                 

$$$$
untitled-dbase-300091_0
  -OEChem-02092408543D

 29 30  0     1  0  0  0  0  0999 V2000
    7.7424   10.4977   25.5294 C   0  0  0  0  0  0  0  0  0  0  0  0
    9.2571   10.7651   25.5341 C   0  0  0  0  0  0  0  0  0  0  0  0
    7.7798   10.1940   23.0729 C   0  0  0  0  0  0  0  0  0  0  0  0
    7.2844   11.1344   24.1982 C   0  0  2  0  0  0  0  0  0  0  0  0
    9.2929   10.4780   23.0350 C   0  0  1  0  0  0  0  0  0  0  0  0
    9.4790   11.5107   24.1877 C   0  0  1  0  0  0  0  0  0  0  0  0
    8.1941   12.3846   24.0626 C   0  0  0  0  0  0  0  0  0  0  0  0
   10.8105   12.2367   24.1354 C   0  0  0  0  0  0  0  0  0  0  0  0
    8.0286   13.1421   22.7299 C   0  0  0  0  0  0  0  0  0  0  0  0
    7.9924   13.4319   25.1766 C   0  0  0  0  0  0  0  0  0  0  0  0
   10.0318    9.2836   23.2238 O   0  0  0  0  0  0  0  0  0  0  0  0
    7.5186    9.4269   25.5804 H   0  0  0  0  0  0  0  0  0  0  0  0
    7.2598   10.9744   26.3890 H   0  0  0  0  0  0  0  0  0  0  0  0
    9.5378   11.3809   26.3959 H   0  0  0  0  0  0  0  0  0  0  0  0
    9.8306    9.8360   25.6126 H   0  0  0  0  0  0  0  0  0  0  0  0
    7.5453    9.1423   23.2686 H   0  0  0  0  0  0  0  0  0  0  0  0
    7.3152   10.4629   22.1181 H   0  0  0  0  0  0  0  0  0  0  0  0
    6.2092   11.3243   24.1590 H   0  0  0  0  0  0  0  0  0  0  0  0
    9.5812   10.8893   22.0616 H   0  0  0  0  0  0  0  0  0  0  0  0
   10.9271   12.7459   23.1763 H   0  0  0  0  0  0  0  0  0  0  0  0
   11.6331   11.5286   24.2566 H   0  0  0  0  0  0  0  0  0  0  0  0
   10.8688   12.9793   24.9341 H   0  0  0  0  0  0  0  0  0  0  0  0
    8.6974   13.9951   22.7214 H   0  0  0  0  0  0  0  0  0  0  0  0
    7.0023   13.4784   22.6383 H   0  0  0  0  0  0  0  0  0  0  0  0
    8.2720   12.4754   21.9106 H   0  0  0  0  0  0  0  0  0  0  0  0
    8.6631   14.2657   25.0046 H   0  0  0  0  0  0  0  0  0  0  0  0
    8.2105   12.9757   26.1352 H   0  0  0  0  0  0  0  0  0  0  0  0
    6.9648   13.7759   25.1575 H   0  0  0  0  0  0  0  0  0  0  0  0
    9.7867    8.6806   22.5018 H   0  0  0  0  0  0  0  0  0  0  0  0
  1  2  1  0  0  0  0
  1  4  1  6  0  0  0
  2  6  1  0  0  0  0
  3  4  1  0  0  0  0
  3  5  1  0  0  0  0
  4  7  1  0  0  0  0
  5  6  1  0  0  0  0
  5 11  1  6  0  0  0
  6  7  1  0  0  0  0
  6  8  1  1  0  0  0
  7  9  1  0  0  0  0
  7 10  1  0  0  0  0
  1 12  1  0  0  0  0
  1 13  1  0  0  0  0
  2 14  1  0  0  0  0
  2 15  1  0  0  0  0
  3 16  1  0  0  0  0
  3 17  1  0  0  0  0
  4 18  1  0  0  0  0
  5 19  1  0  0  0  0
  8 20  1  0  0  0  0
  8 21  1  0  0  0  0
  8 22  1  0  0  0  0
  9 23  1  0  0  0  0
  9 24  1  0  0  0  0
  9 25  1  0  0  0  0
 10 26  1  0  0  0  0
 10 27  1  0  0  0  0
 10 28  1  0  0  0  0
 11 29  1  0  0  0  0
M  END
> <id>
EN300-84951

> <smiles>
CC1(C)[C@@H]2CC[C@@]1(C)[C@@H](O)C2

> <MDLNUMBER>
MFCD00066427

> <IUPAC Name>
(1R,2S,4R)-1,7,7-trimethylbicyclo[2.2.1]heptan-2-ol

> <CAS>
464-43-7

> <Purity>
95

> <URL>
https://www.enaminestore.com/catalog/EN300-84951

> <MP>
206-208

> <ROCS_ShapeQuery>
x0812_0A_x1140_0A_x1097_0A_x0365_0A_x1097_0A_x0310_0A

> <ROCS_TanimotoCombo>
0.697 

> <ROCS_ShapeTanimoto>
0.206 

> <ROCS_ColorTanimoto>
0.491 

> <ROCS_RefTversky>
0.187 

> <ROCS_RefColorTversky>
0.542 

> <ROCS_RefTverskyCombo>
0.729 

> <ROCS_FitTversky>
1.922 

> <ROCS_FitColorTversky>
0.840 

> <ROCS_FitTverskyCombo>
2.762 

> <ROCS_ColorScore>
-8.049

> <ROCS_Overlap>
1891.943

> <ROCS_Rank>
404                 

$$$$
untitled-dbase-107473_0
  -OEChem-02092408543D

 26 28  0     0  0  0  0  0  0999 V2000
    9.5851   11.4084   23.4435 C   0  0  0  0  0  0  0  0  0  0  0  0
    8.4028   11.1340   22.8223 C   0  0  0  0  0  0  0  0  0  0  0  0
   10.4286   11.7695   22.3980 C   0  0  0  0  0  0  0  0  0  0  0  0
    9.0671    9.7640   25.1870 C   0  0  0  0  0  0  0  0  0  0  0  0
    8.3785   12.1382   25.4494 C   0  0  0  0  0  0  0  0  0  0  0  0
    7.7267    9.4590   24.4335 C   0  0  0  0  0  0  0  0  0  0  0  0
    7.0384   11.8325   24.6957 C   0  0  0  0  0  0  0  0  0  0  0  0
    9.5340   11.2301   24.9226 C   0  0  0  0  0  0  0  0  0  0  0  0
    7.2401   10.7068   23.6381 C   0  0  0  0  0  0  0  0  0  0  0  0
   11.8412   12.1729   22.4619 C   0  0  0  0  0  0  0  0  0  0  0  0
    9.7960   11.7179   21.2088 N   0  0  0  0  0  0  0  0  0  0  0  0
    8.4797   11.3037   21.4963 O   0  0  0  0  0  0  0  0  0  0  0  0
   12.0728   13.8848   23.0564 S   0  0  0  0  0  0  0  0  0  0  0  0
    8.9307    9.5958   26.2618 H   0  0  0  0  0  0  0  0  0  0  0  0
    9.8364    9.0584   24.8482 H   0  0  0  0  0  0  0  0  0  0  0  0
    8.6367   13.1950   25.3051 H   0  0  0  0  0  0  0  0  0  0  0  0
    8.2368   11.9882   26.5263 H   0  0  0  0  0  0  0  0  0  0  0  0
    7.8872    8.6162   23.7491 H   0  0  0  0  0  0  0  0  0  0  0  0
    6.9625    9.1430   25.1533 H   0  0  0  0  0  0  0  0  0  0  0  0
    6.2671   11.5424   25.4190 H   0  0  0  0  0  0  0  0  0  0  0  0
    6.6883   12.7502   24.2060 H   0  0  0  0  0  0  0  0  0  0  0  0
   10.4852   11.4517   25.4129 H   0  0  0  0  0  0  0  0  0  0  0  0
    6.3381   10.5096   23.0548 H   0  0  0  0  0  0  0  0  0  0  0  0
   12.4304   11.5094   23.1249 H   0  0  0  0  0  0  0  0  0  0  0  0
   12.3341   12.0981   21.4728 H   0  0  0  0  0  0  0  0  0  0  0  0
   13.4090   13.8709   22.9765 H   0  0  0  0  0  0  0  0  0  0  0  0
  1  2  2  0  0  0  0
  1  3  1  0  0  0  0
  1  8  1  0  0  0  0
  2  9  1  0  0  0  0
  2 12  1  0  0  0  0
  3 10  1  0  0  0  0
  3 11  2  0  0  0  0
  4  6  1  0  0  0  0
  4  8  1  0  0  0  0
  5  7  1  0  0  0  0
  5  8  1  0  0  0  0
  6  9  1  0  0  0  0
  7  9  1  0  0  0  0
 10 13  1  0  0  0  0
 11 12  1  0  0  0  0
  4 14  1  0  0  0  0
  4 15  1  0  0  0  0
  5 16  1  0  0  0  0
  5 17  1  0  0  0  0
  6 18  1  0  0  0  0
  6 19  1  0  0  0  0
  7 20  1  0  0  0  0
  7 21  1  0  0  0  0
  8 22  1  0  0  0  0
  9 23  1  0  0  0  0
 10 24  1  0  0  0  0
 10 25  1  0  0  0  0
 13 26  1  0  0  0  0
M  END
> <id>
EN300-1117073

> <smiles>
SCC1=NOC=2C3CCC(CC3)C12

> <IUPAC Name>
{3-oxa-4-azatricyclo[5.2.2.0,2,6]undeca-2(6),4-dien-5-yl}methanethiol

> <CAS>
2138346-03-7

> <URL>
https://www.enaminestore.com/catalog/EN300-1117073

> <ROCS_ShapeQuery>
x0812_0A_x1140_0A_x1097_0A_x0365_0A_x1097_0A_x0310_0A

> <ROCS_TanimotoCombo>
0.697 

> <ROCS_ShapeTanimoto>
0.206 

> <ROCS_ColorTanimoto>
0.491 

> <ROCS_RefTversky>
0.189 

> <ROCS_RefColorTversky>
0.518 

> <ROCS_RefTverskyCombo>
0.707 

> <ROCS_FitTversky>
1.762 

> <ROCS_FitColorTversky>
0.904 

> <ROCS_FitTverskyCombo>
2.666 

> <ROCS_ColorScore>
-7.658

> <ROCS_Overlap>
1913.752

> <ROCS_Rank>
405                 

$$$$
untitled-dbase-257400_1
  -OEChem-02092408543D

 25 26  0     0  0  0  0  0  0999 V2000
    8.3784   11.9476   24.9476 C   0  0  0  0  0  0  0  0  0  0  0  0
    7.6410   11.4024   23.0640 C   0  0  0  0  0  0  0  0  0  0  0  0
    9.4598    9.9893   23.9258 C   0  0  0  0  0  0  0  0  0  0  0  0
    9.1056   11.4647   23.6376 C   0  0  0  0  0  0  0  0  0  0  0  0
    7.4352   10.7658   24.4938 C   0  0  0  0  0  0  0  0  0  0  0  0
   11.3217   12.6546   20.9677 C   0  0  0  0  0  0  0  0  0  0  0  0
   10.1624   12.3006   22.9811 C   0  0  0  0  0  0  0  0  0  0  0  0
    6.0665   10.5934   25.0788 C   0  0  0  0  0  0  0  0  0  0  0  0
    8.2330    9.5504   24.5333 O   0  0  0  0  0  0  0  0  0  0  0  0
    6.1698   10.3940   26.4857 O   0  0  0  0  0  0  0  0  0  0  0  0
   10.3269   11.8861   21.6280 O   0  0  0  0  0  0  0  0  0  0  0  0
    8.9214   11.7949   25.8848 H   0  0  0  0  0  0  0  0  0  0  0  0
    7.9522   12.9568   24.9352 H   0  0  0  0  0  0  0  0  0  0  0  0
    7.1432   12.3586   22.8687 H   0  0  0  0  0  0  0  0  0  0  0  0
    7.4844   10.7320   22.2139 H   0  0  0  0  0  0  0  0  0  0  0  0
    9.6487    9.4139   23.0149 H   0  0  0  0  0  0  0  0  0  0  0  0
   10.2841    9.8832   24.6368 H   0  0  0  0  0  0  0  0  0  0  0  0
   11.4222   12.3118   19.9350 H   0  0  0  0  0  0  0  0  0  0  0  0
   12.2742   12.5476   21.4927 H   0  0  0  0  0  0  0  0  0  0  0  0
   11.0210   13.7050   20.9728 H   0  0  0  0  0  0  0  0  0  0  0  0
   11.1301   12.1933   23.4918 H   0  0  0  0  0  0  0  0  0  0  0  0
    9.8869   13.3649   22.9819 H   0  0  0  0  0  0  0  0  0  0  0  0
    5.5547    9.7214   24.6466 H   0  0  0  0  0  0  0  0  0  0  0  0
    5.4427   11.4819   24.9042 H   0  0  0  0  0  0  0  0  0  0  0  0
    5.2645   10.2881   26.8173 H   0  0  0  0  0  0  0  0  0  0  0  0
  1  4  1  0  0  0  0
  1  5  1  0  0  0  0
  2  4  1  0  0  0  0
  2  5  1  0  0  0  0
  3  4  1  0  0  0  0
  3  9  1  0  0  0  0
  4  7  1  0  0  0  0
  5  8  1  0  0  0  0
  5  9  1  0  0  0  0
  6 11  1  0  0  0  0
  7 11  1  0  0  0  0
  8 10  1  0  0  0  0
  1 12  1  0  0  0  0
  1 13  1  0  0  0  0
  2 14  1  0  0  0  0
  2 15  1  0  0  0  0
  3 16  1  0  0  0  0
  3 17  1  0  0  0  0
  6 18  1  0  0  0  0
  6 19  1  0  0  0  0
  6 20  1  0  0  0  0
  7 21  1  0  0  0  0
  7 22  1  0  0  0  0
  8 23  1  0  0  0  0
  8 24  1  0  0  0  0
 10 25  1  0  0  0  0
M  END
> <id>
EN300-1666704

> <smiles>
COCC1(CC2(CO)C1)CO2

> <MDLNUMBER>
MFCD31667712

> <IUPAC Name>
[4-(methoxymethyl)-2-oxabicyclo[2.1.1]hexan-1-yl]methanol

> <CAS>
2241129-18-8

> <Purity>
95

> <URL>
https://www.enaminestore.com/catalog/EN300-1666704

> <ROCS_ShapeQuery>
x0812_0A_x1140_0A_x1097_0A_x0365_0A_x1097_0A_x0310_0A

> <ROCS_TanimotoCombo>
0.697 

> <ROCS_ShapeTanimoto>
0.207 

> <ROCS_ColorTanimoto>
0.490 

> <ROCS_RefTversky>
0.188 

> <ROCS_RefColorTversky>
0.571 

> <ROCS_RefTverskyCombo>
0.759 

> <ROCS_FitTversky>
1.938 

> <ROCS_FitColorTversky>
0.775 

> <ROCS_FitTverskyCombo>
2.712 

> <ROCS_ColorScore>
-8.520

> <ROCS_Overlap>
1902.195

> <ROCS_Rank>
406                 

$$$$
untitled-dbase-567439_1
  -OEChem-02092408543D

 25 26  0     0  0  0  0  0  0999 V2000
    8.3783   11.9476   24.9474 C   0  0  0  0  0  0  0  0  0  0  0  0
    7.6409   11.4022   23.0639 C   0  0  0  0  0  0  0  0  0  0  0  0
    9.4598    9.9893   23.9259 C   0  0  0  0  0  0  0  0  0  0  0  0
    9.1055   11.4646   23.6375 C   0  0  0  0  0  0  0  0  0  0  0  0
    7.4352   10.7658   24.4938 C   0  0  0  0  0  0  0  0  0  0  0  0
   11.3223   12.6551   20.9685 C   0  0  0  0  0  0  0  0  0  0  0  0
   10.1625   12.3007   22.9815 C   0  0  0  0  0  0  0  0  0  0  0  0
    6.0666   10.5935   25.0791 C   0  0  0  0  0  0  0  0  0  0  0  0
    8.2329    9.5505   24.5333 O   0  0  0  0  0  0  0  0  0  0  0  0
    6.1703   10.3943   26.4860 O   0  0  0  0  0  0  0  0  0  0  0  0
   10.3273   11.8865   21.6284 O   0  0  0  0  0  0  0  0  0  0  0  0
    8.9211   11.7952   25.8847 H   0  0  0  0  0  0  0  0  0  0  0  0
    7.9518   12.9567   24.9349 H   0  0  0  0  0  0  0  0  0  0  0  0
    7.1430   12.3582   22.8683 H   0  0  0  0  0  0  0  0  0  0  0  0
    7.4844   10.7316   22.2140 H   0  0  0  0  0  0  0  0  0  0  0  0
    9.6488    9.4139   23.0151 H   0  0  0  0  0  0  0  0  0  0  0  0
   10.2840    9.8832   24.6370 H   0  0  0  0  0  0  0  0  0  0  0  0
   11.4231   12.3125   19.9358 H   0  0  0  0  0  0  0  0  0  0  0  0
   12.2747   12.5480   21.4938 H   0  0  0  0  0  0  0  0  0  0  0  0
   11.0217   13.7055   20.9738 H   0  0  0  0  0  0  0  0  0  0  0  0
   11.1300   12.1932   23.4925 H   0  0  0  0  0  0  0  0  0  0  0  0
    9.8870   13.3650   22.9825 H   0  0  0  0  0  0  0  0  0  0  0  0
    5.5546    9.7215   24.6471 H   0  0  0  0  0  0  0  0  0  0  0  0
    5.4429   11.4821   24.9046 H   0  0  0  0  0  0  0  0  0  0  0  0
    5.2651   10.2884   26.8178 H   0  0  0  0  0  0  0  0  0  0  0  0
  1  4  1  0  0  0  0
  1  5  1  0  0  0  0
  2  4  1  0  0  0  0
  2  5  1  0  0  0  0
  3  4  1  0  0  0  0
  3  9  1  0  0  0  0
  4  7  1  1  0  0  0
  5  8  1  1  0  0  0
  5  9  1  0  0  0  0
  6 11  1  0  0  0  0
  7 11  1  0  0  0  0
  8 10  1  0  0  0  0
  1 12  1  0  0  0  0
  1 13  1  0  0  0  0
  2 14  1  0  0  0  0
  2 15  1  0  0  0  0
  3 16  1  0  0  0  0
  3 17  1  0  0  0  0
  6 18  1  0  0  0  0
  6 19  1  0  0  0  0
  6 20  1  0  0  0  0
  7 21  1  0  0  0  0
  7 22  1  0  0  0  0
  8 23  1  0  0  0  0
  8 24  1  0  0  0  0
 10 25  1  0  0  0  0
M  END
> <id>
EN300-37375186

> <smiles>
COC[C@]1(C[C@@]2(CO)C1)CO2

> <IUPAC Name>
[4-(methoxymethyl)-2-oxabicyclo[2.1.1]hexan-1-yl]methanol

> <CAS>
2241129-18-8

> <URL>
https://www.enaminestore.com/catalog/EN300-37375186

> <ROCS_ShapeQuery>
x0812_0A_x1140_0A_x1097_0A_x0365_0A_x1097_0A_x0310_0A

> <ROCS_TanimotoCombo>
0.697 

> <ROCS_ShapeTanimoto>
0.207 

> <ROCS_ColorTanimoto>
0.490 

> <ROCS_RefTversky>
0.188 

> <ROCS_RefColorTversky>
0.571 

> <ROCS_RefTverskyCombo>
0.759 

> <ROCS_FitTversky>
1.938 

> <ROCS_FitColorTversky>
0.775 

> <ROCS_FitTverskyCombo>
2.712 

> <ROCS_ColorScore>
-8.519

> <ROCS_Overlap>
1902.287

> <ROCS_Rank>
407                 

$$$$
untitled-dbase-266458_6
  -OEChem-02092408543D

 40 41  0     1  0  0  0  0  0999 V2000
    5.6677    9.8539   27.0093 C   0  0  0  0  0  0  0  0  0  0  0  0
    8.6341   12.4073   24.8726 C   0  0  0  0  0  0  0  0  0  0  0  0
    7.7387   12.2779   23.6287 C   0  0  0  0  0  0  0  0  0  0  0  0
    8.7162    9.9884   25.7116 C   0  0  0  0  0  0  0  0  0  0  0  0
    7.2108    9.7708   23.6290 C   0  0  0  0  0  0  0  0  0  0  0  0
    9.4388   11.1010   24.9266 C   0  0  1  0  0  0  0  0  0  0  0  0
    8.0726   10.9025   23.0340 C   0  0  2  0  0  0  0  0  0  0  0  0
    7.3323    9.5900   25.1564 C   0  0  2  0  0  0  0  0  0  0  0  0
    9.5352   10.7356   23.4452 C   0  0  2  0  0  0  0  0  0  0  0  0
    6.3779   11.4380   28.9668 C   0  0  0  0  0  0  0  0  0  0  0  0
    4.2423   12.7201   28.6428 C   0  0  0  0  0  0  0  0  0  0  0  0
    4.1901   10.4584   29.7338 C   0  0  0  0  0  0  0  0  0  0  0  0
    4.8794   11.3328   28.6874 C   0  0  0  0  0  0  0  0  0  0  0  0
    6.2511   10.3013   25.8461 N   0  0  0  0  0  0  0  0  0  0  0  0
    5.9621    8.8279   27.6136 O   0  0  0  0  0  0  0  0  0  0  0  0
   10.0288    9.4331   23.2121 O   0  0  0  0  0  0  0  0  0  0  0  0
    4.6969   10.7328   27.4000 O   0  0  0  0  0  0  0  0  0  0  0  0
    9.3100   13.2614   24.7448 H   0  0  0  0  0  0  0  0  0  0  0  0
    8.0540   12.5854   25.7833 H   0  0  0  0  0  0  0  0  0  0  0  0
    6.6770   12.3884   23.8699 H   0  0  0  0  0  0  0  0  0  0  0  0
    7.9950   13.0702   22.9150 H   0  0  0  0  0  0  0  0  0  0  0  0
    9.3521    9.0929   25.6978 H   0  0  0  0  0  0  0  0  0  0  0  0
    8.6422   10.2696   26.7699 H   0  0  0  0  0  0  0  0  0  0  0  0
    6.1619    9.9115   23.3379 H   0  0  0  0  0  0  0  0  0  0  0  0
    7.5143    8.8272   23.1559 H   0  0  0  0  0  0  0  0  0  0  0  0
   10.4291   11.2560   25.3683 H   0  0  0  0  0  0  0  0  0  0  0  0
    7.9567   10.8965   21.9449 H   0  0  0  0  0  0  0  0  0  0  0  0
    7.1416    8.5281   25.4013 H   0  0  0  0  0  0  0  0  0  0  0  0
   10.1750   11.4477   22.9093 H   0  0  0  0  0  0  0  0  0  0  0  0
    6.8389   10.4443   28.9996 H   0  0  0  0  0  0  0  0  0  0  0  0
    6.8896   12.0337   28.2039 H   0  0  0  0  0  0  0  0  0  0  0  0
    6.5620   11.8966   29.9451 H   0  0  0  0  0  0  0  0  0  0  0  0
    3.1671   12.6494   28.4426 H   0  0  0  0  0  0  0  0  0  0  0  0
    4.6688   13.3195   27.8304 H   0  0  0  0  0  0  0  0  0  0  0  0
    4.3849   13.2605   29.5842 H   0  0  0  0  0  0  0  0  0  0  0  0
    3.1151   10.3828   29.5336 H   0  0  0  0  0  0  0  0  0  0  0  0
    4.6097    9.4474   29.7543 H   0  0  0  0  0  0  0  0  0  0  0  0
    4.2883   10.8965   30.7336 H   0  0  0  0  0  0  0  0  0  0  0  0
    5.9157   11.1686   25.4447 H   0  0  0  0  0  0  0  0  0  0  0  0
   10.0510    9.3007   22.2479 H   0  0  0  0  0  0  0  0  0  0  0  0
  1 14  1  0  0  0  0
  1 15  2  0  0  0  0
  1 17  1  0  0  0  0
  2  3  1  0  0  0  0
  2  6  1  1  0  0  0
  3  7  1  1  0  0  0
  4  6  1  0  0  0  0
  4  8  1  0  0  0  0
  5  7  1  0  0  0  0
  5  8  1  0  0  0  0
  6  9  1  0  0  0  0
  7  9  1  0  0  0  0
  8 14  1  1  0  0  0
  9 16  1  6  0  0  0
 10 13  1  0  0  0  0
 11 13  1  0  0  0  0
 12 13  1  0  0  0  0
 13 17  1  0  0  0  0
  2 18  1  0  0  0  0
  2 19  1  0  0  0  0
  3 20  1  0  0  0  0
  3 21  1  0  0  0  0
  4 22  1  0  0  0  0
  4 23  1  0  0  0  0
  5 24  1  0  0  0  0
  5 25  1  0  0  0  0
  6 26  1  0  0  0  0
  7 27  1  0  0  0  0
  8 28  1  0  0  0  0
  9 29  1  0  0  0  0
 10 30  1  0  0  0  0
 10 31  1  0  0  0  0
 10 32  1  0  0  0  0
 11 33  1  0  0  0  0
 11 34  1  0  0  0  0
 11 35  1  0  0  0  0
 12 36  1  0  0  0  0
 12 37  1  0  0  0  0
 12 38  1  0  0  0  0
 14 39  1  0  0  0  0
 16 40  1  0  0  0  0
M  END
> <id>
EN300-7548770

> <smiles>
CC(C)(C)OC(=O)N[C@@H]1C[C@@H]2CC[C@H](C1)[C@@H]2O

> <IUPAC Name>
tert-butyl N-[(1R,3S,5S,8R)-8-hydroxybicyclo[3.2.1]octan-3-yl]carbamate

> <CAS>
2648901-66-8

> <URL>
https://www.enaminestore.com/catalog/EN300-7548770

> <ROCS_ShapeQuery>
x0812_0A_x1140_0A_x1097_0A_x0365_0A_x1097_0A_x0310_0A

> <ROCS_TanimotoCombo>
0.697 

> <ROCS_ShapeTanimoto>
0.190 

> <ROCS_ColorTanimoto>
0.506 

> <ROCS_RefTversky>
0.179 

> <ROCS_RefColorTversky>
0.583 

> <ROCS_RefTverskyCombo>
0.763 

> <ROCS_FitTversky>
1.471 

> <ROCS_FitColorTversky>
0.794 

> <ROCS_FitTverskyCombo>
2.265 

> <ROCS_ColorScore>
-8.702

> <ROCS_Overlap>
1815.507

> <ROCS_Rank>
408                 

$$$$
untitled-dbase-483513_1
  -OEChem-02092408543D

 23 24  0     0  0  0  0  0  0999 V2000
   10.7190   12.1603   22.0253 C   0  0  0  0  0  0  0  0  0  0  0  0
    8.5212   11.8390   25.3082 C   0  0  0  0  0  0  0  0  0  0  0  0
    7.8381   11.7535   23.3296 C   0  0  0  0  0  0  0  0  0  0  0  0
    9.4013    9.9685   23.9758 C   0  0  0  0  0  0  0  0  0  0  0  0
    9.2598   11.5063   23.9584 C   0  0  0  0  0  0  0  0  0  0  0  0
    7.4630   10.9022   24.6049 C   0  0  0  0  0  0  0  0  0  0  0  0
   10.4548   12.2929   23.5111 C   0  0  0  0  0  0  0  0  0  0  0  0
    6.0497   10.8179   25.0957 C   0  0  0  0  0  0  0  0  0  0  0  0
   10.0373   11.5217   21.2377 O   0  0  0  0  0  0  0  0  0  0  0  0
    8.0925    9.6011   24.4437 O   0  0  0  0  0  0  0  0  0  0  0  0
   11.8306   12.8549   21.6708 O   0  0  0  0  0  0  0  0  0  0  0  0
    5.4414   12.0240   25.0430 F   0  0  0  0  0  0  0  0  0  0  0  0
    5.3231    9.9579   24.3476 F   0  0  0  0  0  0  0  0  0  0  0  0
    6.0024   10.3895   26.3770 F   0  0  0  0  0  0  0  0  0  0  0  0
    8.9804   11.4444   26.2192 H   0  0  0  0  0  0  0  0  0  0  0  0
    8.2309   12.8828   25.4708 H   0  0  0  0  0  0  0  0  0  0  0  0
    7.4814   12.7890   23.3000 H   0  0  0  0  0  0  0  0  0  0  0  0
    7.6491   11.2774   22.3630 H   0  0  0  0  0  0  0  0  0  0  0  0
    9.5704    9.5480   22.9804 H   0  0  0  0  0  0  0  0  0  0  0  0
   10.1590    9.6213   24.6840 H   0  0  0  0  0  0  0  0  0  0  0  0
   10.3121   13.3632   23.7299 H   0  0  0  0  0  0  0  0  0  0  0  0
   11.3579   11.9511   24.0415 H   0  0  0  0  0  0  0  0  0  0  0  0
   12.0173   12.7808   20.7106 H   0  0  0  0  0  0  0  0  0  0  0  0
  1  7  1  0  0  0  0
  1  9  2  0  0  0  0
  1 11  1  0  0  0  0
  2  5  1  0  0  0  0
  2  6  1  0  0  0  0
  3  5  1  0  0  0  0
  3  6  1  0  0  0  0
  4  5  1  0  0  0  0
  4 10  1  0  0  0  0
  5  7  1  0  0  0  0
  6  8  1  0  0  0  0
  6 10  1  0  0  0  0
  8 12  1  0  0  0  0
  8 13  1  0  0  0  0
  8 14  1  0  0  0  0
  2 15  1  0  0  0  0
  2 16  1  0  0  0  0
  3 17  1  0  0  0  0
  3 18  1  0  0  0  0
  4 19  1  0  0  0  0
  4 20  1  0  0  0  0
  7 21  1  0  0  0  0
  7 22  1  0  0  0  0
 11 23  1  0  0  0  0
M  END
> <id>
EN300-27719212

> <smiles>
OC(=O)CC1(CC2(C1)C(F)(F)F)CO2

> <MDLNUMBER>
MFCD33549218

> <IUPAC Name>
2-[1-(trifluoromethyl)-2-oxabicyclo[2.1.1]hexan-4-yl]acetic acid

> <CAS>
2639441-42-0

> <Purity>
95

> <URL>
https://www.enaminestore.com/catalog/EN300-27719212

> <ROCS_ShapeQuery>
x0812_0A_x1140_0A_x1097_0A_x0365_0A_x1097_0A_x0310_0A

> <ROCS_TanimotoCombo>
0.697 

> <ROCS_ShapeTanimoto>
0.233 

> <ROCS_ColorTanimoto>
0.463 

> <ROCS_RefTversky>
0.210 

> <ROCS_RefColorTversky>
0.550 

> <ROCS_RefTverskyCombo>
0.761 

> <ROCS_FitTversky>
1.878 

> <ROCS_FitColorTversky>
0.746 

> <ROCS_FitTverskyCombo>
2.624 

> <ROCS_ColorScore>
-8.210

> <ROCS_Overlap>
2128.002

> <ROCS_Rank>
409                 

$$$$
untitled-dbase-568116_1
  -OEChem-02092408543D

 23 24  0     0  0  0  0  0  0999 V2000
   10.7188   12.1612   22.0254 C   0  0  0  0  0  0  0  0  0  0  0  0
    8.5206   11.8393   25.3077 C   0  0  0  0  0  0  0  0  0  0  0  0
    7.8375   11.7531   23.3292 C   0  0  0  0  0  0  0  0  0  0  0  0
    9.4014    9.9690   23.9759 C   0  0  0  0  0  0  0  0  0  0  0  0
    9.2593   11.5067   23.9581 C   0  0  0  0  0  0  0  0  0  0  0  0
    7.4627   10.9020   24.6047 C   0  0  0  0  0  0  0  0  0  0  0  0
   10.4542   12.2936   23.5112 C   0  0  0  0  0  0  0  0  0  0  0  0
    6.0497   10.8174   25.0960 C   0  0  0  0  0  0  0  0  0  0  0  0
   10.0376   11.5224   21.2376 O   0  0  0  0  0  0  0  0  0  0  0  0
    8.0927    9.6012   24.4438 O   0  0  0  0  0  0  0  0  0  0  0  0
   11.8303   12.8561   21.6713 O   0  0  0  0  0  0  0  0  0  0  0  0
    5.4410   12.0232   25.0432 F   0  0  0  0  0  0  0  0  0  0  0  0
    5.3231    9.9570   24.3483 F   0  0  0  0  0  0  0  0  0  0  0  0
    6.0028   10.3892   26.3773 F   0  0  0  0  0  0  0  0  0  0  0  0
    8.9799   11.4453   26.2190 H   0  0  0  0  0  0  0  0  0  0  0  0
    8.2296   12.8831   25.4701 H   0  0  0  0  0  0  0  0  0  0  0  0
    7.4803   12.7884   23.2992 H   0  0  0  0  0  0  0  0  0  0  0  0
    7.6488   11.2766   22.3629 H   0  0  0  0  0  0  0  0  0  0  0  0
    9.5707    9.5483   22.9806 H   0  0  0  0  0  0  0  0  0  0  0  0
   10.1592    9.6222   24.6843 H   0  0  0  0  0  0  0  0  0  0  0  0
   10.3111   13.3638   23.7301 H   0  0  0  0  0  0  0  0  0  0  0  0
   11.3573   11.9521   24.0418 H   0  0  0  0  0  0  0  0  0  0  0  0
   12.0174   12.7822   20.7111 H   0  0  0  0  0  0  0  0  0  0  0  0
  1  7  1  0  0  0  0
  1  9  2  0  0  0  0
  1 11  1  0  0  0  0
  2  5  1  0  0  0  0
  2  6  1  0  0  0  0
  3  5  1  0  0  0  0
  3  6  1  0  0  0  0
  4  5  1  0  0  0  0
  4 10  1  0  0  0  0
  5  7  1  1  0  0  0
  6  8  1  1  0  0  0
  6 10  1  0  0  0  0
  8 12  1  0  0  0  0
  8 13  1  0  0  0  0
  8 14  1  0  0  0  0
  2 15  1  0  0  0  0
  2 16  1  0  0  0  0
  3 17  1  0  0  0  0
  3 18  1  0  0  0  0
  4 19  1  0  0  0  0
  4 20  1  0  0  0  0
  7 21  1  0  0  0  0
  7 22  1  0  0  0  0
 11 23  1  0  0  0  0
M  END
> <id>
EN300-37375434

> <smiles>
OC(=O)C[C@]1(C[C@]2(C1)C(F)(F)F)CO2

> <IUPAC Name>
2-[1-(trifluoromethyl)-2-oxabicyclo[2.1.1]hexan-4-yl]acetic acid

> <CAS>
2639441-42-0

> <URL>
https://www.enaminestore.com/catalog/EN300-37375434

> <ROCS_ShapeQuery>
x0812_0A_x1140_0A_x1097_0A_x0365_0A_x1097_0A_x0310_0A

> <ROCS_TanimotoCombo>
0.697 

> <ROCS_ShapeTanimoto>
0.233 

> <ROCS_ColorTanimoto>
0.463 

> <ROCS_RefTversky>
0.210 

> <ROCS_RefColorTversky>
0.550 

> <ROCS_RefTverskyCombo>
0.761 

> <ROCS_FitTversky>
1.878 

> <ROCS_FitColorTversky>
0.746 

> <ROCS_FitTverskyCombo>
2.624 

> <ROCS_ColorScore>
-8.210

> <ROCS_Overlap>
2128.088

> <ROCS_Rank>
410                 

$$$$
untitled-dbase-436278_2
  -OEChem-02092408543D

 39 42  0     1  0  0  0  0  0999 V2000
   10.4238   11.0642   20.2912 C   0  0  0  0  0  0  0  0  0  0  0  0
    7.5480   11.5650   25.1495 C   0  0  0  0  0  0  0  0  0  0  0  0
    8.2340   11.1145   21.4671 C   0  0  0  0  0  0  0  0  0  0  0  0
   10.1182   12.2764   22.4806 C   0  0  0  0  0  0  0  0  0  0  0  0
    7.3164   10.6771   23.9043 C   0  0  1  0  0  0  0  0  0  0  0  0
    9.0519   11.7485   24.8380 C   0  0  2  0  0  0  0  0  0  0  0  0
    7.7492   11.6666   22.7947 C   0  0  1  0  0  0  0  0  0  0  0  0
    8.9501   12.4079   23.4406 C   0  0  2  0  0  0  0  0  0  0  0  0
    8.3283    9.5755   24.1689 C   0  0  2  0  0  0  0  0  0  0  0  0
    9.4960   10.2964   24.7971 C   0  0  1  0  0  0  0  0  0  0  0  0
   10.9849   13.1356   18.7887 C   0  0  0  0  0  0  0  0  0  0  0  0
   13.2114   13.3101   19.9382 C   0  0  0  0  0  0  0  0  0  0  0  0
   12.8097   11.4847   18.2605 C   0  0  0  0  0  0  0  0  0  0  0  0
   12.1768   12.3571   19.3436 C   0  0  0  0  0  0  0  0  0  0  0  0
    9.6422   11.4671   21.3642 N   0  0  0  0  0  0  0  0  0  0  0  0
   10.0103   10.3889   19.3513 O   0  0  0  0  0  0  0  0  0  0  0  0
    9.6084    9.6174   23.5541 O   0  0  0  0  0  0  0  0  0  0  0  0
   11.7146   11.5084   20.4003 O   0  0  0  0  0  0  0  0  0  0  0  0
    6.9768   12.4992   25.1391 H   0  0  0  0  0  0  0  0  0  0  0  0
    7.3711   11.0315   26.0904 H   0  0  0  0  0  0  0  0  0  0  0  0
    8.1074   10.0327   21.3587 H   0  0  0  0  0  0  0  0  0  0  0  0
    7.7131   11.5910   20.6287 H   0  0  0  0  0  0  0  0  0  0  0  0
   10.4092   13.2537   22.0794 H   0  0  0  0  0  0  0  0  0  0  0  0
   11.0098   11.8226   22.9246 H   0  0  0  0  0  0  0  0  0  0  0  0
    6.2940   10.3087   23.7965 H   0  0  0  0  0  0  0  0  0  0  0  0
    9.5951   12.3467   25.5726 H   0  0  0  0  0  0  0  0  0  0  0  0
    6.9359   12.3834   22.6183 H   0  0  0  0  0  0  0  0  0  0  0  0
    8.6946   13.4689   23.5639 H   0  0  0  0  0  0  0  0  0  0  0  0
    7.9574    8.6809   24.6441 H   0  0  0  0  0  0  0  0  0  0  0  0
    9.9236    9.8951   25.7025 H   0  0  0  0  0  0  0  0  0  0  0  0
   10.2399   12.4551   18.3610 H   0  0  0  0  0  0  0  0  0  0  0  0
   10.5006   13.7385   19.5638 H   0  0  0  0  0  0  0  0  0  0  0  0
   11.2971   13.8021   17.9765 H   0  0  0  0  0  0  0  0  0  0  0  0
   14.0684   12.7558   20.3376 H   0  0  0  0  0  0  0  0  0  0  0  0
   12.7876   13.8710   20.7790 H   0  0  0  0  0  0  0  0  0  0  0  0
   13.5772   14.0248   19.1938 H   0  0  0  0  0  0  0  0  0  0  0  0
   13.6647   10.9261   18.6583 H   0  0  0  0  0  0  0  0  0  0  0  0
   12.0911   10.7690   17.8481 H   0  0  0  0  0  0  0  0  0  0  0  0
   13.1971   12.1007   17.4410 H   0  0  0  0  0  0  0  0  0  0  0  0
  1 15  1  0  0  0  0
  1 16  2  0  0  0  0
  1 18  1  0  0  0  0
  2  5  1  1  0  0  0
  2  6  1  1  0  0  0
  3  7  1  6  0  0  0
  3 15  1  0  0  0  0
  4  8  1  6  0  0  0
  4 15  1  0  0  0  0
  5  7  1  0  0  0  0
  5  9  1  0  0  0  0
  6  8  1  0  0  0  0
  6 10  1  0  0  0  0
  7  8  1  0  0  0  0
  9 10  1  0  0  0  0
  9 17  1  6  0  0  0
 10 17  1  6  0  0  0
 11 14  1  0  0  0  0
 12 14  1  0  0  0  0
 13 14  1  0  0  0  0
 14 18  1  0  0  0  0
  2 19  1  0  0  0  0
  2 20  1  0  0  0  0
  3 21  1  0  0  0  0
  3 22  1  0  0  0  0
  4 23  1  0  0  0  0
  4 24  1  0  0  0  0
  5 25  1  0  0  0  0
  6 26  1  0  0  0  0
  7 27  1  0  0  0  0
  8 28  1  0  0  0  0
  9 29  1  0  0  0  0
 10 30  1  0  0  0  0
 11 31  1  0  0  0  0
 11 32  1  0  0  0  0
 11 33  1  0  0  0  0
 12 34  1  0  0  0  0
 12 35  1  0  0  0  0
 12 36  1  0  0  0  0
 13 37  1  0  0  0  0
 13 38  1  0  0  0  0
 13 39  1  0  0  0  0
M  END
> <id>
EN300-383916

> <smiles>
CC(C)(C)OC(=O)N1C[C@H]2[C@@H]3C[C@@H]([C@@H]4O[C@@H]43)[C@H]2C1

> <MDLNUMBER>
MFCD30750666

> <IUPAC Name>
tert-butyl (1R,2S,6R,7S,8R,10S)-9-oxa-4-azatetracyclo[5.3.1.0^{2,6}.0^{8,10}]undecane-4-carboxylate

> <CAS>
2126143-04-0

> <Purity>
95

> <URL>
https://www.enaminestore.com/catalog/EN300-383916

> <ROCS_ShapeQuery>
x0812_0A_x1140_0A_x1097_0A_x0365_0A_x1097_0A_x0310_0A

> <ROCS_TanimotoCombo>
0.697 

> <ROCS_ShapeTanimoto>
0.200 

> <ROCS_ColorTanimoto>
0.497 

> <ROCS_RefTversky>
0.189 

> <ROCS_RefColorTversky>
0.786 

> <ROCS_RefTverskyCombo>
0.974 

> <ROCS_FitTversky>
1.443 

> <ROCS_FitColorTversky>
0.574 

> <ROCS_FitTverskyCombo>
2.017 

> <ROCS_ColorScore>
-12.142

> <ROCS_Overlap>
1909.407

> <ROCS_Rank>
411                 

$$$$
untitled-dbase-342633_0
  -OEChem-02092408543D

 29 30  0     0  0  0  0  0  0999 V2000
    8.4811   11.2920   25.8783 C   0  0  0  0  0  0  0  0  0  0  0  0
    6.8916   11.5151   23.9658 C   0  0  0  0  0  0  0  0  0  0  0  0
    9.6434   11.7408   24.9843 C   0  0  0  0  0  0  0  0  0  0  0  0
    8.0356   11.9702   23.0515 C   0  0  0  0  0  0  0  0  0  0  0  0
    8.1693    9.4068   24.2868 C   0  0  0  0  0  0  0  0  0  0  0  0
    7.4406   10.5417   25.0249 C   0  0  0  0  0  0  0  0  0  0  0  0
    9.3603   11.3456   23.5241 C   0  0  0  0  0  0  0  0  0  0  0  0
   11.2408   11.7004   20.3782 C   0  0  0  0  0  0  0  0  0  0  0  0
   10.5139   11.7502   22.6125 C   0  0  0  0  0  0  0  0  0  0  0  0
    6.3613   10.0339   25.8627 N   0  0  0  0  0  0  0  0  0  0  0  0
    9.2311    9.9126   23.4612 O   0  0  0  0  0  0  0  0  0  0  0  0
   10.2038   11.3534   21.2890 O   0  0  0  0  0  0  0  0  0  0  0  0
    8.8664   10.6506   26.6814 H   0  0  0  0  0  0  0  0  0  0  0  0
    8.0302   12.1651   26.3673 H   0  0  0  0  0  0  0  0  0  0  0  0
    6.4260   12.3885   24.4401 H   0  0  0  0  0  0  0  0  0  0  0  0
    6.1107   11.0366   23.3604 H   0  0  0  0  0  0  0  0  0  0  0  0
    9.7926   12.8229   25.0783 H   0  0  0  0  0  0  0  0  0  0  0  0
   10.5623   11.2538   25.3345 H   0  0  0  0  0  0  0  0  0  0  0  0
    7.8128   11.6489   22.0263 H   0  0  0  0  0  0  0  0  0  0  0  0
    8.0965   13.0650   23.0429 H   0  0  0  0  0  0  0  0  0  0  0  0
    8.6121    8.6904   24.9888 H   0  0  0  0  0  0  0  0  0  0  0  0
    7.4868    8.8464   23.6373 H   0  0  0  0  0  0  0  0  0  0  0  0
   10.9649   11.3786   19.3710 H   0  0  0  0  0  0  0  0  0  0  0  0
   12.1723   11.2175   20.6841 H   0  0  0  0  0  0  0  0  0  0  0  0
   11.3744   12.7847   20.3880 H   0  0  0  0  0  0  0  0  0  0  0  0
   11.4317   11.2553   22.9309 H   0  0  0  0  0  0  0  0  0  0  0  0
   10.6505   12.8315   22.6415 H   0  0  0  0  0  0  0  0  0  0  0  0
    5.5079   10.4368   25.5528 H   0  0  0  0  0  0  0  0  0  0  0  0
    6.3335    9.0451   25.7717 H   0  0  0  0  0  0  0  0  0  0  0  0
  1  3  1  0  0  0  0
  1  6  1  0  0  0  0
  2  4  1  0  0  0  0
  2  6  1  0  0  0  0
  3  7  1  0  0  0  0
  4  7  1  0  0  0  0
  5  6  1  0  0  0  0
  5 11  1  0  0  0  0
  6 10  1  0  0  0  0
  7  9  1  0  0  0  0
  7 11  1  0  0  0  0
  8 12  1  0  0  0  0
  9 12  1  0  0  0  0
  1 13  1  0  0  0  0
  1 14  1  0  0  0  0
  2 15  1  0  0  0  0
  2 16  1  0  0  0  0
  3 17  1  0  0  0  0
  3 18  1  0  0  0  0
  4 19  1  0  0  0  0
  4 20  1  0  0  0  0
  5 21  1  0  0  0  0
  5 22  1  0  0  0  0
  8 23  1  0  0  0  0
  8 24  1  0  0  0  0
  8 25  1  0  0  0  0
  9 26  1  0  0  0  0
  9 27  1  0  0  0  0
 10 28  1  0  0  0  0
 10 29  1  0  0  0  0
M  END
> <id>
EN300-27113707

> <smiles>
Cl.COCC1(CCC2(N)CC1)OC2

> <MDLNUMBER>
MFCD32852487

> <IUPAC Name>
1-(methoxymethyl)-2-oxabicyclo[2.2.2]octan-4-amine hydrochloride

> <CAS>
2490432-61-4

> <Purity>
95

> <URL>
https://www.enaminestore.com/catalog/EN300-27113707

> <Saltdate>
Cl

> <ROCS_ShapeQuery>
x0812_0A_x1140_0A_x1097_0A_x0365_0A_x1097_0A_x0310_0A

> <ROCS_TanimotoCombo>
0.697 

> <ROCS_ShapeTanimoto>
0.207 

> <ROCS_ColorTanimoto>
0.490 

> <ROCS_RefTversky>
0.189 

> <ROCS_RefColorTversky>
0.556 

> <ROCS_RefTverskyCombo>
0.745 

> <ROCS_FitTversky>
1.856 

> <ROCS_FitColorTversky>
0.804 

> <ROCS_FitTverskyCombo>
2.660 

> <ROCS_ColorScore>
-8.281

> <ROCS_Overlap>
1908.503

> <ROCS_Rank>
412                 

$$$$
untitled-dbase-454070_0
  -OEChem-02092408543D

 29 30  0     0  0  0  0  0  0999 V2000
    8.4811   11.2920   25.8783 C   0  0  0  0  0  0  0  0  0  0  0  0
    6.8916   11.5151   23.9658 C   0  0  0  0  0  0  0  0  0  0  0  0
    9.6434   11.7408   24.9843 C   0  0  0  0  0  0  0  0  0  0  0  0
    8.0356   11.9702   23.0515 C   0  0  0  0  0  0  0  0  0  0  0  0
    8.1693    9.4068   24.2868 C   0  0  0  0  0  0  0  0  0  0  0  0
    7.4406   10.5417   25.0249 C   0  0  0  0  0  0  0  0  0  0  0  0
    9.3603   11.3456   23.5241 C   0  0  0  0  0  0  0  0  0  0  0  0
   11.2408   11.7004   20.3782 C   0  0  0  0  0  0  0  0  0  0  0  0
   10.5139   11.7502   22.6125 C   0  0  0  0  0  0  0  0  0  0  0  0
    6.3613   10.0339   25.8627 N   0  0  0  0  0  0  0  0  0  0  0  0
    9.2311    9.9126   23.4612 O   0  0  0  0  0  0  0  0  0  0  0  0
   10.2038   11.3534   21.2890 O   0  0  0  0  0  0  0  0  0  0  0  0
    8.8664   10.6506   26.6814 H   0  0  0  0  0  0  0  0  0  0  0  0
    8.0302   12.1651   26.3673 H   0  0  0  0  0  0  0  0  0  0  0  0
    6.4260   12.3885   24.4401 H   0  0  0  0  0  0  0  0  0  0  0  0
    6.1107   11.0366   23.3604 H   0  0  0  0  0  0  0  0  0  0  0  0
    9.7926   12.8229   25.0783 H   0  0  0  0  0  0  0  0  0  0  0  0
   10.5623   11.2538   25.3345 H   0  0  0  0  0  0  0  0  0  0  0  0
    7.8128   11.6489   22.0263 H   0  0  0  0  0  0  0  0  0  0  0  0
    8.0965   13.0650   23.0429 H   0  0  0  0  0  0  0  0  0  0  0  0
    8.6121    8.6904   24.9888 H   0  0  0  0  0  0  0  0  0  0  0  0
    7.4868    8.8464   23.6373 H   0  0  0  0  0  0  0  0  0  0  0  0
   10.9649   11.3786   19.3710 H   0  0  0  0  0  0  0  0  0  0  0  0
   12.1723   11.2175   20.6841 H   0  0  0  0  0  0  0  0  0  0  0  0
   11.3744   12.7847   20.3880 H   0  0  0  0  0  0  0  0  0  0  0  0
   11.4317   11.2553   22.9309 H   0  0  0  0  0  0  0  0  0  0  0  0
   10.6505   12.8315   22.6415 H   0  0  0  0  0  0  0  0  0  0  0  0
    5.5079   10.4368   25.5528 H   0  0  0  0  0  0  0  0  0  0  0  0
    6.3335    9.0451   25.7717 H   0  0  0  0  0  0  0  0  0  0  0  0
  1  3  1  0  0  0  0
  1  6  1  0  0  0  0
  2  4  1  0  0  0  0
  2  6  1  0  0  0  0
  3  7  1  0  0  0  0
  4  7  1  0  0  0  0
  5  6  1  0  0  0  0
  5 11  1  0  0  0  0
  6 10  1  0  0  0  0
  7  9  1  0  0  0  0
  7 11  1  0  0  0  0
  8 12  1  0  0  0  0
  9 12  1  0  0  0  0
  1 13  1  0  0  0  0
  1 14  1  0  0  0  0
  2 15  1  0  0  0  0
  2 16  1  0  0  0  0
  3 17  1  0  0  0  0
  3 18  1  0  0  0  0
  4 19  1  0  0  0  0
  4 20  1  0  0  0  0
  5 21  1  0  0  0  0
  5 22  1  0  0  0  0
  8 23  1  0  0  0  0
  8 24  1  0  0  0  0
  8 25  1  0  0  0  0
  9 26  1  0  0  0  0
  9 27  1  0  0  0  0
 10 28  1  0  0  0  0
 10 29  1  0  0  0  0
M  END
> <id>
EN300-27113708

> <smiles>
COCC1(CCC2(N)CC1)OC2

> <MDLNUMBER>
MFCD32853140

> <IUPAC Name>
1-(methoxymethyl)-2-oxabicyclo[2.2.2]octan-4-amine

> <CAS>
2490404-56-1

> <URL>
https://www.enaminestore.com/catalog/EN300-27113708

> <ROCS_ShapeQuery>
x0812_0A_x1140_0A_x1097_0A_x0365_0A_x1097_0A_x0310_0A

> <ROCS_TanimotoCombo>
0.697 

> <ROCS_ShapeTanimoto>
0.207 

> <ROCS_ColorTanimoto>
0.490 

> <ROCS_RefTversky>
0.189 

> <ROCS_RefColorTversky>
0.556 

> <ROCS_RefTverskyCombo>
0.745 

> <ROCS_FitTversky>
1.856 

> <ROCS_FitColorTversky>
0.804 

> <ROCS_FitTverskyCombo>
2.660 

> <ROCS_ColorScore>
-8.281

> <ROCS_Overlap>
1908.503

> <ROCS_Rank>
413                 

$$$$
untitled-dbase-102391_1
  -OEChem-02092408543D

 25 26  0     1  0  0  0  0  0999 V2000
    8.5265   12.7252   24.1137 C   0  0  0  0  0  0  0  0  0  0  0  0
    7.3519   12.0625   23.3537 C   0  0  0  0  0  0  0  0  0  0  0  0
    9.3188   10.8248   25.6106 C   0  0  0  0  0  0  0  0  0  0  0  0
    7.3511    9.7143   24.3364 C   0  0  0  0  0  0  0  0  0  0  0  0
    7.8719   10.2811   25.6784 C   0  0  0  0  0  0  0  0  0  0  0  0
    9.6143   11.6607   24.3534 C   0  0  1  0  0  0  0  0  0  0  0  0
    7.7004   10.5809   23.1143 C   0  0  2  0  0  0  0  0  0  0  0  0
    7.7443    9.2352   26.7871 C   0  0  0  0  0  0  0  0  0  0  0  0
   10.0474    9.3086   23.1661 O   0  0  0  0  0  0  0  0  0  0  0  0
    9.8128   11.3756   21.7272 O   0  0  0  0  0  0  0  0  0  0  0  0
    9.4761   10.6130   22.9118 S   0  0  0  0  0  0  0  0  0  0  0  0
    6.0459    9.0502   27.2549 Cl  0  0  0  0  0  0  0  0  0  0  0  0
    8.9344   13.5303   23.4896 H   0  0  0  0  0  0  0  0  0  0  0  0
    8.1929   13.1914   25.0469 H   0  0  0  0  0  0  0  0  0  0  0  0
    6.4042   12.1823   23.8894 H   0  0  0  0  0  0  0  0  0  0  0  0
    7.2324   12.5700   22.3883 H   0  0  0  0  0  0  0  0  0  0  0  0
    9.4998   11.4431   26.4992 H   0  0  0  0  0  0  0  0  0  0  0  0
   10.0303    9.9916   25.6695 H   0  0  0  0  0  0  0  0  0  0  0  0
    7.7409    8.6997   24.1868 H   0  0  0  0  0  0  0  0  0  0  0  0
    6.2600    9.6146   24.4012 H   0  0  0  0  0  0  0  0  0  0  0  0
    7.2171   11.1159   25.9620 H   0  0  0  0  0  0  0  0  0  0  0  0
   10.6181   12.0916   24.3892 H   0  0  0  0  0  0  0  0  0  0  0  0
    7.2421   10.1871   22.2034 H   0  0  0  0  0  0  0  0  0  0  0  0
    8.3130    9.5468   27.6611 H   0  0  0  0  0  0  0  0  0  0  0  0
    8.1147    8.2736   26.4372 H   0  0  0  0  0  0  0  0  0  0  0  0
  1  2  1  0  0  0  0
  1  6  1  0  0  0  0
  2  7  1  0  0  0  0
  3  5  1  0  0  0  0
  3  6  1  0  0  0  0
  4  5  1  0  0  0  0
  4  7  1  0  0  0  0
  5  8  1  0  0  0  0
  6 11  1  0  0  0  0
  7 11  1  0  0  0  0
  8 12  1  0  0  0  0
  9 11  2  0  0  0  0
 10 11  2  0  0  0  0
  1 13  1  0  0  0  0
  1 14  1  0  0  0  0
  2 15  1  0  0  0  0
  2 16  1  0  0  0  0
  3 17  1  0  0  0  0
  3 18  1  0  0  0  0
  4 19  1  0  0  0  0
  4 20  1  0  0  0  0
  5 21  1  0  0  0  0
  6 22  1  0  0  0  0
  7 23  1  0  0  0  0
  8 24  1  0  0  0  0
  8 25  1  0  0  0  0
M  END
> <id>
EN300-765436

> <smiles>
ClCC1CC2CCC(C1)S2(=O)=O

> <IUPAC Name>
3-(chloromethyl)-8lambda6-thiabicyclo[3.2.1]octane-8,8-dione

> <CAS>
2138213-12-2

> <URL>
https://www.enaminestore.com/catalog/EN300-765436

> <ROCS_ShapeQuery>
x0812_0A_x1140_0A_x1097_0A_x0365_0A_x1097_0A_x0310_0A

> <ROCS_TanimotoCombo>
0.697 

> <ROCS_ShapeTanimoto>
0.182 

> <ROCS_ColorTanimoto>
0.515 

> <ROCS_RefTversky>
0.169 

> <ROCS_RefColorTversky>
0.526 

> <ROCS_RefTverskyCombo>
0.695 

> <ROCS_FitTversky>
1.722 

> <ROCS_FitColorTversky>
0.960 

> <ROCS_FitTverskyCombo>
2.683 

> <ROCS_ColorScore>
-7.766

> <ROCS_Overlap>
1707.378

> <ROCS_Rank>
414                 

$$$$
untitled-dbase-459557_0
  -OEChem-02092408543D

 30 32  0     0  0  0  0  0  0999 V2000
    6.8705   10.3175   24.6600 C   0  0  0  0  0  0  0  0  0  0  0  0
    7.4694   11.8600   22.7780 C   0  0  0  0  0  0  0  0  0  0  0  0
    8.7292    9.7071   23.0939 C   0  0  0  0  0  0  0  0  0  0  0  0
    7.9846   12.5100   25.1358 C   0  0  0  0  0  0  0  0  0  0  0  0
    9.2469   10.3520   25.4516 C   0  0  0  0  0  0  0  0  0  0  0  0
    7.3514   10.3848   23.2004 C   0  0  0  0  0  0  0  0  0  0  0  0
    7.8746   11.0388   25.5760 C   0  0  0  0  0  0  0  0  0  0  0  0
    8.4892   12.5919   23.6809 C   0  0  0  0  0  0  0  0  0  0  0  0
    9.7519   10.4361   23.9967 C   0  0  0  0  0  0  0  0  0  0  0  0
    9.8813   11.9163   23.5469 C   0  0  0  0  0  0  0  0  0  0  0  0
   10.9755   12.6736   24.3105 C   0  0  0  0  0  0  0  0  0  0  0  0
   10.2724   11.9604   22.1674 O   0  0  0  0  0  0  0  0  0  0  0  0
    5.8801   10.7801   24.7507 H   0  0  0  0  0  0  0  0  0  0  0  0
    6.7625    9.2713   24.9717 H   0  0  0  0  0  0  0  0  0  0  0  0
    7.7685   11.9267   21.7253 H   0  0  0  0  0  0  0  0  0  0  0  0
    6.4895   12.3482   22.8536 H   0  0  0  0  0  0  0  0  0  0  0  0
    8.6512    8.6550   23.3956 H   0  0  0  0  0  0  0  0  0  0  0  0
    9.0682    9.7069   22.0513 H   0  0  0  0  0  0  0  0  0  0  0  0
    7.0026   12.9938   25.2144 H   0  0  0  0  0  0  0  0  0  0  0  0
    8.6486   13.0588   25.8121 H   0  0  0  0  0  0  0  0  0  0  0  0
    9.9635   10.8118   26.1405 H   0  0  0  0  0  0  0  0  0  0  0  0
    9.1632    9.3004   25.7543 H   0  0  0  0  0  0  0  0  0  0  0  0
    6.6341    9.8699   22.5518 H   0  0  0  0  0  0  0  0  0  0  0  0
    7.5275   10.9878   26.6140 H   0  0  0  0  0  0  0  0  0  0  0  0
    8.5461   13.6389   23.3596 H   0  0  0  0  0  0  0  0  0  0  0  0
   10.7189    9.9270   23.9044 H   0  0  0  0  0  0  0  0  0  0  0  0
   11.9254   12.1615   24.1847 H   0  0  0  0  0  0  0  0  0  0  0  0
   10.7211   12.7104   25.3661 H   0  0  0  0  0  0  0  0  0  0  0  0
   11.0549   13.6849   23.9215 H   0  0  0  0  0  0  0  0  0  0  0  0
   11.1389   11.5332   22.1220 H   0  0  0  0  0  0  0  0  0  0  0  0
  1  6  1  0  0  0  0
  1  7  1  0  0  0  0
  2  6  1  0  0  0  0
  2  8  1  0  0  0  0
  3  6  1  0  0  0  0
  3  9  1  0  0  0  0
  4  7  1  0  0  0  0
  4  8  1  0  0  0  0
  5  7  1  0  0  0  0
  5  9  1  0  0  0  0
  8 10  1  0  0  0  0
  9 10  1  0  0  0  0
 10 11  1  0  0  0  0
 10 12  1  0  0  0  0
  1 13  1  0  0  0  0
  1 14  1  0  0  0  0
  2 15  1  0  0  0  0
  2 16  1  0  0  0  0
  3 17  1  0  0  0  0
  3 18  1  0  0  0  0
  4 19  1  0  0  0  0
  4 20  1  0  0  0  0
  5 21  1  0  0  0  0
  5 22  1  0  0  0  0
  6 23  1  0  0  0  0
  7 24  1  0  0  0  0
  8 25  1  0  0  0  0
  9 26  1  0  0  0  0
 11 27  1  0  0  0  0
 11 28  1  0  0  0  0
 11 29  1  0  0  0  0
 12 30  1  0  0  0  0
M  END
> <id>
EN300-3458567

> <smiles>
CC1(O)C2CC3CC(C2)CC1C3

> <IUPAC Name>
2-methyladamantan-2-ol

> <CAS>
702-98-7

> <Purity>
95

> <URL>
https://www.enaminestore.com/catalog/EN300-3458567

> <MP>
215-217

> <ROCS_ShapeQuery>
x0812_0A_x1140_0A_x1097_0A_x0365_0A_x1097_0A_x0310_0A

> <ROCS_TanimotoCombo>
0.697 

> <ROCS_ShapeTanimoto>
0.224 

> <ROCS_ColorTanimoto>
0.473 

> <ROCS_RefTversky>
0.202 

> <ROCS_RefColorTversky>
0.512 

> <ROCS_RefTverskyCombo>
0.713 

> <ROCS_FitTversky>
1.957 

> <ROCS_FitColorTversky>
0.862 

> <ROCS_FitTverskyCombo>
2.819 

> <ROCS_ColorScore>
-7.574

> <ROCS_Overlap>
2037.653

> <ROCS_Rank>
415                 

$$$$
untitled-dbase-164218_1
  -OEChem-02092408543D

 34 36  0     0  0  0  0  0  0999 V2000
   10.4695   11.2825   22.2905 C   0  0  0  0  0  0  0  0  0  0  0  0
    6.9775   11.8172   25.3409 C   0  0  0  0  0  0  0  0  0  0  0  0
    9.3140   12.5234   24.7867 C   0  0  0  0  0  0  0  0  0  0  0  0
    7.6449   12.1311   22.9450 C   0  0  0  0  0  0  0  0  0  0  0  0
    8.8855   10.2241   25.6609 C   0  0  0  0  0  0  0  0  0  0  0  0
    7.2052    9.8414   23.8224 C   0  0  0  0  0  0  0  0  0  0  0  0
    7.8361   12.6555   24.3798 C   0  0  0  0  0  0  0  0  0  0  0  0
    7.4019   10.3414   25.2649 C   0  0  0  0  0  0  0  0  0  0  0  0
    9.7665   11.0475   24.6918 C   0  0  0  0  0  0  0  0  0  0  0  0
    8.0939   10.6524   22.8491 C   0  0  0  0  0  0  0  0  0  0  0  0
    9.5866   10.5172   23.2481 C   0  0  0  0  0  0  0  0  0  0  0  0
   12.5197   12.4488   22.1480 C   0  0  0  0  0  0  0  0  0  0  0  0
   10.0721    9.1406   23.1044 N   0  0  0  0  0  0  0  0  0  0  0  0
   10.1967   11.4774   21.1137 O   0  0  0  0  0  0  0  0  0  0  0  0
   11.5896   11.7060   22.9425 O   0  0  0  0  0  0  0  0  0  0  0  0
    7.0894   12.1884   26.3670 H   0  0  0  0  0  0  0  0  0  0  0  0
    5.9165   11.9171   25.0813 H   0  0  0  0  0  0  0  0  0  0  0  0
    9.9360   13.1586   24.1455 H   0  0  0  0  0  0  0  0  0  0  0  0
    9.4528   12.8891   25.8119 H   0  0  0  0  0  0  0  0  0  0  0  0
    6.5904   12.2185   22.6538 H   0  0  0  0  0  0  0  0  0  0  0  0
    8.2122   12.7518   22.2419 H   0  0  0  0  0  0  0  0  0  0  0  0
    9.0217   10.5966   26.6846 H   0  0  0  0  0  0  0  0  0  0  0  0
    9.1913    9.1727   25.6816 H   0  0  0  0  0  0  0  0  0  0  0  0
    7.4340    8.7716   23.7597 H   0  0  0  0  0  0  0  0  0  0  0  0
    6.1511    9.9444   23.5343 H   0  0  0  0  0  0  0  0  0  0  0  0
    7.5298   13.7064   24.4338 H   0  0  0  0  0  0  0  0  0  0  0  0
    6.7875    9.7467   25.9501 H   0  0  0  0  0  0  0  0  0  0  0  0
   10.8163   10.9785   25.0036 H   0  0  0  0  0  0  0  0  0  0  0  0
    7.9305   10.2998   21.8229 H   0  0  0  0  0  0  0  0  0  0  0  0
   13.3755   12.7382   22.7628 H   0  0  0  0  0  0  0  0  0  0  0  0
   12.0283   13.3387   21.7467 H   0  0  0  0  0  0  0  0  0  0  0  0
   12.8629   11.8209   21.3224 H   0  0  0  0  0  0  0  0  0  0  0  0
   10.3941    8.8375   23.9907 H   0  0  0  0  0  0  0  0  0  0  0  0
    9.3157    8.5829   22.7913 H   0  0  0  0  0  0  0  0  0  0  0  0
  1 11  1  0  0  0  0
  1 14  2  0  0  0  0
  1 15  1  0  0  0  0
  2  7  1  0  0  0  0
  2  8  1  0  0  0  0
  3  7  1  0  0  0  0
  3  9  1  0  0  0  0
  4  7  1  0  0  0  0
  4 10  1  0  0  0  0
  5  8  1  0  0  0  0
  5  9  1  0  0  0  0
  6  8  1  0  0  0  0
  6 10  1  0  0  0  0
  9 11  1  0  0  0  0
 10 11  1  0  0  0  0
 11 13  1  0  0  0  0
 12 15  1  0  0  0  0
  2 16  1  0  0  0  0
  2 17  1  0  0  0  0
  3 18  1  0  0  0  0
  3 19  1  0  0  0  0
  4 20  1  0  0  0  0
  4 21  1  0  0  0  0
  5 22  1  0  0  0  0
  5 23  1  0  0  0  0
  6 24  1  0  0  0  0
  6 25  1  0  0  0  0
  7 26  1  0  0  0  0
  8 27  1  0  0  0  0
  9 28  1  0  0  0  0
 10 29  1  0  0  0  0
 12 30  1  0  0  0  0
 12 31  1  0  0  0  0
 12 32  1  0  0  0  0
 13 33  1  0  0  0  0
 13 34  1  0  0  0  0
M  END
> <id>
EN300-1068732

> <smiles>
COC(=O)C1(N)C2CC3CC(C2)CC1C3

> <MDLNUMBER>
MFCD09264354

> <IUPAC Name>
methyl 2-aminoadamantane-2-carboxylate

> <CAS>
144876-68-6

> <Purity>
95

> <URL>
https://www.enaminestore.com/catalog/EN300-1068732

> <ROCS_ShapeQuery>
x0812_0A_x1140_0A_x1097_0A_x0365_0A_x1097_0A_x0310_0A

> <ROCS_TanimotoCombo>
0.696 

> <ROCS_ShapeTanimoto>
0.248 

> <ROCS_ColorTanimoto>
0.448 

> <ROCS_RefTversky>
0.222 

> <ROCS_RefColorTversky>
0.513 

> <ROCS_RefTverskyCombo>
0.734 

> <ROCS_FitTversky>
1.908 

> <ROCS_FitColorTversky>
0.782 

> <ROCS_FitTverskyCombo>
2.689 

> <ROCS_ColorScore>
-7.613

> <ROCS_Overlap>
2242.983

> <ROCS_Rank>
416                 

$$$$
untitled-dbase-484569_5
  -OEChem-02092408543D

 38 40  0     1  0  0  0  0  0999 V2000
   10.7296   16.4832   23.7121 C   0  0  0  0  0  0  0  0  0  0  0  0
   10.6925   15.9883   25.0157 C   0  0  0  0  0  0  0  0  0  0  0  0
    9.6995   16.1804   22.8216 C   0  0  0  0  0  0  0  0  0  0  0  0
    9.6254   15.1907   25.4288 C   0  0  0  0  0  0  0  0  0  0  0  0
    8.6324   15.3828   23.2347 C   0  0  0  0  0  0  0  0  0  0  0  0
    8.5953   14.8879   24.5383 C   0  0  0  0  0  0  0  0  0  0  0  0
    8.0850    9.7500   25.2097 C   0  0  0  0  0  0  0  0  0  0  0  0
    7.3460    9.8455   23.8625 C   0  0  0  0  0  0  0  0  0  0  0  0
    8.8909   12.1426   25.4656 C   0  0  0  0  0  0  0  0  0  0  0  0
    7.7066   12.2946   23.3082 C   0  0  0  0  0  0  0  0  0  0  0  0
    9.2937   10.7043   25.0663 C   0  0  2  0  0  0  0  0  0  0  0  0
    8.1757   10.8485   23.0265 C   0  0  1  0  0  0  0  0  0  0  0  0
    9.5984   10.6189   23.5616 C   0  0  0  0  0  0  0  0  0  0  0  0
    7.4465   14.0292   24.9823 C   0  0  0  0  0  0  0  0  0  0  0  0
   10.6712   11.5663   23.0350 C   0  0  0  0  0  0  0  0  0  0  0  0
    7.6996   12.6132   24.7436 N   0  0  0  0  0  0  0  0  0  0  0  0
   10.0196    9.2929   23.2212 O   0  0  0  0  0  0  0  0  0  0  0  0
   11.8394   11.3310   23.6531 F   0  0  0  0  0  0  0  0  0  0  0  0
   10.8368   11.3889   21.7147 F   0  0  0  0  0  0  0  0  0  0  0  0
   10.3125   12.8405   23.2587 F   0  0  0  0  0  0  0  0  0  0  0  0
   11.5599   17.1054   23.3910 H   0  0  0  0  0  0  0  0  0  0  0  0
   11.4939   16.2249   25.7096 H   0  0  0  0  0  0  0  0  0  0  0  0
    9.7275   16.5664   21.8070 H   0  0  0  0  0  0  0  0  0  0  0  0
    9.6050   14.8094   26.4464 H   0  0  0  0  0  0  0  0  0  0  0  0
    7.8343   15.1520   22.5340 H   0  0  0  0  0  0  0  0  0  0  0  0
    7.4373   10.0114   26.0531 H   0  0  0  0  0  0  0  0  0  0  0  0
    8.4265    8.7202   25.3692 H   0  0  0  0  0  0  0  0  0  0  0  0
    7.3355    8.8614   23.3789 H   0  0  0  0  0  0  0  0  0  0  0  0
    6.3040   10.1585   23.9867 H   0  0  0  0  0  0  0  0  0  0  0  0
    8.6751   12.1558   26.5414 H   0  0  0  0  0  0  0  0  0  0  0  0
    9.7394   12.8196   25.3110 H   0  0  0  0  0  0  0  0  0  0  0  0
    8.3348   12.9998   22.7512 H   0  0  0  0  0  0  0  0  0  0  0  0
    6.6869   12.4103   22.9197 H   0  0  0  0  0  0  0  0  0  0  0  0
   10.1285   10.3537   25.6828 H   0  0  0  0  0  0  0  0  0  0  0  0
    8.0865   10.6175   21.9594 H   0  0  0  0  0  0  0  0  0  0  0  0
    7.2563   14.1620   26.0529 H   0  0  0  0  0  0  0  0  0  0  0  0
    6.5267   14.2988   24.4526 H   0  0  0  0  0  0  0  0  0  0  0  0
   10.8155    9.1206   23.7442 H   0  0  0  0  0  0  0  0  0  0  0  0
  1  2  1  0  0  0  0
  1  3  2  0  0  0  0
  2  4  2  0  0  0  0
  3  5  1  0  0  0  0
  4  6  1  0  0  0  0
  5  6  2  0  0  0  0
  6 14  1  0  0  0  0
  7  8  1  0  0  0  0
  7 11  1  0  0  0  0
  8 12  1  0  0  0  0
  9 11  1  0  0  0  0
  9 16  1  0  0  0  0
 10 12  1  0  0  0  0
 10 16  1  0  0  0  0
 11 13  1  0  0  0  0
 12 13  1  0  0  0  0
 13 15  1  0  0  0  0
 13 17  1  0  0  0  0
 14 16  1  0  0  0  0
 15 18  1  0  0  0  0
 15 19  1  0  0  0  0
 15 20  1  0  0  0  0
  1 21  1  0  0  0  0
  2 22  1  0  0  0  0
  3 23  1  0  0  0  0
  4 24  1  0  0  0  0
  5 25  1  0  0  0  0
  7 26  1  0  0  0  0
  7 27  1  0  0  0  0
  8 28  1  0  0  0  0
  8 29  1  0  0  0  0
  9 30  1  0  0  0  0
  9 31  1  0  0  0  0
 10 32  1  0  0  0  0
 10 33  1  0  0  0  0
 11 34  1  0  0  0  0
 12 35  1  0  0  0  0
 14 36  1  0  0  0  0
 14 37  1  0  0  0  0
 17 38  1  0  0  0  0
M  END
> <id>
EN300-89626

> <smiles>
OC1(C2CCC1CN(CC=3C=CC=CC3)C2)C(F)(F)F

> <MDLNUMBER>
MFCD19442732

> <IUPAC Name>
3-benzyl-8-(trifluoromethyl)-3-azabicyclo[3.2.1]octan-8-ol

> <CAS>
1251924-03-4

> <URL>
https://www.enaminestore.com/catalog/EN300-89626

> <ROCS_ShapeQuery>
x0812_0A_x1140_0A_x1097_0A_x0365_0A_x1097_0A_x0310_0A

> <ROCS_TanimotoCombo>
0.696 

> <ROCS_ShapeTanimoto>
0.245 

> <ROCS_ColorTanimoto>
0.452 

> <ROCS_RefTversky>
0.224 

> <ROCS_RefColorTversky>
0.522 

> <ROCS_RefTverskyCombo>
0.746 

> <ROCS_FitTversky>
1.614 

> <ROCS_FitColorTversky>
0.770 

> <ROCS_FitTverskyCombo>
2.384 

> <ROCS_ColorScore>
-7.761

> <ROCS_Overlap>
2266.223

> <ROCS_Rank>
417                 

$$$$
untitled-dbase-347951_3
  -OEChem-02092408543D

 40 41  0     1  0  0  0  0  0999 V2000
    7.4263   13.3774   24.7295 C   0  0  0  0  0  0  0  0  0  0  0  0
    7.2205    9.7939   24.3467 C   0  0  0  0  0  0  0  0  0  0  0  0
    8.1596    9.9611   25.5584 C   0  0  0  0  0  0  0  0  0  0  0  0
    8.4692   11.0892   22.5260 C   0  0  0  0  0  0  0  0  0  0  0  0
   10.0538   11.3641   24.5592 C   0  0  0  0  0  0  0  0  0  0  0  0
    7.3353   11.1123   23.5732 C   0  0  2  0  0  0  0  0  0  0  0  0
    8.7595   11.3619   25.4012 C   0  0  1  0  0  0  0  0  0  0  0  0
    9.8636   10.7711   23.1357 C   0  0  0  0  0  0  0  0  0  0  0  0
    5.7748   13.7057   26.7366 C   0  0  0  0  0  0  0  0  0  0  0  0
    7.7241   14.3759   28.1719 C   0  0  0  0  0  0  0  0  0  0  0  0
    6.8383   15.9678   26.4429 C   0  0  0  0  0  0  0  0  0  0  0  0
   10.9806   11.2543   22.2060 C   0  0  0  0  0  0  0  0  0  0  0  0
    7.0788   14.5001   26.7934 C   0  0  0  0  0  0  0  0  0  0  0  0
    7.7493   12.0398   24.6125 N   0  0  0  0  0  0  0  0  0  0  0  0
    6.7146   13.9880   23.9353 O   0  0  0  0  0  0  0  0  0  0  0  0
   10.0086    9.3484   23.2380 O   0  0  0  0  0  0  0  0  0  0  0  0
    7.9912   13.9469   25.8385 O   0  0  0  0  0  0  0  0  0  0  0  0
   10.8823   12.5787   22.0258 F   0  0  0  0  0  0  0  0  0  0  0  0
   12.1751   10.9731   22.7445 F   0  0  0  0  0  0  0  0  0  0  0  0
   10.8808   10.6423   21.0178 F   0  0  0  0  0  0  0  0  0  0  0  0
    7.4726    8.9167   23.7434 H   0  0  0  0  0  0  0  0  0  0  0  0
    6.1939    9.6583   24.7079 H   0  0  0  0  0  0  0  0  0  0  0  0
    7.5670    9.9064   26.4796 H   0  0  0  0  0  0  0  0  0  0  0  0
    8.9161    9.1723   25.6084 H   0  0  0  0  0  0  0  0  0  0  0  0
    8.2230   10.3532   21.7503 H   0  0  0  0  0  0  0  0  0  0  0  0
    8.4972   12.0737   22.0403 H   0  0  0  0  0  0  0  0  0  0  0  0
   10.3987   12.4035   24.4783 H   0  0  0  0  0  0  0  0  0  0  0  0
   10.8304   10.8092   25.1000 H   0  0  0  0  0  0  0  0  0  0  0  0
    6.3890   11.4046   23.1088 H   0  0  0  0  0  0  0  0  0  0  0  0
    8.9260   11.8587   26.3621 H   0  0  0  0  0  0  0  0  0  0  0  0
    5.3084   13.7922   25.7487 H   0  0  0  0  0  0  0  0  0  0  0  0
    5.9390   12.6448   26.9518 H   0  0  0  0  0  0  0  0  0  0  0  0
    5.0472   14.0964   27.4572 H   0  0  0  0  0  0  0  0  0  0  0  0
    8.6601   14.9444   28.2171 H   0  0  0  0  0  0  0  0  0  0  0  0
    7.9853   13.3337   28.3881 H   0  0  0  0  0  0  0  0  0  0  0  0
    7.0599   14.7383   28.9631 H   0  0  0  0  0  0  0  0  0  0  0  0
    7.7735   16.5378   26.4835 H   0  0  0  0  0  0  0  0  0  0  0  0
    6.4094   16.0783   25.4416 H   0  0  0  0  0  0  0  0  0  0  0  0
    6.1598   16.4349   27.1658 H   0  0  0  0  0  0  0  0  0  0  0  0
    9.2929    9.0472   23.8150 H   0  0  0  0  0  0  0  0  0  0  0  0
  1 14  1  0  0  0  0
  1 15  2  0  0  0  0
  1 17  1  0  0  0  0
  2  3  1  0  0  0  0
  2  6  1  0  0  0  0
  3  7  1  0  0  0  0
  4  6  1  0  0  0  0
  4  8  1  0  0  0  0
  5  7  1  0  0  0  0
  5  8  1  0  0  0  0
  6 14  1  0  0  0  0
  7 14  1  0  0  0  0
  8 12  1  0  0  0  0
  8 16  1  0  0  0  0
  9 13  1  0  0  0  0
 10 13  1  0  0  0  0
 11 13  1  0  0  0  0
 12 18  1  0  0  0  0
 12 19  1  0  0  0  0
 12 20  1  0  0  0  0
 13 17  1  0  0  0  0
  2 21  1  0  0  0  0
  2 22  1  0  0  0  0
  3 23  1  0  0  0  0
  3 24  1  0  0  0  0
  4 25  1  0  0  0  0
  4 26  1  0  0  0  0
  5 27  1  0  0  0  0
  5 28  1  0  0  0  0
  6 29  1  0  0  0  0
  7 30  1  0  0  0  0
  9 31  1  0  0  0  0
  9 32  1  0  0  0  0
  9 33  1  0  0  0  0
 10 34  1  0  0  0  0
 10 35  1  0  0  0  0
 10 36  1  0  0  0  0
 11 37  1  0  0  0  0
 11 38  1  0  0  0  0
 11 39  1  0  0  0  0
 16 40  1  0  0  0  0
M  END
> <id>
EN300-12464143

> <smiles>
CC(C)(C)OC(=O)N1C2CCC1CC(O)(C2)C(F)(F)F

> <MDLNUMBER>
MFCD24467654

> <IUPAC Name>
tert-butyl 3-hydroxy-3-(trifluoromethyl)-8-azabicyclo[3.2.1]octane-8-carboxylate

> <CAS>
1701433-46-6

> <URL>
https://www.enaminestore.com/catalog/EN300-12464143

> <ROCS_ShapeQuery>
x0812_0A_x1140_0A_x1097_0A_x0365_0A_x1097_0A_x0310_0A

> <ROCS_TanimotoCombo>
0.696 

> <ROCS_ShapeTanimoto>
0.245 

> <ROCS_ColorTanimoto>
0.451 

> <ROCS_RefTversky>
0.224 

> <ROCS_RefColorTversky>
0.521 

> <ROCS_RefTverskyCombo>
0.745 

> <ROCS_FitTversky>
1.630 

> <ROCS_FitColorTversky>
0.769 

> <ROCS_FitTverskyCombo>
2.399 

> <ROCS_ColorScore>
-7.753

> <ROCS_Overlap>
2269.557

> <ROCS_Rank>
418                 

$$$$
untitled-dbase-567663_0
  -OEChem-02092408543D

 24 26  0     0  0  0  0  0  0999 V2000
    9.2458   10.7493   25.3408 C   0  0  0  0  0  0  0  0  0  0  0  0
    7.6456    9.8074   24.3655 C   0  0  0  0  0  0  0  0  0  0  0  0
    8.4902   11.2672   21.6013 C   0  0  0  0  0  0  0  0  0  0  0  0
   10.0624   12.2047   22.5629 C   0  0  0  0  0  0  0  0  0  0  0  0
    9.0574   10.2367   23.8918 C   0  0  0  0  0  0  0  0  0  0  0  0
    8.8153   11.4968   23.0690 C   0  0  0  0  0  0  0  0  0  0  0  0
    7.7785   11.2739   24.9844 C   0  0  0  0  0  0  0  0  0  0  0  0
    6.8487   11.7267   26.0719 C   0  0  0  0  0  0  0  0  0  0  0  0
    9.9320    9.1857   23.4734 N   0  0  0  0  0  0  0  0  0  0  0  0
    9.7522   11.8507   21.1923 O   0  0  0  0  0  0  0  0  0  0  0  0
    7.8734   12.2496   23.8816 O   0  0  0  0  0  0  0  0  0  0  0  0
    9.3203   10.0039   26.1408 H   0  0  0  0  0  0  0  0  0  0  0  0
   10.0037   11.5226   25.4949 H   0  0  0  0  0  0  0  0  0  0  0  0
    6.8829    9.6843   23.5912 H   0  0  0  0  0  0  0  0  0  0  0  0
    7.5765    8.9775   25.0782 H   0  0  0  0  0  0  0  0  0  0  0  0
    8.3985   10.2308   21.2650 H   0  0  0  0  0  0  0  0  0  0  0  0
    7.6450   11.8453   21.2144 H   0  0  0  0  0  0  0  0  0  0  0  0
   10.0700   13.2910   22.6977 H   0  0  0  0  0  0  0  0  0  0  0  0
   11.0285   11.7982   22.8745 H   0  0  0  0  0  0  0  0  0  0  0  0
    5.8858   12.0545   25.6583 H   0  0  0  0  0  0  0  0  0  0  0  0
    7.2762   12.5682   26.6330 H   0  0  0  0  0  0  0  0  0  0  0  0
    6.6487   10.9156   26.7846 H   0  0  0  0  0  0  0  0  0  0  0  0
    9.3964    8.3786   23.2151 H   0  0  0  0  0  0  0  0  0  0  0  0
   10.4726    9.4862   22.6845 H   0  0  0  0  0  0  0  0  0  0  0  0
  1  5  1  0  0  0  0
  1  7  1  0  0  0  0
  2  5  1  0  0  0  0
  2  7  1  0  0  0  0
  3  6  1  0  0  0  0
  3 10  1  0  0  0  0
  4  6  1  0  0  0  0
  4 10  1  0  0  0  0
  5  6  1  0  0  0  0
  5  9  1  1  0  0  0
  6 11  1  0  0  0  0
  7  8  1  1  0  0  0
  7 11  1  0  0  0  0
  1 12  1  0  0  0  0
  1 13  1  0  0  0  0
  2 14  1  0  0  0  0
  2 15  1  0  0  0  0
  3 16  1  0  0  0  0
  3 17  1  0  0  0  0
  4 18  1  0  0  0  0
  4 19  1  0  0  0  0
  8 20  1  0  0  0  0
  8 21  1  0  0  0  0
  8 22  1  0  0  0  0
  9 23  1  0  0  0  0
  9 24  1  0  0  0  0
M  END
> <id>
EN300-37375285

> <smiles>
C[C@]1(C[C@@]2(N)C1)OC32COC3

> <IUPAC Name>
4-methyl-3-oxaspiro[bicyclo[2.1.1]hexane-2,3'-oxetan]-1-amine

> <CAS>
2490430-09-4

> <URL>
https://www.enaminestore.com/catalog/EN300-37375285

> <ROCS_ShapeQuery>
x0812_0A_x1140_0A_x1097_0A_x0365_0A_x1097_0A_x0310_0A

> <ROCS_TanimotoCombo>
0.696 

> <ROCS_ShapeTanimoto>
0.210 

> <ROCS_ColorTanimoto>
0.486 

> <ROCS_RefTversky>
0.191 

> <ROCS_RefColorTversky>
0.588 

> <ROCS_RefTverskyCombo>
0.779 

> <ROCS_FitTversky>
1.917 

> <ROCS_FitColorTversky>
0.737 

> <ROCS_FitTverskyCombo>
2.653 

> <ROCS_ColorScore>
-8.799

> <ROCS_Overlap>
1932.739

> <ROCS_Rank>
419                 

$$$$
untitled-dbase-474482_5
  -OEChem-02092408543D

 34 35  0     1  0  0  0  0  0999 V2000
    7.7896   12.0028   25.2458 C   0  0  0  0  0  0  0  0  0  0  0  0
    7.6905   10.7039   25.5678 C   0  0  0  0  0  0  0  0  0  0  0  0
   10.3881   11.9043   22.4744 C   0  0  0  0  0  0  0  0  0  0  0  0
    7.5412   10.8384   23.2706 C   0  0  0  0  0  0  0  0  0  0  0  0
    8.2723   12.0731   23.8139 C   0  0  2  0  0  0  0  0  0  0  0  0
    8.1040    9.9081   24.3499 C   0  0  1  0  0  0  0  0  0  0  0  0
    9.7496   11.6078   23.8007 C   0  0  1  0  0  0  0  0  0  0  0  0
    9.6320   10.0964   24.1626 C   0  0  2  0  0  0  0  0  0  0  0  0
    9.9568   14.4055   21.8838 C   0  0  0  0  0  0  0  0  0  0  0  0
   12.2093   14.9730   22.8394 C   0  0  0  0  0  0  0  0  0  0  0  0
   12.0492   13.8251   20.6112 C   0  0  0  0  0  0  0  0  0  0  0  0
   11.4189   13.9758   21.9950 C   0  0  0  0  0  0  0  0  0  0  0  0
   10.1410    9.1952   23.1331 N   0  0  0  0  0  0  0  0  0  0  0  0
    9.9774   11.4747   21.4049 O   0  0  0  0  0  0  0  0  0  0  0  0
   11.4723   12.7099   22.6603 O   0  0  0  0  0  0  0  0  0  0  0  0
    7.6153   12.8409   25.9012 H   0  0  0  0  0  0  0  0  0  0  0  0
    7.4207   10.3012   26.5308 H   0  0  0  0  0  0  0  0  0  0  0  0
    6.4476   10.9307   23.3021 H   0  0  0  0  0  0  0  0  0  0  0  0
    7.8381   10.5620   22.2535 H   0  0  0  0  0  0  0  0  0  0  0  0
    8.0406   13.0030   23.2921 H   0  0  0  0  0  0  0  0  0  0  0  0
    7.7235    8.8854   24.3286 H   0  0  0  0  0  0  0  0  0  0  0  0
   10.3463   12.1328   24.5576 H   0  0  0  0  0  0  0  0  0  0  0  0
   10.1637    9.8894   25.1000 H   0  0  0  0  0  0  0  0  0  0  0  0
    9.3860   13.6922   21.2784 H   0  0  0  0  0  0  0  0  0  0  0  0
    9.4833   14.4833   22.8679 H   0  0  0  0  0  0  0  0  0  0  0  0
    9.8714   15.3756   21.3809 H   0  0  0  0  0  0  0  0  0  0  0  0
   13.2590   14.6687   22.9218 H   0  0  0  0  0  0  0  0  0  0  0  0
   11.8186   15.0141   23.8626 H   0  0  0  0  0  0  0  0  0  0  0  0
   12.1730   15.9810   22.4137 H   0  0  0  0  0  0  0  0  0  0  0  0
   13.0980   13.5169   20.6907 H   0  0  0  0  0  0  0  0  0  0  0  0
   11.5169   13.0859   20.0039 H   0  0  0  0  0  0  0  0  0  0  0  0
   12.0477   14.7816   20.0761 H   0  0  0  0  0  0  0  0  0  0  0  0
    9.3853    8.6440   22.8007 H   0  0  0  0  0  0  0  0  0  0  0  0
   10.5226    9.7450   22.3999 H   0  0  0  0  0  0  0  0  0  0  0  0
  1  2  2  0  0  0  0
  1  5  1  0  0  0  0
  2  6  1  0  0  0  0
  3  7  1  1  0  0  0
  3 14  2  0  0  0  0
  3 15  1  0  0  0  0
  4  5  1  1  0  0  0
  4  6  1  1  0  0  0
  5  7  1  0  0  0  0
  6  8  1  0  0  0  0
  7  8  1  0  0  0  0
  8 13  1  1  0  0  0
  9 12  1  0  0  0  0
 10 12  1  0  0  0  0
 11 12  1  0  0  0  0
 12 15  1  0  0  0  0
  1 16  1  0  0  0  0
  2 17  1  0  0  0  0
  4 18  1  0  0  0  0
  4 19  1  0  0  0  0
  5 20  1  0  0  0  0
  6 21  1  0  0  0  0
  7 22  1  0  0  0  0
  8 23  1  0  0  0  0
  9 24  1  0  0  0  0
  9 25  1  0  0  0  0
  9 26  1  0  0  0  0
 10 27  1  0  0  0  0
 10 28  1  0  0  0  0
 10 29  1  0  0  0  0
 11 30  1  0  0  0  0
 11 31  1  0  0  0  0
 11 32  1  0  0  0  0
 13 33  1  0  0  0  0
 13 34  1  0  0  0  0
M  END
> <id>
EN300-27728222

> <smiles>
CC(C)(C)OC(=O)[C@@H]1[C@H](N)[C@@H]2C[C@H]1C=C2 |&1:7,8,10,12,r|

> <IUPAC Name>
rac-tert-butyl (1R,2R,3S,4S)-3-aminobicyclo[2.2.1]hept-5-ene-2-carboxylate

> <CAS>
2580096-04-2

> <URL>
https://www.enaminestore.com/catalog/EN300-27728222

> <ROCS_ShapeQuery>
x0812_0A_x1140_0A_x1097_0A_x0365_0A_x1097_0A_x0310_0A

> <ROCS_TanimotoCombo>
0.696 

> <ROCS_ShapeTanimoto>
0.247 

> <ROCS_ColorTanimoto>
0.449 

> <ROCS_RefTversky>
0.221 

> <ROCS_RefColorTversky>
0.530 

> <ROCS_RefTverskyCombo>
0.751 

> <ROCS_FitTversky>
1.920 

> <ROCS_FitColorTversky>
0.745 

> <ROCS_FitTverskyCombo>
2.664 

> <ROCS_ColorScore>
-7.900

> <ROCS_Overlap>
2237.271

> <ROCS_Rank>
420                 

$$$$
untitled-dbase-485194_4
  -OEChem-02092408543D

 38 39  0     1  0  0  0  0  0999 V2000
    6.0627   10.0048   27.1350 C   0  0  0  0  0  0  0  0  0  0  0  0
    6.5406   11.6054   23.7962 C   0  0  0  0  0  0  0  0  0  0  0  0
    9.2177   10.3898   24.9979 C   0  0  0  0  0  0  0  0  0  0  0  0
    8.0164   12.0477   23.6278 C   0  0  1  0  0  0  0  0  0  0  0  0
    8.2916   11.6086   25.0935 C   0  0  1  0  0  0  0  0  0  0  0  0
    6.7580   11.5574   25.3148 C   0  0  2  0  0  0  0  0  0  0  0  0
    9.0876    9.8933   23.5612 C   0  0  1  0  0  0  0  0  0  0  0  0
    8.8952   11.1707   22.7435 C   0  0  2  0  0  0  0  0  0  0  0  0
    4.1887    9.1011   29.0898 C   0  0  0  0  0  0  0  0  0  0  0  0
    5.0344    6.7950   28.5647 C   0  0  0  0  0  0  0  0  0  0  0  0
    6.5984    8.5138   29.5173 C   0  0  0  0  0  0  0  0  0  0  0  0
    5.3870    8.2800   28.6159 C   0  0  0  0  0  0  0  0  0  0  0  0
    6.3572   10.2506   25.8160 N   0  0  0  0  0  0  0  0  0  0  0  0
    6.0946   10.8244   28.0471 O   0  0  0  0  0  0  0  0  0  0  0  0
   10.2358    9.1801   23.1454 O   0  0  0  0  0  0  0  0  0  0  0  0
   10.1341   11.8393   22.5181 O   0  0  0  0  0  0  0  0  0  0  0  0
    5.7227    8.6898   27.2855 O   0  0  0  0  0  0  0  0  0  0  0  0
    5.7953   12.3369   23.4557 H   0  0  0  0  0  0  0  0  0  0  0  0
    6.2928   10.6344   23.3404 H   0  0  0  0  0  0  0  0  0  0  0  0
   10.2548   10.6673   25.2549 H   0  0  0  0  0  0  0  0  0  0  0  0
    8.8987    9.5985   25.6998 H   0  0  0  0  0  0  0  0  0  0  0  0
    8.1391   13.1319   23.4746 H   0  0  0  0  0  0  0  0  0  0  0  0
    8.7720   12.4023   25.6959 H   0  0  0  0  0  0  0  0  0  0  0  0
    6.3466   12.3526   25.8609 H   0  0  0  0  0  0  0  0  0  0  0  0
    8.2146    9.2079   23.4384 H   0  0  0  0  0  0  0  0  0  0  0  0
    8.4249   10.9655   21.7976 H   0  0  0  0  0  0  0  0  0  0  0  0
    4.4377   10.1676   29.1279 H   0  0  0  0  0  0  0  0  0  0  0  0
    3.3237    8.9693   28.4316 H   0  0  0  0  0  0  0  0  0  0  0  0
    3.8964    8.8153   30.1068 H   0  0  0  0  0  0  0  0  0  0  0  0
    5.8913    6.2020   28.2251 H   0  0  0  0  0  0  0  0  0  0  0  0
    4.2272    6.6100   27.8467 H   0  0  0  0  0  0  0  0  0  0  0  0
    4.7199    6.4204   29.5441 H   0  0  0  0  0  0  0  0  0  0  0  0
    7.4581    7.9249   29.1775 H   0  0  0  0  0  0  0  0  0  0  0  0
    6.8887    9.5693   29.5370 H   0  0  0  0  0  0  0  0  0  0  0  0
    6.3887    8.1910   30.5435 H   0  0  0  0  0  0  0  0  0  0  0  0
    6.2923    9.4847   25.1596 H   0  0  0  0  0  0  0  0  0  0  0  0
   10.3256    8.4247   23.7472 H   0  0  0  0  0  0  0  0  0  0  0  0
    9.9273   12.6810   22.0777 H   0  0  0  0  0  0  0  0  0  0  0  0
  1 13  1  0  0  0  0
  1 14  2  0  0  0  0
  1 17  1  0  0  0  0
  2  4  1  1  0  0  0
  2  6  1  0  0  0  0
  3  5  1  1  0  0  0
  3  7  1  0  0  0  0
  4  5  1  0  0  0  0
  4  8  1  0  0  0  0
  5  6  1  0  0  0  0
  6 13  1  1  0  0  0
  7  8  1  0  0  0  0
  7 15  1  6  0  0  0
  8 16  1  6  0  0  0
  9 12  1  0  0  0  0
 10 12  1  0  0  0  0
 11 12  1  0  0  0  0
 12 17  1  0  0  0  0
  2 18  1  0  0  0  0
  2 19  1  0  0  0  0
  3 20  1  0  0  0  0
  3 21  1  0  0  0  0
  4 22  1  0  0  0  0
  5 23  1  0  0  0  0
  6 24  1  0  0  0  0
  7 25  1  0  0  0  0
  8 26  1  0  0  0  0
  9 27  1  0  0  0  0
  9 28  1  0  0  0  0
  9 29  1  0  0  0  0
 10 30  1  0  0  0  0
 10 31  1  0  0  0  0
 10 32  1  0  0  0  0
 11 33  1  0  0  0  0
 11 34  1  0  0  0  0
 11 35  1  0  0  0  0
 13 36  1  0  0  0  0
 15 37  1  0  0  0  0
 16 38  1  0  0  0  0
M  END
> <id>
EN300-28228707

> <smiles>
CC(C)(C)OC(=O)N[C@@H]1C[C@H]2[C@@H]1C[C@H](O)[C@@H]2O |&1:8,10,11,13,15,r|

> <IUPAC Name>
rac-tert-butyl N-[(1R,2S,3R,5R,6S)-2,3-dihydroxybicyclo[3.2.0]heptan-6-yl]carbamate

> <CAS>
2639391-89-0

> <URL>
https://www.enaminestore.com/catalog/EN300-28228707

> <ROCS_ShapeQuery>
x0812_0A_x1140_0A_x1097_0A_x0365_0A_x1097_0A_x0310_0A

> <ROCS_TanimotoCombo>
0.696 

> <ROCS_ShapeTanimoto>
0.207 

> <ROCS_ColorTanimoto>
0.489 

> <ROCS_RefTversky>
0.193 

> <ROCS_RefColorTversky>
0.599 

> <ROCS_RefTverskyCombo>
0.792 

> <ROCS_FitTversky>
1.575 

> <ROCS_FitColorTversky>
0.727 

> <ROCS_FitTverskyCombo>
2.302 

> <ROCS_ColorScore>
-8.982

> <ROCS_Overlap>
1948.172

> <ROCS_Rank>
421                 

$$$$
untitled-dbase-484529_5
  -OEChem-02092408543D

 27 28  0     0  0  0  0  0  0999 V2000
    9.8978   11.9854   22.4176 C   0  0  0  0  0  0  0  0  0  0  0  0
    8.9444   11.9201   24.9329 C   0  0  0  0  0  0  0  0  0  0  0  0
    7.5003   11.4116   23.4906 C   0  0  0  0  0  0  0  0  0  0  0  0
    8.3796    9.5886   24.7919 C   0  0  0  0  0  0  0  0  0  0  0  0
    9.0603   11.3275   23.4922 C   0  0  0  0  0  0  0  0  0  0  0  0
    7.7233   10.9523   24.9635 C   0  0  0  0  0  0  0  0  0  0  0  0
   11.8834   15.0450   22.7093 C   0  0  0  0  0  0  0  0  0  0  0  0
   11.3105   13.8340   22.0043 C   0  0  0  0  0  0  0  0  0  0  0  0
    6.6463   11.0763   25.9977 C   0  0  0  0  0  0  0  0  0  0  0  0
    9.3328    9.8882   23.7144 N   0  0  0  0  0  0  0  0  0  0  0  0
   10.0140   11.5531   21.2788 O   0  0  0  0  0  0  0  0  0  0  0  0
   10.4839   13.1090   22.9205 O   0  0  0  0  0  0  0  0  0  0  0  0
    5.7042   10.1362   25.7629 F   0  0  0  0  0  0  0  0  0  0  0  0
    6.0534   12.2840   25.8692 F   0  0  0  0  0  0  0  0  0  0  0  0
    9.7628   11.7038   25.6280 H   0  0  0  0  0  0  0  0  0  0  0  0
    8.7117   12.9901   24.9934 H   0  0  0  0  0  0  0  0  0  0  0  0
    7.0754   12.4141   23.3590 H   0  0  0  0  0  0  0  0  0  0  0  0
    6.9644   10.7186   22.8331 H   0  0  0  0  0  0  0  0  0  0  0  0
    8.8940    9.2595   25.7014 H   0  0  0  0  0  0  0  0  0  0  0  0
    7.6679    8.8179   24.4789 H   0  0  0  0  0  0  0  0  0  0  0  0
   11.0859   15.7068   23.0584 H   0  0  0  0  0  0  0  0  0  0  0  0
   12.4912   14.7404   23.5676 H   0  0  0  0  0  0  0  0  0  0  0  0
   12.5404   15.6075   22.0376 H   0  0  0  0  0  0  0  0  0  0  0  0
   12.1133   13.1763   21.6577 H   0  0  0  0  0  0  0  0  0  0  0  0
   10.7029   14.1401   21.1476 H   0  0  0  0  0  0  0  0  0  0  0  0
    7.0388   10.9627   27.0052 H   0  0  0  0  0  0  0  0  0  0  0  0
   10.2807    9.6909   24.0342 H   0  0  0  0  0  0  0  0  0  0  0  0
  1  5  1  0  0  0  0
  1 11  2  0  0  0  0
  1 12  1  0  0  0  0
  2  5  1  0  0  0  0
  2  6  1  0  0  0  0
  3  5  1  0  0  0  0
  3  6  1  0  0  0  0
  4  6  1  0  0  0  0
  4 10  1  0  0  0  0
  5 10  1  0  0  0  0
  6  9  1  0  0  0  0
  7  8  1  0  0  0  0
  8 12  1  0  0  0  0
  9 13  1  0  0  0  0
  9 14  1  0  0  0  0
  2 15  1  0  0  0  0
  2 16  1  0  0  0  0
  3 17  1  0  0  0  0
  3 18  1  0  0  0  0
  4 19  1  0  0  0  0
  4 20  1  0  0  0  0
  7 21  1  0  0  0  0
  7 22  1  0  0  0  0
  7 23  1  0  0  0  0
  8 24  1  0  0  0  0
  8 25  1  0  0  0  0
  9 26  1  0  0  0  0
 10 27  1  0  0  0  0
M  END
> <id>
EN300-27783914

> <smiles>
CCOC(=O)C1(CC2(C1)C(F)F)NC2

> <IUPAC Name>
ethyl 4-(difluoromethyl)-2-azabicyclo[2.1.1]hexane-1-carboxylate

> <CAS>
2639434-51-6

> <URL>
https://www.enaminestore.com/catalog/EN300-27783914

> <ROCS_ShapeQuery>
x0812_0A_x1140_0A_x1097_0A_x0365_0A_x1097_0A_x0310_0A

> <ROCS_TanimotoCombo>
0.696 

> <ROCS_ShapeTanimoto>
0.251 

> <ROCS_ColorTanimoto>
0.445 

> <ROCS_RefTversky>
0.223 

> <ROCS_RefColorTversky>
0.517 

> <ROCS_RefTverskyCombo>
0.740 

> <ROCS_FitTversky>
2.013 

> <ROCS_FitColorTversky>
0.761 

> <ROCS_FitTverskyCombo>
2.774 

> <ROCS_ColorScore>
-7.687

> <ROCS_Overlap>
2256.272

> <ROCS_Rank>
422                 

$$$$
untitled-dbase-567050_8
  -OEChem-02092408543D

 35 36  0     0  0  0  0  0  0999 V2000
   10.3378   11.1434   22.2132 C   0  0  0  0  0  0  0  0  0  0  0  0
    5.1242   11.8491   27.6958 C   0  0  0  0  0  0  0  0  0  0  0  0
    8.0019   11.7625   22.8629 C   0  0  0  0  0  0  0  0  0  0  0  0
    9.8172   11.7556   24.5701 C   0  0  0  0  0  0  0  0  0  0  0  0
    6.9448   11.5850   23.9588 C   0  0  0  0  0  0  0  0  0  0  0  0
    8.7865   11.5784   25.6909 C   0  0  0  0  0  0  0  0  0  0  0  0
    8.9703    9.6122   23.6447 C   0  0  0  0  0  0  0  0  0  0  0  0
    9.3032   11.0694   23.2955 C   0  0  0  0  0  0  0  0  0  0  0  0
    7.5552   10.8261   25.1518 C   0  0  0  0  0  0  0  0  0  0  0  0
    4.7388   13.2485   28.0690 C   0  0  0  0  0  0  0  0  0  0  0  0
   12.5541   10.5157   21.6858 C   0  0  0  0  0  0  0  0  0  0  0  0
    6.5209   10.6065   26.2505 C   0  0  0  0  0  0  0  0  0  0  0  0
   10.1600   11.6864   21.1312 O   0  0  0  0  0  0  0  0  0  0  0  0
    4.6545   10.8469   28.2174 O   0  0  0  0  0  0  0  0  0  0  0  0
    7.9862    9.5322   24.6872 O   0  0  0  0  0  0  0  0  0  0  0  0
   11.4771   10.5200   22.6283 O   0  0  0  0  0  0  0  0  0  0  0  0
    6.0653   11.8696   26.7005 O   0  0  0  0  0  0  0  0  0  0  0  0
    7.6330   11.3447   21.9174 H   0  0  0  0  0  0  0  0  0  0  0  0
    8.1717   12.8305   22.6755 H   0  0  0  0  0  0  0  0  0  0  0  0
    9.9992   12.8231   24.3918 H   0  0  0  0  0  0  0  0  0  0  0  0
   10.7815   11.3328   24.8803 H   0  0  0  0  0  0  0  0  0  0  0  0
    6.5588   12.5630   24.2695 H   0  0  0  0  0  0  0  0  0  0  0  0
    6.1018   11.0186   23.5435 H   0  0  0  0  0  0  0  0  0  0  0  0
    9.2497   11.0072   26.5053 H   0  0  0  0  0  0  0  0  0  0  0  0
    8.5038   12.5560   26.0986 H   0  0  0  0  0  0  0  0  0  0  0  0
    8.5808    9.0719   22.7739 H   0  0  0  0  0  0  0  0  0  0  0  0
    9.8596    9.0679   23.9833 H   0  0  0  0  0  0  0  0  0  0  0  0
    5.3903   13.6123   28.8673 H   0  0  0  0  0  0  0  0  0  0  0  0
    3.6924   13.2737   28.3836 H   0  0  0  0  0  0  0  0  0  0  0  0
    4.8559   13.9011   27.1989 H   0  0  0  0  0  0  0  0  0  0  0  0
   13.4131    9.9945   22.1154 H   0  0  0  0  0  0  0  0  0  0  0  0
   12.8257   11.5446   21.4369 H   0  0  0  0  0  0  0  0  0  0  0  0
   12.2316    9.9967   20.7800 H   0  0  0  0  0  0  0  0  0  0  0  0
    6.9719   10.0685   27.0848 H   0  0  0  0  0  0  0  0  0  0  0  0
    5.6769   10.0377   25.8599 H   0  0  0  0  0  0  0  0  0  0  0  0
  1  8  1  0  0  0  0
  1 13  2  0  0  0  0
  1 16  1  0  0  0  0
  2 10  1  0  0  0  0
  2 14  2  0  0  0  0
  2 17  1  0  0  0  0
  3  5  1  0  0  0  0
  3  8  1  0  0  0  0
  4  6  1  0  0  0  0
  4  8  1  0  0  0  0
  5  9  1  0  0  0  0
  6  9  1  0  0  0  0
  7  8  1  0  0  0  0
  7 15  1  0  0  0  0
  9 12  1  0  0  0  0
  9 15  1  0  0  0  0
 11 16  1  0  0  0  0
 12 17  1  0  0  0  0
  3 18  1  0  0  0  0
  3 19  1  0  0  0  0
  4 20  1  0  0  0  0
  4 21  1  0  0  0  0
  5 22  1  0  0  0  0
  5 23  1  0  0  0  0
  6 24  1  0  0  0  0
  6 25  1  0  0  0  0
  7 26  1  0  0  0  0
  7 27  1  0  0  0  0
 10 28  1  0  0  0  0
 10 29  1  0  0  0  0
 10 30  1  0  0  0  0
 11 31  1  0  0  0  0
 11 32  1  0  0  0  0
 11 33  1  0  0  0  0
 12 34  1  0  0  0  0
 12 35  1  0  0  0  0
M  END
> <id>
EN300-39872607

> <smiles>
COC(=O)C1(CCC2(COC(=O)C)CC1)CO2

> <IUPAC Name>
methyl 1-[(acetyloxy)methyl]-2-oxabicyclo[2.2.2]octane-4-carboxylate

> <Purity>
91

> <URL>
https://www.enaminestore.com/catalog/EN300-39872607

> <ROCS_ShapeQuery>
x0812_0A_x1140_0A_x1097_0A_x0365_0A_x1097_0A_x0310_0A

> <ROCS_TanimotoCombo>
0.696 

> <ROCS_ShapeTanimoto>
0.238 

> <ROCS_ColorTanimoto>
0.458 

> <ROCS_RefTversky>
0.216 

> <ROCS_RefColorTversky>
0.513 

> <ROCS_RefTverskyCombo>
0.728 

> <ROCS_FitTversky>
1.749 

> <ROCS_FitColorTversky>
0.813 

> <ROCS_FitTverskyCombo>
2.562 

> <ROCS_ColorScore>
-7.602

> <ROCS_Overlap>
2182.444

> <ROCS_Rank>
423                 

$$$$
untitled-dbase-116854_2
  -OEChem-02092408543D

 28 29  0     0  0  0  0  0  0999 V2000
   10.1900   11.7809   22.5450 C   0  0  0  0  0  0  0  0  0  0  0  0
    7.6694   11.7515   23.4660 C   0  0  0  0  0  0  0  0  0  0  0  0
    9.0808   11.8285   24.9883 C   0  0  0  0  0  0  0  0  0  0  0  0
    9.1626   11.2283   23.5254 C   0  0  0  0  0  0  0  0  0  0  0  0
    7.6988   11.0763   24.8903 C   0  0  0  0  0  0  0  0  0  0  0  0
    9.0395    9.6886   23.7175 C   0  0  0  0  0  0  0  0  0  0  0  0
    6.6088   11.3254   25.8882 C   0  0  0  0  0  0  0  0  0  0  0  0
    8.5991    8.9605   22.4514 C   0  0  0  0  0  0  0  0  0  0  0  0
   10.3030    9.0534   24.2898 C   0  0  0  0  0  0  0  0  0  0  0  0
   11.3755   12.4763   23.1698 C   0  0  0  0  0  0  0  0  0  0  0  0
   10.0260   11.6491   21.3334 O   0  0  0  0  0  0  0  0  0  0  0  0
    7.9843    9.6583   24.6972 O   0  0  0  0  0  0  0  0  0  0  0  0
   11.0231   14.3729   23.3478 Br  0  0  0  0  0  0  0  0  0  0  0  0
    7.5259   12.8383   23.4308 H   0  0  0  0  0  0  0  0  0  0  0  0
    6.9999   11.2931   22.7351 H   0  0  0  0  0  0  0  0  0  0  0  0
    9.7801   11.4441   25.7340 H   0  0  0  0  0  0  0  0  0  0  0  0
    9.0504   12.9213   25.0749 H   0  0  0  0  0  0  0  0  0  0  0  0
    6.7915   10.7763   26.8222 H   0  0  0  0  0  0  0  0  0  0  0  0
    5.6324   11.0053   25.4989 H   0  0  0  0  0  0  0  0  0  0  0  0
    6.5346   12.3929   26.1380 H   0  0  0  0  0  0  0  0  0  0  0  0
    8.5301    7.8905   22.6437 H   0  0  0  0  0  0  0  0  0  0  0  0
    9.3216    9.1323   21.6544 H   0  0  0  0  0  0  0  0  0  0  0  0
    7.6242    9.3277   22.1324 H   0  0  0  0  0  0  0  0  0  0  0  0
   10.1598    7.9793   24.4022 H   0  0  0  0  0  0  0  0  0  0  0  0
   10.5267    9.4859   25.2642 H   0  0  0  0  0  0  0  0  0  0  0  0
   11.1436    9.2317   23.6202 H   0  0  0  0  0  0  0  0  0  0  0  0
   12.2572   12.3682   22.5350 H   0  0  0  0  0  0  0  0  0  0  0  0
   11.5595   12.0854   24.1724 H   0  0  0  0  0  0  0  0  0  0  0  0
  1  4  1  1  0  0  0
  1 10  1  0  0  0  0
  1 11  2  0  0  0  0
  2  4  1  0  0  0  0
  2  5  1  0  0  0  0
  3  4  1  0  0  0  0
  3  5  1  0  0  0  0
  4  6  1  0  0  0  0
  5  7  1  1  0  0  0
  5 12  1  0  0  0  0
  6  8  1  0  0  0  0
  6  9  1  0  0  0  0
  6 12  1  0  0  0  0
 10 13  1  0  0  0  0
  2 14  1  0  0  0  0
  2 15  1  0  0  0  0
  3 16  1  0  0  0  0
  3 17  1  0  0  0  0
  7 18  1  0  0  0  0
  7 19  1  0  0  0  0
  7 20  1  0  0  0  0
  8 21  1  0  0  0  0
  8 22  1  0  0  0  0
  8 23  1  0  0  0  0
  9 24  1  0  0  0  0
  9 25  1  0  0  0  0
  9 26  1  0  0  0  0
 10 27  1  0  0  0  0
 10 28  1  0  0  0  0
M  END
> <id>
EN300-37408176

> <smiles>
C[C@]1(C[C@]2(C1)C(=O)CBr)OC2(C)C

> <IUPAC Name>
2-bromo-1-{1,3,3-trimethyl-2-oxabicyclo[2.1.1]hexan-4-yl}ethan-1-one

> <CAS>
2573214-08-9

> <URL>
https://www.enaminestore.com/catalog/EN300-37408176

> <ROCS_ShapeQuery>
x0812_0A_x1140_0A_x1097_0A_x0365_0A_x1097_0A_x0310_0A

> <ROCS_TanimotoCombo>
0.696 

> <ROCS_ShapeTanimoto>
0.237 

> <ROCS_ColorTanimoto>
0.459 

> <ROCS_RefTversky>
0.212 

> <ROCS_RefColorTversky>
0.546 

> <ROCS_RefTverskyCombo>
0.758 

> <ROCS_FitTversky>
2.021 

> <ROCS_FitColorTversky>
0.742 

> <ROCS_FitTverskyCombo>
2.763 

> <ROCS_ColorScore>
-8.145

> <ROCS_Overlap>
2139.573

> <ROCS_Rank>
424                 

$$$$
untitled-dbase-367722_0
  -OEChem-02092408543D

 38 40  0     1  0  0  0  0  0999 V2000
   11.2881   12.7366   22.2577 C   0  0  0  0  0  0  0  0  0  0  0  0
    7.1620    9.8486   24.1648 C   0  0  0  0  0  0  0  0  0  0  0  0
    7.9999    9.8748   25.4438 C   0  0  0  0  0  0  0  0  0  0  0  0
   12.4277   10.4696   22.5636 C   0  0  0  0  0  0  0  0  0  0  0  0
   11.6255   10.3919   21.3005 C   0  0  0  0  0  0  0  0  0  0  0  0
    8.6172   11.2204   22.5633 C   0  0  0  0  0  0  0  0  0  0  0  0
   10.0241   11.2615   24.7036 C   0  0  0  0  0  0  0  0  0  0  0  0
    7.4029   11.2160   23.5189 C   0  0  2  0  0  0  0  0  0  0  0  0
    8.6651   11.2541   25.4398 C   0  0  1  0  0  0  0  0  0  0  0  0
   11.1485   11.2711   22.4380 C   0  0  0  0  0  0  0  0  0  0  0  0
    9.9383   10.7798   23.2370 C   0  0  0  0  0  0  0  0  0  0  0  0
    6.5943   12.5537   25.3990 C   0  0  0  0  0  0  0  0  0  0  0  0
   10.7756   14.5052   20.7768 C   0  0  0  0  0  0  0  0  0  0  0  0
    7.7590   12.1004   24.6429 N   0  0  0  0  0  0  0  0  0  0  0  0
   11.8397   13.4763   23.0613 O   0  0  0  0  0  0  0  0  0  0  0  0
   10.0066    9.3489   23.2403 O   0  0  0  0  0  0  0  0  0  0  0  0
   10.7130   13.1076   21.0785 O   0  0  0  0  0  0  0  0  0  0  0  0
    7.4276    9.0127   23.5106 H   0  0  0  0  0  0  0  0  0  0  0  0
    6.1039    9.7294   24.4277 H   0  0  0  0  0  0  0  0  0  0  0  0
    7.3391    9.7691   26.3127 H   0  0  0  0  0  0  0  0  0  0  0  0
    8.7212    9.0529   25.4845 H   0  0  0  0  0  0  0  0  0  0  0  0
   12.4353    9.5999   23.2099 H   0  0  0  0  0  0  0  0  0  0  0  0
   13.3754   10.9944   22.5263 H   0  0  0  0  0  0  0  0  0  0  0  0
   12.0353   10.8640   20.4150 H   0  0  0  0  0  0  0  0  0  0  0  0
   11.0926    9.4704   21.0976 H   0  0  0  0  0  0  0  0  0  0  0  0
    8.3993   10.5680   21.7077 H   0  0  0  0  0  0  0  0  0  0  0  0
    8.7275   12.2378   22.1628 H   0  0  0  0  0  0  0  0  0  0  0  0
   10.4169   12.2874   24.7317 H   0  0  0  0  0  0  0  0  0  0  0  0
   10.7345   10.6400   25.2638 H   0  0  0  0  0  0  0  0  0  0  0  0
    6.5222   11.5655   22.9678 H   0  0  0  0  0  0  0  0  0  0  0  0
    8.8153   11.6354   26.4564 H   0  0  0  0  0  0  0  0  0  0  0  0
    6.9218   13.2072   26.2210 H   0  0  0  0  0  0  0  0  0  0  0  0
    5.9197   13.1120   24.7333 H   0  0  0  0  0  0  0  0  0  0  0  0
    6.0639   11.6830   25.8121 H   0  0  0  0  0  0  0  0  0  0  0  0
   10.2891   14.6936   19.8166 H   0  0  0  0  0  0  0  0  0  0  0  0
   11.8203   14.8237   20.7367 H   0  0  0  0  0  0  0  0  0  0  0  0
   10.2569   15.0617   21.5609 H   0  0  0  0  0  0  0  0  0  0  0  0
   10.8439    9.1203   23.6685 H   0  0  0  0  0  0  0  0  0  0  0  0
  1 10  1  0  0  0  0
  1 15  2  0  0  0  0
  1 17  1  0  0  0  0
  2  3  1  0  0  0  0
  2  8  1  0  0  0  0
  3  9  1  0  0  0  0
  4  5  1  0  0  0  0
  4 10  1  0  0  0  0
  5 10  1  0  0  0  0
  6  8  1  0  0  0  0
  6 11  1  0  0  0  0
  7  9  1  0  0  0  0
  7 11  1  0  0  0  0
  8 14  1  0  0  0  0
  9 14  1  0  0  0  0
 10 11  1  0  0  0  0
 11 16  1  0  0  0  0
 12 14  1  0  0  0  0
 13 17  1  0  0  0  0
  2 18  1  0  0  0  0
  2 19  1  0  0  0  0
  3 20  1  0  0  0  0
  3 21  1  0  0  0  0
  4 22  1  0  0  0  0
  4 23  1  0  0  0  0
  5 24  1  0  0  0  0
  5 25  1  0  0  0  0
  6 26  1  0  0  0  0
  6 27  1  0  0  0  0
  7 28  1  0  0  0  0
  7 29  1  0  0  0  0
  8 30  1  0  0  0  0
  9 31  1  0  0  0  0
 12 32  1  0  0  0  0
 12 33  1  0  0  0  0
 12 34  1  0  0  0  0
 13 35  1  0  0  0  0
 13 36  1  0  0  0  0
 13 37  1  0  0  0  0
 16 38  1  0  0  0  0
M  END
> <id>
EN300-1633076

> <smiles>
COC(=O)C1(CC1)C2(O)CC3CCC(C2)N3C

> <IUPAC Name>
methyl 1-{3-hydroxy-8-methyl-8-azabicyclo[3.2.1]octan-3-yl}cyclopropane-1-carboxylate

> <CAS>
2171893-36-8

> <URL>
https://www.enaminestore.com/catalog/EN300-1633076

> <ROCS_ShapeQuery>
x0812_0A_x1140_0A_x1097_0A_x0365_0A_x1097_0A_x0310_0A

> <ROCS_TanimotoCombo>
0.696 

> <ROCS_ShapeTanimoto>
0.246 

> <ROCS_ColorTanimoto>
0.450 

> <ROCS_RefTversky>
0.222 

> <ROCS_RefColorTversky>
0.520 

> <ROCS_RefTverskyCombo>
0.742 

> <ROCS_FitTversky>
1.788 

> <ROCS_FitColorTversky>
0.769 

> <ROCS_FitTverskyCombo>
2.557 

> <ROCS_ColorScore>
-7.738

> <ROCS_Overlap>
2242.625

> <ROCS_Rank>
425                 

$$$$
untitled-dbase-97033_7
  -OEChem-02092408543D

 25 27  0     1  0  0  0  0  0999 V2000
   10.1372   14.3502   20.7578 C   0  0  0  0  0  0  0  0  0  0  0  0
    9.4046   13.1951   21.1568 C   0  0  0  0  0  0  0  0  0  0  0  0
   10.8699   14.8824   21.7959 C   0  0  0  0  0  0  0  0  0  0  0  0
    9.6055   12.8883   22.4847 C   0  0  0  0  0  0  0  0  0  0  0  0
   11.7236   16.0258   21.7949 C   0  0  0  0  0  0  0  0  0  0  0  0
    7.8941   11.7460   25.1622 C   0  0  0  0  0  0  0  0  0  0  0  0
    7.7411   11.3074   22.8261 C   0  0  0  0  0  0  0  0  0  0  0  0
    9.5018   10.1108   24.7405 C   0  0  0  0  0  0  0  0  0  0  0  0
    9.3021   11.6183   24.5882 C   0  0  1  0  0  0  0  0  0  0  0  0
    7.3433   10.7170   24.1917 C   0  0  1  0  0  0  0  0  0  0  0  0
    9.0593   11.8631   23.1588 N   0  0  2  0  0  0  0  0  0  0  0  0
   12.3506   16.4336   22.7956 O   0  0  0  0  0  0  0  0  0  0  0  0
    8.1933    9.5633   24.4219 O   0  0  0  0  0  0  0  0  0  0  0  0
   10.6732   13.9906   23.2444 S   0  0  0  0  0  0  0  0  0  0  0  0
   10.1232   14.7642   19.7574 H   0  0  0  0  0  0  0  0  0  0  0  0
    8.7656   12.6214   20.4971 H   0  0  0  0  0  0  0  0  0  0  0  0
   11.8475   16.6050   20.8389 H   0  0  0  0  0  0  0  0  0  0  0  0
    7.8394   11.4243   26.2075 H   0  0  0  0  0  0  0  0  0  0  0  0
    7.4578   12.7433   25.0484 H   0  0  0  0  0  0  0  0  0  0  0  0
    7.8094   10.5321   22.0554 H   0  0  0  0  0  0  0  0  0  0  0  0
    7.0618   12.1063   22.5127 H   0  0  0  0  0  0  0  0  0  0  0  0
   10.2542    9.6837   24.0709 H   0  0  0  0  0  0  0  0  0  0  0  0
    9.7393    9.8311   25.7721 H   0  0  0  0  0  0  0  0  0  0  0  0
   10.0698   12.2532   25.0355 H   0  0  0  0  0  0  0  0  0  0  0  0
    6.2875   10.4608   24.2942 H   0  0  0  0  0  0  0  0  0  0  0  0
  1  2  1  0  0  0  0
  1  3  2  0  0  0  0
  2  4  2  0  0  0  0
  3  5  1  0  0  0  0
  3 14  1  0  0  0  0
  4 11  1  0  0  0  0
  4 14  1  0  0  0  0
  5 12  2  0  0  0  0
  6  9  1  1  0  0  0
  6 10  1  1  0  0  0
  7 10  1  0  0  0  0
  7 11  1  0  0  0  0
  8  9  1  0  0  0  0
  8 13  1  0  0  0  0
  9 11  1  0  0  0  0
 10 13  1  0  0  0  0
  1 15  1  0  0  0  0
  2 16  1  0  0  0  0
  5 17  1  0  0  0  0
  6 18  1  0  0  0  0
  6 19  1  0  0  0  0
  7 20  1  0  0  0  0
  7 21  1  0  0  0  0
  8 22  1  0  0  0  0
  8 23  1  0  0  0  0
  9 24  1  0  0  0  0
 10 25  1  0  0  0  0
M  END
> <id>
EN300-726280

> <smiles>
O=CC1=CC=C(S1)N2C[C@@H]3C[C@H]2CO3 |&1:9,11,r|

> <IUPAC Name>
rac-5-[(1R,4R)-2-oxa-5-azabicyclo[2.2.1]heptan-5-yl]thiophene-2-carbaldehyde

> <CAS>
2137816-07-8

> <URL>
https://www.enaminestore.com/catalog/EN300-726280

> <ROCS_ShapeQuery>
x0812_0A_x1140_0A_x1097_0A_x0365_0A_x1097_0A_x0310_0A

> <ROCS_TanimotoCombo>
0.696 

> <ROCS_ShapeTanimoto>
0.195 

> <ROCS_ColorTanimoto>
0.500 

> <ROCS_RefTversky>
0.182 

> <ROCS_RefColorTversky>
0.552 

> <ROCS_RefTverskyCombo>
0.733 

> <ROCS_FitTversky>
1.625 

> <ROCS_FitColorTversky>
0.843 

> <ROCS_FitTverskyCombo>
2.468 

> <ROCS_ColorScore>
-8.194

> <ROCS_Overlap>
1837.342

> <ROCS_Rank>
426                 

$$$$
untitled-dbase-293762_0
  -OEChem-02092408543D

 24 26  0     0  0  0  0  0  0999 V2000
    9.2353   10.7653   25.3405 C   0  0  0  0  0  0  0  0  0  0  0  0
    7.6381    9.8225   24.3668 C   0  0  0  0  0  0  0  0  0  0  0  0
    8.4824   11.2747   21.6046 C   0  0  0  0  0  0  0  0  0  0  0  0
   10.0588   12.2053   22.5651 C   0  0  0  0  0  0  0  0  0  0  0  0
    9.0753   10.2152   23.8825 C   0  0  0  0  0  0  0  0  0  0  0  0
    8.8073   11.5052   23.0727 C   0  0  0  0  0  0  0  0  0  0  0  0
    7.7766   11.2809   24.9807 C   0  0  0  0  0  0  0  0  0  0  0  0
    6.8460   11.7311   26.0694 C   0  0  0  0  0  0  0  0  0  0  0  0
    9.9459    9.1635   23.4741 N   0  0  0  0  0  0  0  0  0  0  0  0
    9.7462   11.8528   21.1950 O   0  0  0  0  0  0  0  0  0  0  0  0
    7.8691   12.2558   23.8852 O   0  0  0  0  0  0  0  0  0  0  0  0
    9.3097   10.0289   26.1492 H   0  0  0  0  0  0  0  0  0  0  0  0
    9.9930   11.5405   25.4905 H   0  0  0  0  0  0  0  0  0  0  0  0
    6.8764    9.7007   23.5910 H   0  0  0  0  0  0  0  0  0  0  0  0
    7.5576    8.9954   25.0816 H   0  0  0  0  0  0  0  0  0  0  0  0
    8.3878   10.2378   21.2705 H   0  0  0  0  0  0  0  0  0  0  0  0
    7.6390   11.8545   21.2164 H   0  0  0  0  0  0  0  0  0  0  0  0
   10.0734   13.2915   22.6989 H   0  0  0  0  0  0  0  0  0  0  0  0
   11.0225   11.7934   22.8771 H   0  0  0  0  0  0  0  0  0  0  0  0
    5.8821   12.0557   25.6561 H   0  0  0  0  0  0  0  0  0  0  0  0
    7.2717   12.5738   26.6296 H   0  0  0  0  0  0  0  0  0  0  0  0
    6.6495   10.9193   26.7819 H   0  0  0  0  0  0  0  0  0  0  0  0
    9.4122    8.3526   23.2172 H   0  0  0  0  0  0  0  0  0  0  0  0
   10.4925    9.4548   22.6838 H   0  0  0  0  0  0  0  0  0  0  0  0
  1  5  1  0  0  0  0
  1  7  1  0  0  0  0
  2  5  1  0  0  0  0
  2  7  1  0  0  0  0
  3  6  1  0  0  0  0
  3 10  1  0  0  0  0
  4  6  1  0  0  0  0
  4 10  1  0  0  0  0
  5  6  1  0  0  0  0
  5  9  1  0  0  0  0
  6 11  1  0  0  0  0
  7  8  1  0  0  0  0
  7 11  1  0  0  0  0
  1 12  1  0  0  0  0
  1 13  1  0  0  0  0
  2 14  1  0  0  0  0
  2 15  1  0  0  0  0
  3 16  1  0  0  0  0
  3 17  1  0  0  0  0
  4 18  1  0  0  0  0
  4 19  1  0  0  0  0
  8 20  1  0  0  0  0
  8 21  1  0  0  0  0
  8 22  1  0  0  0  0
  9 23  1  0  0  0  0
  9 24  1  0  0  0  0
M  END
> <id>
EN300-6499606

> <smiles>
CC1(CC2(N)C1)OC32COC3

> <MDLNUMBER>
MFCD31719316

> <IUPAC Name>
4-methyl-3-oxaspiro[bicyclo[2.1.1]hexane-2,3'-oxetane]-1-amine

> <CAS>
2490430-09-4

> <Purity>
95

> <URL>
https://www.enaminestore.com/catalog/EN300-6499606

> <ROCS_ShapeQuery>
x0812_0A_x1140_0A_x1097_0A_x0365_0A_x1097_0A_x0310_0A

> <ROCS_TanimotoCombo>
0.696 

> <ROCS_ShapeTanimoto>
0.210 

> <ROCS_ColorTanimoto>
0.485 

> <ROCS_RefTversky>
0.191 

> <ROCS_RefColorTversky>
0.588 

> <ROCS_RefTverskyCombo>
0.779 

> <ROCS_FitTversky>
1.917 

> <ROCS_FitColorTversky>
0.736 

> <ROCS_FitTverskyCombo>
2.653 

> <ROCS_ColorScore>
-8.798

> <ROCS_Overlap>
1930.326

> <ROCS_Rank>
427                 

$$$$
untitled-dbase-498026_7
  -OEChem-02092408543D

 38 40  0     0  0  0  0  0  0999 V2000
   14.6998   14.2244   22.0200 C   0  0  0  0  0  0  0  0  0  0  0  0
   13.8683   15.3053   22.3128 C   0  0  0  0  0  0  0  0  0  0  0  0
   14.1730   13.0829   21.4155 C   0  0  0  0  0  0  0  0  0  0  0  0
   12.5100   15.2447   22.0014 C   0  0  0  0  0  0  0  0  0  0  0  0
   12.8147   13.0224   21.1041 C   0  0  0  0  0  0  0  0  0  0  0  0
   11.9832   14.1033   21.3970 C   0  0  0  0  0  0  0  0  0  0  0  0
    9.6682   12.1265   22.1890 C   0  0  0  0  0  0  0  0  0  0  0  0
    8.8966   10.2968   25.2678 C   0  0  0  0  0  0  0  0  0  0  0  0
    7.0941   10.4764   24.2073 C   0  0  0  0  0  0  0  0  0  0  0  0
    8.4326   12.5637   24.3632 C   0  0  0  0  0  0  0  0  0  0  0  0
    7.8159   11.4428   25.2214 C   0  0  0  0  0  0  0  0  0  0  0  0
    8.5882   10.3228   23.7191 C   0  0  0  0  0  0  0  0  0  0  0  0
    7.1188   11.8772   26.4785 C   0  0  0  0  0  0  0  0  0  0  0  0
   10.5220   14.0374   21.0620 C   0  0  0  0  0  0  0  0  0  0  0  0
    8.9944    9.1836   22.8356 C   0  0  0  0  0  0  0  0  0  0  0  0
    8.9706   11.7022   23.3027 N   0  0  0  0  0  0  0  0  0  0  0  0
   10.1115   11.3919   21.3110 O   0  0  0  0  0  0  0  0  0  0  0  0
   10.4098    9.0249   22.8799 O   0  0  0  0  0  0  0  0  0  0  0  0
    9.8109   13.4893   22.1776 O   0  0  0  0  0  0  0  0  0  0  0  0
   15.7577   14.2722   22.2613 H   0  0  0  0  0  0  0  0  0  0  0  0
   14.2785   16.1946   22.7825 H   0  0  0  0  0  0  0  0  0  0  0  0
   14.8203   12.2416   21.1864 H   0  0  0  0  0  0  0  0  0  0  0  0
   11.8696   16.0917   22.2335 H   0  0  0  0  0  0  0  0  0  0  0  0
   12.4131   12.1289   20.6334 H   0  0  0  0  0  0  0  0  0  0  0  0
    9.9066   10.5929   25.5674 H   0  0  0  0  0  0  0  0  0  0  0  0
    8.6192    9.3830   25.8061 H   0  0  0  0  0  0  0  0  0  0  0  0
    6.6245    9.5819   24.6323 H   0  0  0  0  0  0  0  0  0  0  0  0
    6.3980   10.9428   23.5029 H   0  0  0  0  0  0  0  0  0  0  0  0
    7.6944   13.2548   23.9463 H   0  0  0  0  0  0  0  0  0  0  0  0
    9.2466   13.1001   24.8593 H   0  0  0  0  0  0  0  0  0  0  0  0
    6.3998   12.6809   26.2736 H   0  0  0  0  0  0  0  0  0  0  0  0
    7.8375   12.2504   27.2196 H   0  0  0  0  0  0  0  0  0  0  0  0
    6.5694   11.0429   26.9337 H   0  0  0  0  0  0  0  0  0  0  0  0
   10.1256   15.0341   20.8405 H   0  0  0  0  0  0  0  0  0  0  0  0
   10.3539   13.4055   20.1832 H   0  0  0  0  0  0  0  0  0  0  0  0
    8.7036    9.3648   21.7905 H   0  0  0  0  0  0  0  0  0  0  0  0
    8.5345    8.2397   23.1631 H   0  0  0  0  0  0  0  0  0  0  0  0
   10.6229    8.2804   22.2961 H   0  0  0  0  0  0  0  0  0  0  0  0
  1  2  1  0  0  0  0
  1  3  2  0  0  0  0
  2  4  2  0  0  0  0
  3  5  1  0  0  0  0
  4  6  1  0  0  0  0
  5  6  2  0  0  0  0
  6 14  1  0  0  0  0
  7 16  1  0  0  0  0
  7 17  2  0  0  0  0
  7 19  1  0  0  0  0
  8 11  1  0  0  0  0
  8 12  1  0  0  0  0
  9 11  1  0  0  0  0
  9 12  1  0  0  0  0
 10 11  1  0  0  0  0
 10 16  1  0  0  0  0
 11 13  1  0  0  0  0
 12 15  1  0  0  0  0
 12 16  1  0  0  0  0
 14 19  1  0  0  0  0
 15 18  1  0  0  0  0
  1 20  1  0  0  0  0
  2 21  1  0  0  0  0
  3 22  1  0  0  0  0
  4 23  1  0  0  0  0
  5 24  1  0  0  0  0
  8 25  1  0  0  0  0
  8 26  1  0  0  0  0
  9 27  1  0  0  0  0
  9 28  1  0  0  0  0
 10 29  1  0  0  0  0
 10 30  1  0  0  0  0
 13 31  1  0  0  0  0
 13 32  1  0  0  0  0
 13 33  1  0  0  0  0
 14 34  1  0  0  0  0
 14 35  1  0  0  0  0
 15 36  1  0  0  0  0
 15 37  1  0  0  0  0
 18 38  1  0  0  0  0
M  END
> <id>
EN300-28281028

> <smiles>
CC1(CC2(CO)C1)CN2C(=O)OCC=3C=CC=CC3

> <IUPAC Name>
benzyl 1-(hydroxymethyl)-4-methyl-2-azabicyclo[2.1.1]hexane-2-carboxylate

> <CAS>
2680790-74-1

> <URL>
https://www.enaminestore.com/catalog/EN300-28281028

> <ROCS_ShapeQuery>
x0812_0A_x1140_0A_x1097_0A_x0365_0A_x1097_0A_x0310_0A

> <ROCS_TanimotoCombo>
0.696 

> <ROCS_ShapeTanimoto>
0.241 

> <ROCS_ColorTanimoto>
0.454 

> <ROCS_RefTversky>
0.220 

> <ROCS_RefColorTversky>
0.543 

> <ROCS_RefTverskyCombo>
0.763 

> <ROCS_FitTversky>
1.661 

> <ROCS_FitColorTversky>
0.737 

> <ROCS_FitTverskyCombo>
2.398 

> <ROCS_ColorScore>
-8.096

> <ROCS_Overlap>
2227.353

> <ROCS_Rank>
428                 

$$$$
untitled-dbase-290109_7
  -OEChem-02092408543D

 30 31  0     1  0  0  0  0  0999 V2000
   10.3401   11.3384   22.4982 C   0  0  0  0  0  0  0  0  0  0  0  0
    7.8049   12.4633   24.7374 C   0  0  0  0  0  0  0  0  0  0  0  0
    7.5673   12.0386   23.2819 C   0  0  0  0  0  0  0  0  0  0  0  0
    7.5154   10.1023   24.6358 C   0  0  0  0  0  0  0  0  0  0  0  0
    9.7531   10.8972   24.9249 C   0  0  0  0  0  0  0  0  0  0  0  0
    8.3075   11.1679   25.3943 C   0  0  1  0  0  0  0  0  0  0  0  0
    8.0313   10.5657   23.2667 C   0  0  2  0  0  0  0  0  0  0  0  0
    9.5689   10.4712   23.4496 C   0  0  1  0  0  0  0  0  0  0  0  0
   11.4979   13.8655   21.8852 C   0  0  0  0  0  0  0  0  0  0  0  0
   12.2951   12.6532   22.3172 C   0  0  0  0  0  0  0  0  0  0  0  0
   10.0756    9.1178   23.2287 N   0  0  0  0  0  0  0  0  0  0  0  0
    9.9925   11.5718   21.3485 O   0  0  0  0  0  0  0  0  0  0  0  0
   11.4615   11.8074   23.1158 O   0  0  0  0  0  0  0  0  0  0  0  0
    8.5277   13.2816   24.8155 H   0  0  0  0  0  0  0  0  0  0  0  0
    6.8642   12.7940   25.1913 H   0  0  0  0  0  0  0  0  0  0  0  0
    6.4983   12.1027   23.0456 H   0  0  0  0  0  0  0  0  0  0  0  0
    8.0997   12.6772   22.5721 H   0  0  0  0  0  0  0  0  0  0  0  0
    7.8016    9.0799   24.8995 H   0  0  0  0  0  0  0  0  0  0  0  0
    6.4309   10.2114   24.7476 H   0  0  0  0  0  0  0  0  0  0  0  0
   10.3949   11.7765   25.0490 H   0  0  0  0  0  0  0  0  0  0  0  0
   10.1843   10.0890   25.5293 H   0  0  0  0  0  0  0  0  0  0  0  0
    8.1941   11.1561   26.4801 H   0  0  0  0  0  0  0  0  0  0  0  0
    7.6417   10.0078   22.4112 H   0  0  0  0  0  0  0  0  0  0  0  0
   10.6293   13.5695   21.2904 H   0  0  0  0  0  0  0  0  0  0  0  0
   11.1533   14.4315   22.7569 H   0  0  0  0  0  0  0  0  0  0  0  0
   12.1188   14.5437   21.2905 H   0  0  0  0  0  0  0  0  0  0  0  0
   13.1623   12.9561   22.9116 H   0  0  0  0  0  0  0  0  0  0  0  0
   12.6379   12.0884   21.4452 H   0  0  0  0  0  0  0  0  0  0  0  0
   10.4573    8.7875   24.0827 H   0  0  0  0  0  0  0  0  0  0  0  0
    9.3172    8.5480   22.9385 H   0  0  0  0  0  0  0  0  0  0  0  0
  1  8  1  6  0  0  0
  1 12  2  0  0  0  0
  1 13  1  0  0  0  0
  2  3  1  0  0  0  0
  2  6  1  0  0  0  0
  3  7  1  0  0  0  0
  4  6  1  1  0  0  0
  4  7  1  1  0  0  0
  5  6  1  0  0  0  0
  5  8  1  0  0  0  0
  7  8  1  0  0  0  0
  8 11  1  1  0  0  0
  9 10  1  0  0  0  0
 10 13  1  0  0  0  0
  2 14  1  0  0  0  0
  2 15  1  0  0  0  0
  3 16  1  0  0  0  0
  3 17  1  0  0  0  0
  4 18  1  0  0  0  0
  4 19  1  0  0  0  0
  5 20  1  0  0  0  0
  5 21  1  0  0  0  0
  6 22  1  0  0  0  0
  7 23  1  0  0  0  0
  9 24  1  0  0  0  0
  9 25  1  0  0  0  0
  9 26  1  0  0  0  0
 10 27  1  0  0  0  0
 10 28  1  0  0  0  0
 11 29  1  0  0  0  0
 11 30  1  0  0  0  0
M  END
> <id>
EN300-6507960

> <smiles>
CCOC(=O)[C@@]1(N)C[C@H]2CC[C@@H]1C2 |&1:5,8,11,r|

> <IUPAC Name>
rac-ethyl (1R,2R,4S)-2-aminobicyclo[2.2.1]heptane-2-carboxylate

> <CAS>
734478-82-1

> <URL>
https://www.enaminestore.com/catalog/EN300-6507960

> <ROCS_ShapeQuery>
x0812_0A_x1140_0A_x1097_0A_x0365_0A_x1097_0A_x0310_0A

> <ROCS_TanimotoCombo>
0.695 

> <ROCS_ShapeTanimoto>
0.222 

> <ROCS_ColorTanimoto>
0.473 

> <ROCS_RefTversky>
0.201 

> <ROCS_RefColorTversky>
0.529 

> <ROCS_RefTverskyCombo>
0.730 

> <ROCS_FitTversky>
1.894 

> <ROCS_FitColorTversky>
0.818 

> <ROCS_FitTverskyCombo>
2.712 

> <ROCS_ColorScore>
-7.846

> <ROCS_Overlap>
2035.575

> <ROCS_Rank>
429                 

$$$$
untitled-dbase-498135_3
  -OEChem-02092408543D

 27 28  0     1  0  0  0  0  0999 V2000
    9.7632   12.1693   22.4400 C   0  0  0  0  0  0  0  0  0  0  0  0
    8.5511   10.9214   27.1183 C   0  0  0  0  0  0  0  0  0  0  0  0
    7.7960   10.1015   23.2079 C   0  0  0  0  0  0  0  0  0  0  0  0
    7.1861   11.5940   25.1321 C   0  0  0  0  0  0  0  0  0  0  0  0
    9.0140   12.1055   23.7335 C   0  0  1  0  0  0  0  0  0  0  0  0
    7.5792   11.5731   23.6404 C   0  0  1  0  0  0  0  0  0  0  0  0
    9.4487   11.0056   24.7111 C   0  0  2  0  0  0  0  0  0  0  0  0
    9.0743    9.7012   23.9759 C   0  0  2  0  0  0  0  0  0  0  0  0
    7.2903   11.1010   27.9225 C   0  0  0  0  0  0  0  0  0  0  0  0
    8.4349   11.1726   25.7687 N   0  0  0  0  0  0  0  0  0  0  0  0
    9.9131   11.2331   21.6689 O   0  0  0  0  0  0  0  0  0  0  0  0
    9.5969   10.5664   27.6640 O   0  0  0  0  0  0  0  0  0  0  0  0
   10.2606   13.4135   22.2356 O   0  0  0  0  0  0  0  0  0  0  0  0
   10.1102    9.3136   23.0879 O   0  0  0  0  0  0  0  0  0  0  0  0
    6.9439    9.4758   23.4938 H   0  0  0  0  0  0  0  0  0  0  0  0
    7.9328   10.0218   22.1236 H   0  0  0  0  0  0  0  0  0  0  0  0
    6.9414   12.6010   25.4860 H   0  0  0  0  0  0  0  0  0  0  0  0
    6.3748   10.9068   25.3900 H   0  0  0  0  0  0  0  0  0  0  0  0
    9.0632   13.1044   24.1855 H   0  0  0  0  0  0  0  0  0  0  0  0
    6.9007   12.1275   22.9895 H   0  0  0  0  0  0  0  0  0  0  0  0
   10.4828   11.0615   25.0558 H   0  0  0  0  0  0  0  0  0  0  0  0
    8.8933    8.8699   24.6664 H   0  0  0  0  0  0  0  0  0  0  0  0
    6.7485   10.1607   27.9511 H   0  0  0  0  0  0  0  0  0  0  0  0
    6.6766   11.8672   27.4584 H   0  0  0  0  0  0  0  0  0  0  0  0
    7.5510   11.4081   28.9309 H   0  0  0  0  0  0  0  0  0  0  0  0
   10.7576   13.4754   21.3922 H   0  0  0  0  0  0  0  0  0  0  0  0
    9.7787    8.5540   22.5807 H   0  0  0  0  0  0  0  0  0  0  0  0
  1  5  1  6  0  0  0
  1 11  2  0  0  0  0
  1 13  1  0  0  0  0
  2  9  1  0  0  0  0
  2 10  1  0  0  0  0
  2 12  2  0  0  0  0
  3  6  1  0  0  0  0
  3  8  1  0  0  0  0
  4  6  1  1  0  0  0
  4 10  1  0  0  0  0
  5  6  1  0  0  0  0
  5  7  1  0  0  0  0
  7  8  1  0  0  0  0
  7 10  1  1  0  0  0
  8 14  1  6  0  0  0
  3 15  1  0  0  0  0
  3 16  1  0  0  0  0
  4 17  1  0  0  0  0
  4 18  1  0  0  0  0
  5 19  1  0  0  0  0
  6 20  1  0  0  0  0
  7 21  1  0  0  0  0
  8 22  1  0  0  0  0
  9 23  1  0  0  0  0
  9 24  1  0  0  0  0
  9 25  1  0  0  0  0
 13 26  1  0  0  0  0
 14 27  1  0  0  0  0
M  END
> <id>
EN300-28272209

> <smiles>
CC(=O)N1C[C@@H]2C[C@@H](O)[C@H]1[C@H]2C(=O)O |&1:5,7,9,10,r|

> <IUPAC Name>
rac-(1R,4R,6R,7S)-2-acetyl-6-hydroxy-2-azabicyclo[2.2.1]heptane-7-carboxylic acid

> <CAS>
2732246-27-2

> <URL>
https://www.enaminestore.com/catalog/EN300-28272209

> <ROCS_ShapeQuery>
x0812_0A_x1140_0A_x1097_0A_x0365_0A_x1097_0A_x0310_0A

> <ROCS_TanimotoCombo>
0.695 

> <ROCS_ShapeTanimoto>
0.217 

> <ROCS_ColorTanimoto>
0.478 

> <ROCS_RefTversky>
0.198 

> <ROCS_RefColorTversky>
0.594 

> <ROCS_RefTverskyCombo>
0.792 

> <ROCS_FitTversky>
1.776 

> <ROCS_FitColorTversky>
0.711 

> <ROCS_FitTverskyCombo>
2.487 

> <ROCS_ColorScore>
-8.903

> <ROCS_Overlap>
2005.341

> <ROCS_Rank>
430                 

$$$$
untitled-dbase-347770_4
  -OEChem-02092408543D

 40 41  0     1  0  0  0  0  0999 V2000
   10.4942   13.1628   21.7796 C   0  0  0  0  0  0  0  0  0  0  0  0
    7.4104   11.6520   24.9853 C   0  0  0  0  0  0  0  0  0  0  0  0
    7.8156   10.4380   22.9741 C   0  0  0  0  0  0  0  0  0  0  0  0
    9.7738   11.3536   24.9910 C   0  0  0  0  0  0  0  0  0  0  0  0
    7.9080   11.8661   23.5522 C   0  0  2  0  0  0  0  0  0  0  0  0
    8.4705   10.5865   25.2887 C   0  0  2  0  0  0  0  0  0  0  0  0
    8.1557    9.5485   24.1866 C   0  0  2  0  0  0  0  0  0  0  0  0
    9.3762   12.2709   23.8180 C   0  0  2  0  0  0  0  0  0  0  0  0
   12.3781   14.8781   20.4917 C   0  0  0  0  0  0  0  0  0  0  0  0
   12.6637   13.0126   18.8342 C   0  0  0  0  0  0  0  0  0  0  0  0
   10.4283   14.1292   19.0876 C   0  0  0  0  0  0  0  0  0  0  0  0
    9.2447    8.5259   23.9049 C   0  0  0  0  0  0  0  0  0  0  0  0
   11.7023   13.6905   19.8081 C   0  0  0  0  0  0  0  0  0  0  0  0
   10.2383   12.1414   22.6787 N   0  0  0  0  0  0  0  0  0  0  0  0
   10.0250   14.2947   21.8379 O   0  0  0  0  0  0  0  0  0  0  0  0
   10.2391    9.1300   23.0950 O   0  0  0  0  0  0  0  0  0  0  0  0
   11.3518   12.7277   20.8086 O   0  0  0  0  0  0  0  0  0  0  0  0
    7.5008   12.5437   25.6147 H   0  0  0  0  0  0  0  0  0  0  0  0
    6.3844   11.2721   25.0352 H   0  0  0  0  0  0  0  0  0  0  0  0
    6.7907   10.2318   22.6430 H   0  0  0  0  0  0  0  0  0  0  0  0
    8.4776   10.2803   22.1176 H   0  0  0  0  0  0  0  0  0  0  0  0
   10.0547   11.9688   25.8546 H   0  0  0  0  0  0  0  0  0  0  0  0
   10.6218   10.6988   24.7737 H   0  0  0  0  0  0  0  0  0  0  0  0
    7.3505   12.6071   22.9749 H   0  0  0  0  0  0  0  0  0  0  0  0
    8.4312   10.1723   26.2987 H   0  0  0  0  0  0  0  0  0  0  0  0
    7.2504    8.9985   24.4787 H   0  0  0  0  0  0  0  0  0  0  0  0
    9.4286   13.3191   24.1353 H   0  0  0  0  0  0  0  0  0  0  0  0
   11.6913   15.3674   21.1916 H   0  0  0  0  0  0  0  0  0  0  0  0
   13.2740   14.5711   21.0411 H   0  0  0  0  0  0  0  0  0  0  0  0
   12.6661   15.6397   19.7580 H   0  0  0  0  0  0  0  0  0  0  0  0
   12.1829   12.1599   18.3413 H   0  0  0  0  0  0  0  0  0  0  0  0
   13.5364   12.6120   19.3625 H   0  0  0  0  0  0  0  0  0  0  0  0
   13.0136   13.7066   18.0631 H   0  0  0  0  0  0  0  0  0  0  0  0
    9.9433   13.2775   18.5971 H   0  0  0  0  0  0  0  0  0  0  0  0
    9.7110   14.5847   19.7780 H   0  0  0  0  0  0  0  0  0  0  0  0
   10.6574   14.8523   18.2964 H   0  0  0  0  0  0  0  0  0  0  0  0
    8.8277    7.6664   23.3761 H   0  0  0  0  0  0  0  0  0  0  0  0
    9.7001    8.1920   24.8394 H   0  0  0  0  0  0  0  0  0  0  0  0
   10.6910   11.2408   22.5213 H   0  0  0  0  0  0  0  0  0  0  0  0
   10.9199    8.4559   22.9314 H   0  0  0  0  0  0  0  0  0  0  0  0
  1 14  1  0  0  0  0
  1 15  2  0  0  0  0
  1 17  1  0  0  0  0
  2  5  1  6  0  0  0
  2  6  1  6  0  0  0
  3  5  1  0  0  0  0
  3  7  1  0  0  0  0
  4  6  1  0  0  0  0
  4  8  1  0  0  0  0
  5  8  1  0  0  0  0
  6  7  1  0  0  0  0
  7 12  1  1  0  0  0
  8 14  1  1  0  0  0
  9 13  1  0  0  0  0
 10 13  1  0  0  0  0
 11 13  1  0  0  0  0
 12 16  1  0  0  0  0
 13 17  1  0  0  0  0
  2 18  1  0  0  0  0
  2 19  1  0  0  0  0
  3 20  1  0  0  0  0
  3 21  1  0  0  0  0
  4 22  1  0  0  0  0
  4 23  1  0  0  0  0
  5 24  1  0  0  0  0
  6 25  1  0  0  0  0
  7 26  1  0  0  0  0
  8 27  1  0  0  0  0
  9 28  1  0  0  0  0
  9 29  1  0  0  0  0
  9 30  1  0  0  0  0
 10 31  1  0  0  0  0
 10 32  1  0  0  0  0
 10 33  1  0  0  0  0
 11 34  1  0  0  0  0
 11 35  1  0  0  0  0
 11 36  1  0  0  0  0
 12 37  1  0  0  0  0
 12 38  1  0  0  0  0
 14 39  1  0  0  0  0
 16 40  1  0  0  0  0
M  END
> <id>
EN300-26665928

> <smiles>
CC(C)(C)OC(=O)N[C@@H]1C[C@H]2C[C@@H]1C[C@H]2CO |&1:8,10,12,14,r|

> <IUPAC Name>
rac-tert-butyl N-[(1R,2R,4R,5R)-5-(hydroxymethyl)bicyclo[2.2.1]heptan-2-yl]carbamate

> <CAS>
2413848-19-6

> <URL>
https://www.enaminestore.com/catalog/EN300-26665928

> <ROCS_ShapeQuery>
x0812_0A_x1140_0A_x1097_0A_x0365_0A_x1097_0A_x0310_0A

> <ROCS_TanimotoCombo>
0.695 

> <ROCS_ShapeTanimoto>
0.215 

> <ROCS_ColorTanimoto>
0.480 

> <ROCS_RefTversky>
0.199 

> <ROCS_RefColorTversky>
0.573 

> <ROCS_RefTverskyCombo>
0.772 

> <ROCS_FitTversky>
1.630 

> <ROCS_FitColorTversky>
0.747 

> <ROCS_FitTverskyCombo>
2.376 

> <ROCS_ColorScore>
-8.569

> <ROCS_Overlap>
2011.787

> <ROCS_Rank>
431                 

$$$$
untitled-dbase-483288_0
  -OEChem-02092408543D

 46 47  0     0  0  0  0  0  0999 V2000
    9.8960   11.9890   22.0373 C   0  0  0  0  0  0  0  0  0  0  0  0
    7.9259   12.4032   23.4863 C   0  0  0  0  0  0  0  0  0  0  0  0
   10.0479   11.6429   24.4884 C   0  0  0  0  0  0  0  0  0  0  0  0
    7.1326   11.8721   24.6847 C   0  0  0  0  0  0  0  0  0  0  0  0
    9.3088   11.0934   25.7130 C   0  0  0  0  0  0  0  0  0  0  0  0
    9.1477   11.4906   23.2429 C   0  0  0  0  0  0  0  0  0  0  0  0
    7.8790   10.6826   25.3160 C   0  0  0  0  0  0  0  0  0  0  0  0
    8.6693   10.0058   23.1297 C   0  0  0  0  0  0  0  0  0  0  0  0
    9.8254    9.0005   22.9827 C   0  0  0  0  0  0  0  0  0  0  0  0
    7.6835    9.7672   21.9721 C   0  0  0  0  0  0  0  0  0  0  0  0
   10.1512   13.8996   19.9441 C   0  0  0  0  0  0  0  0  0  0  0  0
   11.4138   15.2868   21.6146 C   0  0  0  0  0  0  0  0  0  0  0  0
   12.3030   13.0407   20.9273 C   0  0  0  0  0  0  0  0  0  0  0  0
    7.1151   10.1328   26.5163 C   0  0  0  0  0  0  0  0  0  0  0  0
   11.0448   13.8691   21.1832 C   0  0  0  0  0  0  0  0  0  0  0  0
    5.8218    9.6961   26.1081 N   0  0  0  0  0  0  0  0  0  0  0  0
   10.0863   11.3262   21.0266 O   0  0  0  0  0  0  0  0  0  0  0  0
    7.9644    9.6288   24.3371 O   0  0  0  0  0  0  0  0  0  0  0  0
   10.3141   13.2681   22.2570 O   0  0  0  0  0  0  0  0  0  0  0  0
    7.2839   12.4699   22.6001 H   0  0  0  0  0  0  0  0  0  0  0  0
    8.2469   13.4346   23.6851 H   0  0  0  0  0  0  0  0  0  0  0  0
   10.3022   12.6984   24.6551 H   0  0  0  0  0  0  0  0  0  0  0  0
   11.0113   11.1350   24.3608 H   0  0  0  0  0  0  0  0  0  0  0  0
    6.9766   12.6745   25.4153 H   0  0  0  0  0  0  0  0  0  0  0  0
    6.1428   11.5516   24.3364 H   0  0  0  0  0  0  0  0  0  0  0  0
    9.8575   10.2229   26.0932 H   0  0  0  0  0  0  0  0  0  0  0  0
    9.2975   11.8446   26.5115 H   0  0  0  0  0  0  0  0  0  0  0  0
    9.4194    7.9971   22.9101 H   0  0  0  0  0  0  0  0  0  0  0  0
   10.4729    9.0712   23.8502 H   0  0  0  0  0  0  0  0  0  0  0  0
   10.3891    9.2329   22.0854 H   0  0  0  0  0  0  0  0  0  0  0  0
    7.3975    8.7209   21.9563 H   0  0  0  0  0  0  0  0  0  0  0  0
    8.1628   10.0296   21.0349 H   0  0  0  0  0  0  0  0  0  0  0  0
    6.8039   10.3849   22.1189 H   0  0  0  0  0  0  0  0  0  0  0  0
    9.8841   12.8838   19.6312 H   0  0  0  0  0  0  0  0  0  0  0  0
    9.2291   14.4613   20.1255 H   0  0  0  0  0  0  0  0  0  0  0  0
   10.6738   14.3568   19.0962 H   0  0  0  0  0  0  0  0  0  0  0  0
   12.0550   15.2697   22.5034 H   0  0  0  0  0  0  0  0  0  0  0  0
   10.5189   15.8562   21.8906 H   0  0  0  0  0  0  0  0  0  0  0  0
   11.9374   15.8276   20.8197 H   0  0  0  0  0  0  0  0  0  0  0  0
   12.9442   13.0187   21.8159 H   0  0  0  0  0  0  0  0  0  0  0  0
   12.0580   12.0097   20.6523 H   0  0  0  0  0  0  0  0  0  0  0  0
   12.9034   13.4822   20.1236 H   0  0  0  0  0  0  0  0  0  0  0  0
    7.6923    9.2993   26.9144 H   0  0  0  0  0  0  0  0  0  0  0  0
    7.0344   10.9376   27.2460 H   0  0  0  0  0  0  0  0  0  0  0  0
    5.1123   10.1865   26.6225 H   0  0  0  0  0  0  0  0  0  0  0  0
    5.6908    9.8722   25.1282 H   0  0  0  0  0  0  0  0  0  0  0  0
  1  6  1  0  0  0  0
  1 17  2  0  0  0  0
  1 19  1  0  0  0  0
  2  4  1  0  0  0  0
  2  6  1  0  0  0  0
  3  5  1  0  0  0  0
  3  6  1  0  0  0  0
  4  7  1  0  0  0  0
  5  7  1  0  0  0  0
  6  8  1  0  0  0  0
  7 14  1  0  0  0  0
  7 18  1  0  0  0  0
  8  9  1  0  0  0  0
  8 10  1  0  0  0  0
  8 18  1  0  0  0  0
 11 15  1  0  0  0  0
 12 15  1  0  0  0  0
 13 15  1  0  0  0  0
 14 16  1  0  0  0  0
 15 19  1  0  0  0  0
  2 20  1  0  0  0  0
  2 21  1  0  0  0  0
  3 22  1  0  0  0  0
  3 23  1  0  0  0  0
  4 24  1  0  0  0  0
  4 25  1  0  0  0  0
  5 26  1  0  0  0  0
  5 27  1  0  0  0  0
  9 28  1  0  0  0  0
  9 29  1  0  0  0  0
  9 30  1  0  0  0  0
 10 31  1  0  0  0  0
 10 32  1  0  0  0  0
 10 33  1  0  0  0  0
 11 34  1  0  0  0  0
 11 35  1  0  0  0  0
 11 36  1  0  0  0  0
 12 37  1  0  0  0  0
 12 38  1  0  0  0  0
 12 39  1  0  0  0  0
 13 40  1  0  0  0  0
 13 41  1  0  0  0  0
 13 42  1  0  0  0  0
 14 43  1  0  0  0  0
 14 44  1  0  0  0  0
 16 45  1  0  0  0  0
 16 46  1  0  0  0  0
M  END
> <id>
EN300-27728362

> <smiles>
CC(C)(C)OC(=O)C1(CCC2(CN)CC1)C(C)(C)O2

> <IUPAC Name>
tert-butyl 1-(aminomethyl)-3,3-dimethyl-2-oxabicyclo[2.2.2]octane-4-carboxylate

> <CAS>
2639451-42-4

> <URL>
https://www.enaminestore.com/catalog/EN300-27728362

> <ROCS_ShapeQuery>
x0812_0A_x1140_0A_x1097_0A_x0365_0A_x1097_0A_x0310_0A

> <ROCS_TanimotoCombo>
0.695 

> <ROCS_ShapeTanimoto>
0.261 

> <ROCS_ColorTanimoto>
0.434 

> <ROCS_RefTversky>
0.234 

> <ROCS_RefColorTversky>
0.549 

> <ROCS_RefTverskyCombo>
0.783 

> <ROCS_FitTversky>
1.783 

> <ROCS_FitColorTversky>
0.675 

> <ROCS_FitTverskyCombo>
2.458 

> <ROCS_ColorScore>
-8.219

> <ROCS_Overlap>
2373.452

> <ROCS_Rank>
432                 

$$$$
untitled-dbase-575720_2
  -OEChem-02092408543D

 26 27  0     1  0  0  0  0  0999 V2000
    7.8118    9.7514   24.9478 C   0  0  0  0  0  0  0  0  0  0  0  0
    7.4862   10.0238   23.4722 C   0  0  0  0  0  0  0  0  0  0  0  0
    7.6029   12.0951   24.5861 C   0  0  0  0  0  0  0  0  0  0  0  0
    9.8197   11.2590   24.8697 C   0  0  0  0  0  0  0  0  0  0  0  0
    8.3909   11.0942   25.4275 C   0  0  2  0  0  0  0  0  0  0  0  0
    8.0282   11.4501   23.2595 C   0  0  1  0  0  0  0  0  0  0  0  0
    9.5867   11.4938   23.3522 C   0  0  1  0  0  0  0  0  0  0  0  0
   10.1202   12.8731   22.9213 C   0  0  0  0  0  0  0  0  0  0  0  0
   10.2957   10.4325   22.5003 C   0  0  0  0  0  0  0  0  0  0  0  0
   10.1584    9.1833   23.1464 O   0  0  0  0  0  0  0  0  0  0  0  0
    6.8959    9.5006   25.4947 H   0  0  0  0  0  0  0  0  0  0  0  0
    8.5189    8.9244   25.0684 H   0  0  0  0  0  0  0  0  0  0  0  0
    7.9125    9.2765   22.7991 H   0  0  0  0  0  0  0  0  0  0  0  0
    6.3992   10.0062   23.3244 H   0  0  0  0  0  0  0  0  0  0  0  0
    6.5224   12.0485   24.7618 H   0  0  0  0  0  0  0  0  0  0  0  0
    7.9385   13.1276   24.7142 H   0  0  0  0  0  0  0  0  0  0  0  0
   10.3038   12.1245   25.3374 H   0  0  0  0  0  0  0  0  0  0  0  0
   10.4371   10.3788   25.0792 H   0  0  0  0  0  0  0  0  0  0  0  0
    8.3288   11.2342   26.5085 H   0  0  0  0  0  0  0  0  0  0  0  0
    7.6229   11.9323   22.3665 H   0  0  0  0  0  0  0  0  0  0  0  0
    9.9435   13.0074   21.8598 H   0  0  0  0  0  0  0  0  0  0  0  0
   11.1840   12.9229   23.1252 H   0  0  0  0  0  0  0  0  0  0  0  0
    9.6028   13.6453   23.4799 H   0  0  0  0  0  0  0  0  0  0  0  0
   11.3493   10.6841   22.4097 H   0  0  0  0  0  0  0  0  0  0  0  0
    9.8348   10.3888   21.5168 H   0  0  0  0  0  0  0  0  0  0  0  0
   10.6123    8.5221   22.5950 H   0  0  0  0  0  0  0  0  0  0  0  0
  1  2  1  0  0  0  0
  1  5  1  0  0  0  0
  2  6  1  0  0  0  0
  3  5  1  6  0  0  0
  3  6  1  6  0  0  0
  4  5  1  0  0  0  0
  4  7  1  0  0  0  0
  6  7  1  0  0  0  0
  7  8  1  6  0  0  0
  7  9  1  1  0  0  0
  9 10  1  0  0  0  0
  1 11  1  0  0  0  0
  1 12  1  0  0  0  0
  2 13  1  0  0  0  0
  2 14  1  0  0  0  0
  3 15  1  0  0  0  0
  3 16  1  0  0  0  0
  4 17  1  0  0  0  0
  4 18  1  0  0  0  0
  5 19  1  0  0  0  0
  6 20  1  0  0  0  0
  8 21  1  0  0  0  0
  8 22  1  0  0  0  0
  8 23  1  0  0  0  0
  9 24  1  0  0  0  0
  9 25  1  0  0  0  0
 10 26  1  0  0  0  0
M  END
> <id>
EN300-44828894

> <smiles>
C[C@@]1(CO)C[C@@H]2CC[C@H]1C2 |&1:1,5,8,r|

> <IUPAC Name>
rac-[(1R,2S,4S)-2-methylbicyclo[2.2.1]heptan-2-yl]methanol

> <Purity>
95

> <URL>
https://www.enaminestore.com/catalog/EN300-44828894

> <ROCS_ShapeQuery>
x0812_0A_x1140_0A_x1097_0A_x0365_0A_x1097_0A_x0310_0A

> <ROCS_TanimotoCombo>
0.695 

> <ROCS_ShapeTanimoto>
0.197 

> <ROCS_ColorTanimoto>
0.498 

> <ROCS_RefTversky>
0.180 

> <ROCS_RefColorTversky>
0.526 

> <ROCS_RefTverskyCombo>
0.706 

> <ROCS_FitTversky>
1.935 

> <ROCS_FitColorTversky>
0.902 

> <ROCS_FitTverskyCombo>
2.837 

> <ROCS_ColorScore>
-7.786

> <ROCS_Overlap>
1820.219

> <ROCS_Rank>
433                 

$$$$
untitled-dbase-87902_8
  -OEChem-02092408543D

 35 36  0     0  0  0  0  0  0999 V2000
    8.8166   11.8254   25.1955 C   0  0  0  0  0  0  0  0  0  0  0  0
    7.7090   11.7437   23.4192 C   0  0  0  0  0  0  0  0  0  0  0  0
    9.2306    9.8483   23.7927 C   0  0  0  0  0  0  0  0  0  0  0  0
    9.2104   11.3914   23.7344 C   0  0  0  0  0  0  0  0  0  0  0  0
    7.5587   10.9649   24.7840 C   0  0  0  0  0  0  0  0  0  0  0  0
    4.2797   11.0766   27.6375 C   0  0  0  0  0  0  0  0  0  0  0  0
    7.2525    9.9860   29.0174 C   0  0  0  0  0  0  0  0  0  0  0  0
   10.3354   12.0577   23.0014 C   0  0  0  0  0  0  0  0  0  0  0  0
    6.2866   11.0182   25.5740 C   0  0  0  0  0  0  0  0  0  0  0  0
    5.0440    9.8514   27.2672 C   0  0  0  0  0  0  0  0  0  0  0  0
    7.1630   10.8483   27.8045 C   0  0  0  0  0  0  0  0  0  0  0  0
    6.3772   10.1945   26.7445 N   0  0  0  0  0  0  0  0  0  0  0  0
    8.0326    9.6098   24.5509 O   0  0  0  0  0  0  0  0  0  0  0  0
   10.2000   11.8219   21.6030 O   0  0  0  0  0  0  0  0  0  0  0  0
    9.4330   11.4183   26.0022 H   0  0  0  0  0  0  0  0  0  0  0  0
    8.6526   12.8948   25.3683 H   0  0  0  0  0  0  0  0  0  0  0  0
    7.4374   12.8051   23.4194 H   0  0  0  0  0  0  0  0  0  0  0  0
    7.2744   11.2586   22.5403 H   0  0  0  0  0  0  0  0  0  0  0  0
    9.1421    9.3865   22.8051 H   0  0  0  0  0  0  0  0  0  0  0  0
   10.0962    9.4566   24.3345 H   0  0  0  0  0  0  0  0  0  0  0  0
    4.1592   11.7162   26.7507 H   0  0  0  0  0  0  0  0  0  0  0  0
    3.2890   10.7892   28.0194 H   0  0  0  0  0  0  0  0  0  0  0  0
    4.8268   11.6287   28.4159 H   0  0  0  0  0  0  0  0  0  0  0  0
    7.7345    9.0326   28.7553 H   0  0  0  0  0  0  0  0  0  0  0  0
    7.8475   10.4979   29.7880 H   0  0  0  0  0  0  0  0  0  0  0  0
    6.2412    9.7914   29.4041 H   0  0  0  0  0  0  0  0  0  0  0  0
   11.3098   11.6625   23.3224 H   0  0  0  0  0  0  0  0  0  0  0  0
   10.3312   13.1446   23.1672 H   0  0  0  0  0  0  0  0  0  0  0  0
    6.1021   12.0578   25.8735 H   0  0  0  0  0  0  0  0  0  0  0  0
    5.4643   10.6617   24.9405 H   0  0  0  0  0  0  0  0  0  0  0  0
    5.1602    9.2176   28.1587 H   0  0  0  0  0  0  0  0  0  0  0  0
    4.4868    9.3001   26.4955 H   0  0  0  0  0  0  0  0  0  0  0  0
    6.6802   11.7991   28.0748 H   0  0  0  0  0  0  0  0  0  0  0  0
    8.1778   11.0462   27.4290 H   0  0  0  0  0  0  0  0  0  0  0  0
   10.9456   12.2693   21.1734 H   0  0  0  0  0  0  0  0  0  0  0  0
  1  4  1  0  0  0  0
  1  5  1  0  0  0  0
  2  4  1  0  0  0  0
  2  5  1  0  0  0  0
  3  4  1  0  0  0  0
  3 13  1  0  0  0  0
  4  8  1  0  0  0  0
  5  9  1  0  0  0  0
  5 13  1  0  0  0  0
  6 10  1  0  0  0  0
  7 11  1  0  0  0  0
  8 14  1  0  0  0  0
  9 12  1  0  0  0  0
 10 12  1  0  0  0  0
 11 12  1  0  0  0  0
  1 15  1  0  0  0  0
  1 16  1  0  0  0  0
  2 17  1  0  0  0  0
  2 18  1  0  0  0  0
  3 19  1  0  0  0  0
  3 20  1  0  0  0  0
  6 21  1  0  0  0  0
  6 22  1  0  0  0  0
  6 23  1  0  0  0  0
  7 24  1  0  0  0  0
  7 25  1  0  0  0  0
  7 26  1  0  0  0  0
  8 27  1  0  0  0  0
  8 28  1  0  0  0  0
  9 29  1  0  0  0  0
  9 30  1  0  0  0  0
 10 31  1  0  0  0  0
 10 32  1  0  0  0  0
 11 33  1  0  0  0  0
 11 34  1  0  0  0  0
 14 35  1  0  0  0  0
M  END
> <id>
EN300-694463

> <smiles>
CCN(CC)CC1(CC2(CO)C1)OC2

> <MDLNUMBER>
MFCD31430332

> <IUPAC Name>
{1-[(diethylamino)methyl]-2-oxabicyclo[2.1.1]hexan-4-yl}methanol

> <CAS>
2137647-09-5

> <URL>
https://www.enaminestore.com/catalog/EN300-694463

> <ROCS_ShapeQuery>
x0812_0A_x1140_0A_x1097_0A_x0365_0A_x1097_0A_x0310_0A

> <ROCS_TanimotoCombo>
0.695 

> <ROCS_ShapeTanimoto>
0.213 

> <ROCS_ColorTanimoto>
0.482 

> <ROCS_RefTversky>
0.195 

> <ROCS_RefColorTversky>
0.565 

> <ROCS_RefTverskyCombo>
0.760 

> <ROCS_FitTversky>
1.788 

> <ROCS_FitColorTversky>
0.767 

> <ROCS_FitTverskyCombo>
2.555 

> <ROCS_ColorScore>
-8.430

> <ROCS_Overlap>
1969.276

> <ROCS_Rank>
434                 

$$$$
untitled-dbase-264563_1
  -OEChem-02092408543D

 44 47  0     1  0  0  0  0  0999 V2000
    6.9651   13.9966   23.0780 C   0  0  0  0  0  0  0  0  0  0  0  0
    6.8033   10.1270   24.7758 C   0  0  0  0  0  0  0  0  0  0  0  0
    5.8152   13.2597   23.7712 C   0  0  0  0  0  0  0  0  0  0  0  0
    8.0002    9.2885   25.1962 C   0  0  0  0  0  0  0  0  0  0  0  0
    7.9868   13.0260   22.4949 C   0  0  1  0  0  0  0  0  0  0  0  0
    6.9577   10.9437   23.4675 C   0  0  1  0  0  0  0  0  0  0  0  0
    5.6324   11.7937   23.3377 C   0  0  2  0  0  0  0  0  0  0  0  0
    9.2604   13.6540   21.8973 C   0  0  2  0  0  0  0  0  0  0  0  0
    9.5663   11.1587   22.9706 C   0  0  2  0  0  0  0  0  0  0  0  0
   10.0151   12.5336   21.1077 C   0  0  2  0  0  0  0  0  0  0  0  0
    8.2657   11.8285   23.4400 C   0  0  1  0  0  0  0  0  0  0  0  0
    9.3462    9.9582   24.9380 C   0  0  1  0  0  0  0  0  0  0  0  0
    4.9865   11.6762   21.9506 C   0  0  0  0  0  0  0  0  0  0  0  0
   10.1197   14.4228   22.9070 C   0  0  0  0  0  0  0  0  0  0  0  0
   10.4517    9.1579   25.6313 C   0  0  0  0  0  0  0  0  0  0  0  0
    9.6793   11.2016   21.5551 O   0  0  0  0  0  0  0  0  0  0  0  0
    9.6250    9.8617   23.5303 O   0  0  0  0  0  0  0  0  0  0  0  0
    8.4890   12.2352   24.8020 O   0  0  0  0  0  0  0  0  0  0  0  0
    9.4172   11.2928   25.4875 O   0  0  0  0  0  0  0  0  0  0  0  0
   11.4211   12.7513   21.1155 O   0  0  0  0  0  0  0  0  0  0  0  0
    6.5473   14.6359   22.2749 H   0  0  0  0  0  0  0  0  0  0  0  0
    7.4404   14.7007   23.7894 H   0  0  0  0  0  0  0  0  0  0  0  0
    5.9408    9.4529   24.6424 H   0  0  0  0  0  0  0  0  0  0  0  0
    6.5002   10.7665   25.6139 H   0  0  0  0  0  0  0  0  0  0  0  0
    5.9645   13.3129   24.8574 H   0  0  0  0  0  0  0  0  0  0  0  0
    4.8876   13.8122   23.5637 H   0  0  0  0  0  0  0  0  0  0  0  0
    7.9049    8.9972   26.2593 H   0  0  0  0  0  0  0  0  0  0  0  0
    7.9325    8.3435   24.6246 H   0  0  0  0  0  0  0  0  0  0  0  0
    7.4968   12.6206   21.5779 H   0  0  0  0  0  0  0  0  0  0  0  0
    6.9589   10.2092   22.6928 H   0  0  0  0  0  0  0  0  0  0  0  0
    4.8913   11.3313   24.0537 H   0  0  0  0  0  0  0  0  0  0  0  0
    8.9584   14.4030   21.1556 H   0  0  0  0  0  0  0  0  0  0  0  0
   10.4487   11.6506   23.3649 H   0  0  0  0  0  0  0  0  0  0  0  0
    9.6845   12.5798   20.0639 H   0  0  0  0  0  0  0  0  0  0  0  0
    5.6502   12.1050   21.2051 H   0  0  0  0  0  0  0  0  0  0  0  0
    4.0414   12.2116   21.9453 H   0  0  0  0  0  0  0  0  0  0  0  0
    4.8115   10.6291   21.7207 H   0  0  0  0  0  0  0  0  0  0  0  0
   10.4629   13.7446   23.6843 H   0  0  0  0  0  0  0  0  0  0  0  0
    9.5298   15.2175   23.3568 H   0  0  0  0  0  0  0  0  0  0  0  0
   10.9790   14.8545   22.3999 H   0  0  0  0  0  0  0  0  0  0  0  0
   11.4161    9.6297   25.4516 H   0  0  0  0  0  0  0  0  0  0  0  0
   10.4724    8.1425   25.2396 H   0  0  0  0  0  0  0  0  0  0  0  0
   10.2649    9.1237   26.7032 H   0  0  0  0  0  0  0  0  0  0  0  0
   11.8180   12.0235   20.6113 H   0  0  0  0  0  0  0  0  0  0  0  0
  1  3  1  0  0  0  0
  1  5  1  1  0  0  0
  2  4  1  0  0  0  0
  2  6  1  1  0  0  0
  3  7  1  0  0  0  0
  4 12  1  0  0  0  0
  5  8  1  0  0  0  0
  5 11  1  0  0  0  0
  6  7  1  0  0  0  0
  6 11  1  0  0  0  0
  7 13  1  6  0  0  0
  8 10  1  0  0  0  0
  8 14  1  1  0  0  0
  9 11  1  0  0  0  0
  9 16  1  6  0  0  0
  9 17  1  0  0  0  0
 10 16  1  0  0  0  0
 10 20  1  1  0  0  0
 11 18  1  1  0  0  0
 12 15  1  0  0  0  0
 12 17  1  0  0  0  0
 12 19  1  0  0  0  0
 18 19  1  0  0  0  0
  1 21  1  0  0  0  0
  1 22  1  0  0  0  0
  2 23  1  0  0  0  0
  2 24  1  0  0  0  0
  3 25  1  0  0  0  0
  3 26  1  0  0  0  0
  4 27  1  0  0  0  0
  4 28  1  0  0  0  0
  5 29  1  0  0  0  0
  6 30  1  0  0  0  0
  7 31  1  0  0  0  0
  8 32  1  0  0  0  0
  9 33  1  0  0  0  0
 10 34  1  0  0  0  0
 13 35  1  0  0  0  0
 13 36  1  0  0  0  0
 13 37  1  0  0  0  0
 14 38  1  0  0  0  0
 14 39  1  0  0  0  0
 14 40  1  0  0  0  0
 15 41  1  0  0  0  0
 15 42  1  0  0  0  0
 15 43  1  0  0  0  0
 20 44  1  0  0  0  0
M  END
> <id>
EN300-27122031

> <smiles>
C[C@@H]1CC[C@H]2[C@@H](C)[C@@H](O)O[C@@H]3OC4(C)CC[C@@H]1[C@]23OO4

> <IUPAC Name>
(4S,5R,8S,9R,10S,12R,13S)-1,5,9-trimethyl-11,14,15,16-tetraoxatetracyclo[10.3.1.0?,.0?,]hexadecan-10-ol

> <URL>
https://www.enaminestore.com/catalog/EN300-27122031

> <ROCS_ShapeQuery>
x0812_0A_x1140_0A_x1097_0A_x0365_0A_x1097_0A_x0310_0A

> <ROCS_TanimotoCombo>
0.695 

> <ROCS_ShapeTanimoto>
0.229 

> <ROCS_ColorTanimoto>
0.466 

> <ROCS_RefTversky>
0.212 

> <ROCS_RefColorTversky>
0.571 

> <ROCS_RefTverskyCombo>
0.783 

> <ROCS_FitTversky>
1.536 

> <ROCS_FitColorTversky>
0.717 

> <ROCS_FitTverskyCombo>
2.253 

> <ROCS_ColorScore>
-8.547

> <ROCS_Overlap>
2146.818

> <ROCS_Rank>
435                 

$$$$
untitled-dbase-375353_0
  -OEChem-02092408543D

 23 25  0     1  0  0  0  0  0999 V2000
    8.1832   13.2113   22.5336 C   0  0  0  0  0  0  0  0  0  0  0  0
    8.7352   13.3560   21.2682 C   0  0  0  0  0  0  0  0  0  0  0  0
    8.4987   12.0825   23.2883 C   0  0  0  0  0  0  0  0  0  0  0  0
    9.3552   11.1019   22.7353 C   0  0  0  0  0  0  0  0  0  0  0  0
    9.5755   12.3558   20.8054 C   0  0  0  0  0  0  0  0  0  0  0  0
    7.5130    9.5125   24.6772 C   0  0  0  0  0  0  0  0  0  0  0  0
    6.8266   10.8829   24.4806 C   0  0  0  0  0  0  0  0  0  0  0  0
    8.9450   11.2429   25.4502 C   0  0  0  0  0  0  0  0  0  0  0  0
    9.0097    9.8470   24.8253 C   0  0  2  0  0  0  0  0  0  0  0  0
    9.8951   11.2394   21.5020 N   0  0  0  0  0  0  0  0  0  0  0  0
    9.6287    9.9650   23.5056 N   0  0  0  0  0  0  0  0  0  0  0  0
    7.9296   11.8677   24.5811 N   0  0  1  0  0  0  0  0  0  0  0  0
   10.2972   12.4599   19.2507 Cl  0  0  0  0  0  0  0  0  0  0  0  0
    7.5152   13.9731   22.9248 H   0  0  0  0  0  0  0  0  0  0  0  0
    8.5054   14.2303   20.6683 H   0  0  0  0  0  0  0  0  0  0  0  0
    7.1414    9.0445   25.5965 H   0  0  0  0  0  0  0  0  0  0  0  0
    7.3167    8.8262   23.8468 H   0  0  0  0  0  0  0  0  0  0  0  0
    6.2769   10.9392   23.5333 H   0  0  0  0  0  0  0  0  0  0  0  0
    6.1099   11.0608   25.2907 H   0  0  0  0  0  0  0  0  0  0  0  0
    8.5770   11.2016   26.4828 H   0  0  0  0  0  0  0  0  0  0  0  0
    9.9038   11.7763   25.4560 H   0  0  0  0  0  0  0  0  0  0  0  0
    9.5442    9.1169   25.4390 H   0  0  0  0  0  0  0  0  0  0  0  0
   10.2129    9.2302   23.1293 H   0  0  0  0  0  0  0  0  0  0  0  0
  1  2  2  0  0  0  0
  1  3  1  0  0  0  0
  2  5  1  0  0  0  0
  3  4  2  0  0  0  0
  3 12  1  0  0  0  0
  4 10  1  0  0  0  0
  4 11  1  0  0  0  0
  5 10  2  0  0  0  0
  5 13  1  0  0  0  0
  6  7  1  0  0  0  0
  6  9  1  0  0  0  0
  7 12  1  0  0  0  0
  8  9  1  0  0  0  0
  8 12  1  0  0  0  0
  9 11  1  0  0  0  0
  1 14  1  0  0  0  0
  2 15  1  0  0  0  0
  6 16  1  0  0  0  0
  6 17  1  0  0  0  0
  7 18  1  0  0  0  0
  7 19  1  0  0  0  0
  8 20  1  0  0  0  0
  8 21  1  0  0  0  0
  9 22  1  0  0  0  0
 11 23  1  0  0  0  0
M  END
> <id>
EN300-297810

> <smiles>
ClC=1C=CC=2N3CCC(C3)NC2N1

> <MDLNUMBER>
MFCD28049702

> <IUPAC Name>
5-chloro-1,6,8-triazatricyclo[7.2.1.0,2,7]dodeca-2,4,6-triene

> <CAS>
1823422-95-2

> <Purity>
95

> <URL>
https://www.enaminestore.com/catalog/EN300-297810

> <ROCS_ShapeQuery>
x0812_0A_x1140_0A_x1097_0A_x0365_0A_x1097_0A_x0310_0A

> <ROCS_TanimotoCombo>
0.695 

> <ROCS_ShapeTanimoto>
0.197 

> <ROCS_ColorTanimoto>
0.498 

> <ROCS_RefTversky>
0.182 

> <ROCS_RefColorTversky>
0.539 

> <ROCS_RefTverskyCombo>
0.722 

> <ROCS_FitTversky>
1.675 

> <ROCS_FitColorTversky>
0.868 

> <ROCS_FitTverskyCombo>
2.543 

> <ROCS_ColorScore>
-7.991

> <ROCS_Overlap>
1845.481

> <ROCS_Rank>
436                 

$$$$
untitled-dbase-81956_0
  -OEChem-02092408543D

 23 25  0     1  0  0  0  0  0999 V2000
    8.7387   13.3548   21.2692 C   0  0  0  0  0  0  0  0  0  0  0  0
    8.1854   13.2102   22.5341 C   0  0  0  0  0  0  0  0  0  0  0  0
    9.5791   12.3542   20.8072 C   0  0  0  0  0  0  0  0  0  0  0  0
    8.4997   12.0811   23.2890 C   0  0  0  0  0  0  0  0  0  0  0  0
    9.3564   11.1002   22.7367 C   0  0  0  0  0  0  0  0  0  0  0  0
    7.5115    9.5114   24.6766 C   0  0  0  0  0  0  0  0  0  0  0  0
    6.8258   10.8821   24.4795 C   0  0  0  0  0  0  0  0  0  0  0  0
    8.9435   11.2411   25.4512 C   0  0  0  0  0  0  0  0  0  0  0  0
    9.0083    9.8453   24.8263 C   0  0  2  0  0  0  0  0  0  0  0  0
    9.8975   11.2377   21.5040 N   0  0  0  0  0  0  0  0  0  0  0  0
    9.6286    9.9631   23.5072 N   0  0  0  0  0  0  0  0  0  0  0  0
    7.9291   11.8664   24.5812 N   0  0  1  0  0  0  0  0  0  0  0  0
    8.5189   14.2242   20.6601 H   0  0  0  0  0  0  0  0  0  0  0  0
    7.5172   13.9720   22.9249 H   0  0  0  0  0  0  0  0  0  0  0  0
   10.0338   12.4253   19.8242 H   0  0  0  0  0  0  0  0  0  0  0  0
    7.1390    9.0436   25.5956 H   0  0  0  0  0  0  0  0  0  0  0  0
    7.3160    8.8252   23.8459 H   0  0  0  0  0  0  0  0  0  0  0  0
    6.2771   10.9391   23.5316 H   0  0  0  0  0  0  0  0  0  0  0  0
    6.1083   11.0601   25.2887 H   0  0  0  0  0  0  0  0  0  0  0  0
    8.5738   11.2003   26.4833 H   0  0  0  0  0  0  0  0  0  0  0  0
    9.9024   11.7743   25.4580 H   0  0  0  0  0  0  0  0  0  0  0  0
    9.5417    9.1150   25.4405 H   0  0  0  0  0  0  0  0  0  0  0  0
   10.2110    9.2269   23.1304 H   0  0  0  0  0  0  0  0  0  0  0  0
  1  2  2  0  0  0  0
  1  3  1  0  0  0  0
  2  4  1  0  0  0  0
  3 10  2  0  0  0  0
  4  5  2  0  0  0  0
  4 12  1  0  0  0  0
  5 10  1  0  0  0  0
  5 11  1  0  0  0  0
  6  7  1  0  0  0  0
  6  9  1  0  0  0  0
  7 12  1  0  0  0  0
  8  9  1  0  0  0  0
  8 12  1  0  0  0  0
  9 11  1  0  0  0  0
  1 13  1  0  0  0  0
  2 14  1  0  0  0  0
  3 15  1  0  0  0  0
  6 16  1  0  0  0  0
  6 17  1  0  0  0  0
  7 18  1  0  0  0  0
  7 19  1  0  0  0  0
  8 20  1  0  0  0  0
  8 21  1  0  0  0  0
  9 22  1  0  0  0  0
 11 23  1  0  0  0  0
M  END
> <id>
EN300-396914

> <smiles>
Cl.Cl.C1CN2CC1NC=3N=CC=CC23

> <MDLNUMBER>
MFCD30751546

> <IUPAC Name>
1,6,8-triazatricyclo[7.2.1.0,2,7]dodeca-2,4,6-triene dihydrochloride

> <CAS>
2126160-73-2

> <Purity>
95

> <URL>
https://www.enaminestore.com/catalog/EN300-396914

> <Saltdate>
Cl

> <ROCS_ShapeQuery>
x0812_0A_x1140_0A_x1097_0A_x0365_0A_x1097_0A_x0310_0A

> <ROCS_TanimotoCombo>
0.695 

> <ROCS_ShapeTanimoto>
0.197 

> <ROCS_ColorTanimoto>
0.498 

> <ROCS_RefTversky>
0.182 

> <ROCS_RefColorTversky>
0.539 

> <ROCS_RefTverskyCombo>
0.721 

> <ROCS_FitTversky>
1.723 

> <ROCS_FitColorTversky>
0.868 

> <ROCS_FitTverskyCombo>
2.591 

> <ROCS_ColorScore>
-7.991

> <ROCS_Overlap>
1839.548

> <ROCS_Rank>
437                 

$$$$
untitled-dbase-534443_0
  -OEChem-02092408543D

 23 25  0     1  0  0  0  0  0999 V2000
    8.7387   13.3548   21.2692 C   0  0  0  0  0  0  0  0  0  0  0  0
    8.1854   13.2102   22.5341 C   0  0  0  0  0  0  0  0  0  0  0  0
    9.5791   12.3542   20.8072 C   0  0  0  0  0  0  0  0  0  0  0  0
    8.4997   12.0811   23.2890 C   0  0  0  0  0  0  0  0  0  0  0  0
    9.3564   11.1002   22.7367 C   0  0  0  0  0  0  0  0  0  0  0  0
    7.5115    9.5114   24.6766 C   0  0  0  0  0  0  0  0  0  0  0  0
    6.8258   10.8821   24.4795 C   0  0  0  0  0  0  0  0  0  0  0  0
    8.9435   11.2411   25.4512 C   0  0  0  0  0  0  0  0  0  0  0  0
    9.0083    9.8453   24.8263 C   0  0  2  0  0  0  0  0  0  0  0  0
    9.8975   11.2377   21.5040 N   0  0  0  0  0  0  0  0  0  0  0  0
    9.6286    9.9631   23.5072 N   0  0  0  0  0  0  0  0  0  0  0  0
    7.9291   11.8664   24.5812 N   0  0  1  0  0  0  0  0  0  0  0  0
    8.5189   14.2242   20.6601 H   0  0  0  0  0  0  0  0  0  0  0  0
    7.5172   13.9720   22.9249 H   0  0  0  0  0  0  0  0  0  0  0  0
   10.0338   12.4253   19.8242 H   0  0  0  0  0  0  0  0  0  0  0  0
    7.1390    9.0436   25.5956 H   0  0  0  0  0  0  0  0  0  0  0  0
    7.3160    8.8252   23.8459 H   0  0  0  0  0  0  0  0  0  0  0  0
    6.2771   10.9391   23.5316 H   0  0  0  0  0  0  0  0  0  0  0  0
    6.1083   11.0601   25.2887 H   0  0  0  0  0  0  0  0  0  0  0  0
    8.5738   11.2003   26.4833 H   0  0  0  0  0  0  0  0  0  0  0  0
    9.9024   11.7743   25.4580 H   0  0  0  0  0  0  0  0  0  0  0  0
    9.5417    9.1150   25.4405 H   0  0  0  0  0  0  0  0  0  0  0  0
   10.2110    9.2269   23.1304 H   0  0  0  0  0  0  0  0  0  0  0  0
  1  2  2  0  0  0  0
  1  3  1  0  0  0  0
  2  4  1  0  0  0  0
  3 10  2  0  0  0  0
  4  5  2  0  0  0  0
  4 12  1  0  0  0  0
  5 10  1  0  0  0  0
  5 11  1  0  0  0  0
  6  7  1  0  0  0  0
  6  9  1  0  0  0  0
  7 12  1  0  0  0  0
  8  9  1  0  0  0  0
  8 12  1  0  0  0  0
  9 11  1  0  0  0  0
  1 13  1  0  0  0  0
  2 14  1  0  0  0  0
  3 15  1  0  0  0  0
  6 16  1  0  0  0  0
  6 17  1  0  0  0  0
  7 18  1  0  0  0  0
  7 19  1  0  0  0  0
  8 20  1  0  0  0  0
  8 21  1  0  0  0  0
  9 22  1  0  0  0  0
 11 23  1  0  0  0  0
M  END
> <id>
EN300-396915

> <smiles>
C1CN2CC1NC=3N=CC=CC23

> <MDLNUMBER>
MFCD30751547

> <IUPAC Name>
1,6,8-triazatricyclo[7.2.1.0,2,7]dodeca-2,4,6-triene

> <CAS>
2126160-72-1

> <URL>
https://www.enaminestore.com/catalog/EN300-396915

> <ROCS_ShapeQuery>
x0812_0A_x1140_0A_x1097_0A_x0365_0A_x1097_0A_x0310_0A

> <ROCS_TanimotoCombo>
0.695 

> <ROCS_ShapeTanimoto>
0.197 

> <ROCS_ColorTanimoto>
0.498 

> <ROCS_RefTversky>
0.182 

> <ROCS_RefColorTversky>
0.539 

> <ROCS_RefTverskyCombo>
0.721 

> <ROCS_FitTversky>
1.723 

> <ROCS_FitColorTversky>
0.868 

> <ROCS_FitTverskyCombo>
2.591 

> <ROCS_ColorScore>
-7.991

> <ROCS_Overlap>
1839.548

> <ROCS_Rank>
438                 

$$$$
untitled-dbase-485868_3
  -OEChem-02092408543D

 41 42  0     1  0  0  0  0  0999 V2000
    5.9132    8.9971   26.3938 C   0  0  0  0  0  0  0  0  0  0  0  0
    9.5380   12.4786   24.4946 C   0  0  0  0  0  0  0  0  0  0  0  0
    9.8141   11.2152   25.3203 C   0  0  0  0  0  0  0  0  0  0  0  0
    7.0803   11.9963   24.5194 C   0  0  0  0  0  0  0  0  0  0  0  0
    8.2923   12.2767   23.6114 C   0  0  2  0  0  0  0  0  0  0  0  0
    8.7283   10.1522   25.0427 C   0  0  1  0  0  0  0  0  0  0  0  0
    7.3607   10.7743   25.4207 C   0  0  2  0  0  0  0  0  0  0  0  0
    8.5046   11.0559   22.6909 C   0  0  2  0  0  0  0  0  0  0  0  0
    8.7668    9.7921   23.5384 C   0  0  1  0  0  0  0  0  0  0  0  0
    6.6057    7.0014   28.3141 C   0  0  0  0  0  0  0  0  0  0  0  0
    7.4010    8.9117   29.7380 C   0  0  0  0  0  0  0  0  0  0  0  0
    4.9798    8.7599   29.0878 C   0  0  0  0  0  0  0  0  0  0  0  0
    6.4174    8.4795   28.6527 C   0  0  0  0  0  0  0  0  0  0  0  0
    6.2907    9.8090   25.3438 N   0  0  0  0  0  0  0  0  0  0  0  0
    5.0111    8.1664   26.3673 O   0  0  0  0  0  0  0  0  0  0  0  0
    9.5679   11.3272   21.7863 O   0  0  0  0  0  0  0  0  0  0  0  0
   10.0135    9.1821   23.2278 O   0  0  0  0  0  0  0  0  0  0  0  0
    6.6989    9.2546   27.4819 O   0  0  0  0  0  0  0  0  0  0  0  0
    9.3871   13.3327   25.1661 H   0  0  0  0  0  0  0  0  0  0  0  0
   10.4134   12.7192   23.8801 H   0  0  0  0  0  0  0  0  0  0  0  0
   10.8102   10.8237   25.0829 H   0  0  0  0  0  0  0  0  0  0  0  0
    9.8303   11.4680   26.3875 H   0  0  0  0  0  0  0  0  0  0  0  0
    6.8708   12.8709   25.1478 H   0  0  0  0  0  0  0  0  0  0  0  0
    6.1875   11.8412   23.9004 H   0  0  0  0  0  0  0  0  0  0  0  0
    8.1246   13.1792   23.0127 H   0  0  0  0  0  0  0  0  0  0  0  0
    8.9420    9.2671   25.6539 H   0  0  0  0  0  0  0  0  0  0  0  0
    7.3849   11.0982   26.4682 H   0  0  0  0  0  0  0  0  0  0  0  0
    7.5989   10.9077   22.0900 H   0  0  0  0  0  0  0  0  0  0  0  0
    7.9876    9.0491   23.3307 H   0  0  0  0  0  0  0  0  0  0  0  0
    5.9015    6.6873   27.5354 H   0  0  0  0  0  0  0  0  0  0  0  0
    7.6232    6.7935   27.9672 H   0  0  0  0  0  0  0  0  0  0  0  0
    6.4022    6.3712   29.1874 H   0  0  0  0  0  0  0  0  0  0  0  0
    7.2695    9.9716   29.9841 H   0  0  0  0  0  0  0  0  0  0  0  0
    8.4356    8.8009   29.3937 H   0  0  0  0  0  0  0  0  0  0  0  0
    7.2757    8.3251   30.6538 H   0  0  0  0  0  0  0  0  0  0  0  0
    4.8445    9.8201   29.3307 H   0  0  0  0  0  0  0  0  0  0  0  0
    4.2620    8.4901   28.3064 H   0  0  0  0  0  0  0  0  0  0  0  0
    4.7317    8.2003   29.9969 H   0  0  0  0  0  0  0  0  0  0  0  0
    5.7864    9.7221   24.4661 H   0  0  0  0  0  0  0  0  0  0  0  0
    9.3046   12.1069   21.2716 H   0  0  0  0  0  0  0  0  0  0  0  0
   10.0775    8.3833   23.7755 H   0  0  0  0  0  0  0  0  0  0  0  0
  1 14  1  0  0  0  0
  1 15  2  0  0  0  0
  1 18  1  0  0  0  0
  2  3  1  0  0  0  0
  2  5  1  0  0  0  0
  3  6  1  1  0  0  0
  4  5  1  6  0  0  0
  4  7  1  0  0  0  0
  5  8  1  0  0  0  0
  6  7  1  0  0  0  0
  6  9  1  0  0  0  0
  7 14  1  6  0  0  0
  8  9  1  0  0  0  0
  8 16  1  1  0  0  0
  9 17  1  1  0  0  0
 10 13  1  0  0  0  0
 11 13  1  0  0  0  0
 12 13  1  0  0  0  0
 13 18  1  0  0  0  0
  2 19  1  0  0  0  0
  2 20  1  0  0  0  0
  3 21  1  0  0  0  0
  3 22  1  0  0  0  0
  4 23  1  0  0  0  0
  4 24  1  0  0  0  0
  5 25  1  0  0  0  0
  6 26  1  0  0  0  0
  7 27  1  0  0  0  0
  8 28  1  0  0  0  0
  9 29  1  0  0  0  0
 10 30  1  0  0  0  0
 10 31  1  0  0  0  0
 10 32  1  0  0  0  0
 11 33  1  0  0  0  0
 11 34  1  0  0  0  0
 11 35  1  0  0  0  0
 12 36  1  0  0  0  0
 12 37  1  0  0  0  0
 12 38  1  0  0  0  0
 14 39  1  0  0  0  0
 16 40  1  0  0  0  0
 17 41  1  0  0  0  0
M  END
> <id>
EN300-28228780

> <smiles>
CC(C)(C)OC(=O)N[C@@H]1C[C@H]2CC[C@@H]1[C@H](O)[C@@H]2O |&1:8,10,13,14,16,r|

> <IUPAC Name>
rac-tert-butyl N-[(1R,2S,4S,5S,6R)-5,6-dihydroxybicyclo[2.2.2]octan-2-yl]carbamate

> <CAS>
2188213-18-3

> <URL>
https://www.enaminestore.com/catalog/EN300-28228780

> <ROCS_ShapeQuery>
x0812_0A_x1140_0A_x1097_0A_x0365_0A_x1097_0A_x0310_0A

> <ROCS_TanimotoCombo>
0.695 

> <ROCS_ShapeTanimoto>
0.206 

> <ROCS_ColorTanimoto>
0.489 

> <ROCS_RefTversky>
0.192 

> <ROCS_RefColorTversky>
0.615 

> <ROCS_RefTverskyCombo>
0.807 

> <ROCS_FitTversky>
1.521 

> <ROCS_FitColorTversky>
0.706 

> <ROCS_FitTverskyCombo>
2.227 

> <ROCS_ColorScore>
-9.239

> <ROCS_Overlap>
1944.310

> <ROCS_Rank>
439                 

$$$$
untitled-dbase-380955_5
  -OEChem-02092408543D

 37 39  0     0  0  0  0  0  0999 V2000
   12.4559   15.4599   21.9353 C   0  0  0  0  0  0  0  0  0  0  0  0
   10.8904   13.7612   22.8438 C   0  0  0  0  0  0  0  0  0  0  0  0
    6.8582   10.4118   23.6036 C   0  0  0  0  0  0  0  0  0  0  0  0
    7.6881   11.5737   25.6653 C   0  0  0  0  0  0  0  0  0  0  0  0
    8.7249    9.4072   24.9439 C   0  0  0  0  0  0  0  0  0  0  0  0
    8.1519   12.5505   23.4030 C   0  0  0  0  0  0  0  0  0  0  0  0
    9.1896   10.3817   22.6809 C   0  0  0  0  0  0  0  0  0  0  0  0
   10.0211   11.5448   24.7459 C   0  0  0  0  0  0  0  0  0  0  0  0
    7.1229   11.7821   24.2500 C   0  0  0  0  0  0  0  0  0  0  0  0
    8.1649    9.6044   23.5249 C   0  0  0  0  0  0  0  0  0  0  0  0
    8.9992   10.7722   25.5977 C   0  0  0  0  0  0  0  0  0  0  0  0
    9.4763   11.7599   23.3173 C   0  0  0  0  0  0  0  0  0  0  0  0
   13.3799   15.6774   20.7640 C   0  0  0  0  0  0  0  0  0  0  0  0
   11.8181   14.2214   21.8971 N   0  0  0  0  0  0  0  0  0  0  0  0
   10.4398   12.4843   22.5180 N   0  0  0  0  0  0  0  0  0  0  0  0
   12.2948   16.3182   22.8007 O   0  0  0  0  0  0  0  0  0  0  0  0
   10.5244   14.3994   23.8295 O   0  0  0  0  0  0  0  0  0  0  0  0
   13.2780   14.2509   19.7202 Cl  0  0  0  0  0  0  0  0  0  0  0  0
    6.1119    9.8600   24.1879 H   0  0  0  0  0  0  0  0  0  0  0  0
    6.4395   10.5460   22.5986 H   0  0  0  0  0  0  0  0  0  0  0  0
    7.8664   12.5444   26.1442 H   0  0  0  0  0  0  0  0  0  0  0  0
    6.9564   11.0420   26.2860 H   0  0  0  0  0  0  0  0  0  0  0  0
    8.0111    8.8378   25.5521 H   0  0  0  0  0  0  0  0  0  0  0  0
    9.6492    8.8182   24.9033 H   0  0  0  0  0  0  0  0  0  0  0  0
    7.7433   12.7206   22.3983 H   0  0  0  0  0  0  0  0  0  0  0  0
    8.3270   13.5388   23.8479 H   0  0  0  0  0  0  0  0  0  0  0  0
   10.1163    9.7985   22.6020 H   0  0  0  0  0  0  0  0  0  0  0  0
    8.8038   10.5062   21.6606 H   0  0  0  0  0  0  0  0  0  0  0  0
   10.2371   12.5109   25.2203 H   0  0  0  0  0  0  0  0  0  0  0  0
   10.9659   10.9866   24.7140 H   0  0  0  0  0  0  0  0  0  0  0  0
    6.1885   12.3516   24.3047 H   0  0  0  0  0  0  0  0  0  0  0  0
    7.9703    8.6291   23.0649 H   0  0  0  0  0  0  0  0  0  0  0  0
    9.3956   10.6251   26.6085 H   0  0  0  0  0  0  0  0  0  0  0  0
   13.0528   16.5564   20.2020 H   0  0  0  0  0  0  0  0  0  0  0  0
   14.4204   15.8160   21.0683 H   0  0  0  0  0  0  0  0  0  0  0  0
   12.0427   13.6029   21.1227 H   0  0  0  0  0  0  0  0  0  0  0  0
   10.7687   12.0523   21.6613 H   0  0  0  0  0  0  0  0  0  0  0  0
  1 13  1  0  0  0  0
  1 14  1  0  0  0  0
  1 16  2  0  0  0  0
  2 14  1  0  0  0  0
  2 15  1  0  0  0  0
  2 17  2  0  0  0  0
  3  9  1  0  0  0  0
  3 10  1  0  0  0  0
  4  9  1  0  0  0  0
  4 11  1  0  0  0  0
  5 10  1  0  0  0  0
  5 11  1  0  0  0  0
  6  9  1  0  0  0  0
  6 12  1  0  0  0  0
  7 10  1  0  0  0  0
  7 12  1  0  0  0  0
  8 11  1  0  0  0  0
  8 12  1  0  0  0  0
 12 15  1  0  0  0  0
 13 18  1  0  0  0  0
  3 19  1  0  0  0  0
  3 20  1  0  0  0  0
  4 21  1  0  0  0  0
  4 22  1  0  0  0  0
  5 23  1  0  0  0  0
  5 24  1  0  0  0  0
  6 25  1  0  0  0  0
  6 26  1  0  0  0  0
  7 27  1  0  0  0  0
  7 28  1  0  0  0  0
  8 29  1  0  0  0  0
  8 30  1  0  0  0  0
  9 31  1  0  0  0  0
 10 32  1  0  0  0  0
 11 33  1  0  0  0  0
 13 34  1  0  0  0  0
 13 35  1  0  0  0  0
 14 36  1  0  0  0  0
 15 37  1  0  0  0  0
M  END
> <id>
EN300-08176

> <smiles>
ClCC(=O)NC(=O)NC1(CC2CC3CC(C2)C1)C3

> <MDLNUMBER>
MFCD03961692

> <IUPAC Name>
1-(adamantan-1-yl)-3-(2-chloroacetyl)urea

> <CAS>
725711-03-5

> <Purity>
95

> <URL>
https://www.enaminestore.com/catalog/EN300-08176

> <ROCS_ShapeQuery>
x0812_0A_x1140_0A_x1097_0A_x0365_0A_x1097_0A_x0310_0A

> <ROCS_TanimotoCombo>
0.695 

> <ROCS_ShapeTanimoto>
0.238 

> <ROCS_ColorTanimoto>
0.457 

> <ROCS_RefTversky>
0.217 

> <ROCS_RefColorTversky>
0.539 

> <ROCS_RefTverskyCombo>
0.756 

> <ROCS_FitTversky>
1.704 

> <ROCS_FitColorTversky>
0.750 

> <ROCS_FitTverskyCombo>
2.454 

> <ROCS_ColorScore>
-8.031

> <ROCS_Overlap>
2195.886

> <ROCS_Rank>
440                 

$$$$
untitled-dbase-498619_7
  -OEChem-02092408543D

 39 41  0     1  0  0  0  0  0999 V2000
    4.2573    9.7330   32.7839 C   0  0  0  0  0  0  0  0  0  0  0  0
    3.9544   11.0916   32.6944 C   0  0  0  0  0  0  0  0  0  0  0  0
    4.5265    9.0008   31.6275 C   0  0  0  0  0  0  0  0  0  0  0  0
    3.9207   11.7180   31.4486 C   0  0  0  0  0  0  0  0  0  0  0  0
    4.4928    9.6272   30.3817 C   0  0  0  0  0  0  0  0  0  0  0  0
    4.1899   10.9858   30.2922 C   0  0  0  0  0  0  0  0  0  0  0  0
    5.1558   11.5099   26.8075 C   0  0  0  0  0  0  0  0  0  0  0  0
    7.1713   12.3765   24.4478 C   0  0  0  0  0  0  0  0  0  0  0  0
    8.7917    9.8321   24.9945 C   0  0  0  0  0  0  0  0  0  0  0  0
    8.0940   11.6067   23.4653 C   0  0  2  0  0  0  0  0  0  0  0  0
    7.6112   10.2906   24.1311 C   0  0  2  0  0  0  0  0  0  0  0  0
    6.3990   11.0670   24.6955 C   0  0  1  0  0  0  0  0  0  0  0  0
    9.9982   10.2953   24.1857 C   0  0  2  0  0  0  0  0  0  0  0  0
    9.5965   11.6955   23.7250 C   0  0  1  0  0  0  0  0  0  0  0  0
    4.1535   11.6590   28.9517 C   0  0  0  0  0  0  0  0  0  0  0  0
    6.0746   10.7875   26.0856 N   0  0  0  0  0  0  0  0  0  0  0  0
    4.5005   12.4614   26.3954 O   0  0  0  0  0  0  0  0  0  0  0  0
   10.1781    9.4145   23.0812 O   0  0  0  0  0  0  0  0  0  0  0  0
   10.2944   12.0737   22.5511 O   0  0  0  0  0  0  0  0  0  0  0  0
    5.0770   11.0044   28.0746 O   0  0  0  0  0  0  0  0  0  0  0  0
    4.2848    9.2456   33.7541 H   0  0  0  0  0  0  0  0  0  0  0  0
    3.7458   11.6621   33.5947 H   0  0  0  0  0  0  0  0  0  0  0  0
    4.7635    7.9432   31.6969 H   0  0  0  0  0  0  0  0  0  0  0  0
    3.6835   12.7770   31.3884 H   0  0  0  0  0  0  0  0  0  0  0  0
    4.7038    9.0488   29.4861 H   0  0  0  0  0  0  0  0  0  0  0  0
    7.6761   12.7796   25.3339 H   0  0  0  0  0  0  0  0  0  0  0  0
    6.5833   13.1792   23.9926 H   0  0  0  0  0  0  0  0  0  0  0  0
    8.7854   10.3236   25.9737 H   0  0  0  0  0  0  0  0  0  0  0  0
    8.7722    8.7475   25.1387 H   0  0  0  0  0  0  0  0  0  0  0  0
    7.7881   11.6921   22.4155 H   0  0  0  0  0  0  0  0  0  0  0  0
    7.3303    9.5179   23.4034 H   0  0  0  0  0  0  0  0  0  0  0  0
    5.5091   10.9749   24.0591 H   0  0  0  0  0  0  0  0  0  0  0  0
   10.9226   10.2941   24.7707 H   0  0  0  0  0  0  0  0  0  0  0  0
    9.8155   12.4276   24.5092 H   0  0  0  0  0  0  0  0  0  0  0  0
    3.1500   11.6092   28.5154 H   0  0  0  0  0  0  0  0  0  0  0  0
    4.4297   12.7152   29.0406 H   0  0  0  0  0  0  0  0  0  0  0  0
    6.5499   10.0221   26.5441 H   0  0  0  0  0  0  0  0  0  0  0  0
   10.3241    8.5303   23.4525 H   0  0  0  0  0  0  0  0  0  0  0  0
    9.9521   12.9437   22.2842 H   0  0  0  0  0  0  0  0  0  0  0  0
  1  2  1  0  0  0  0
  1  3  2  0  0  0  0
  2  4  2  0  0  0  0
  3  5  1  0  0  0  0
  4  6  1  0  0  0  0
  5  6  2  0  0  0  0
  6 15  1  0  0  0  0
  7 16  1  0  0  0  0
  7 17  2  0  0  0  0
  7 20  1  0  0  0  0
  8 10  1  1  0  0  0
  8 12  1  0  0  0  0
  9 11  1  1  0  0  0
  9 13  1  0  0  0  0
 10 11  1  0  0  0  0
 10 14  1  0  0  0  0
 11 12  1  0  0  0  0
 12 16  1  1  0  0  0
 13 14  1  0  0  0  0
 13 18  1  6  0  0  0
 14 19  1  6  0  0  0
 15 20  1  0  0  0  0
  1 21  1  0  0  0  0
  2 22  1  0  0  0  0
  3 23  1  0  0  0  0
  4 24  1  0  0  0  0
  5 25  1  0  0  0  0
  8 26  1  0  0  0  0
  8 27  1  0  0  0  0
  9 28  1  0  0  0  0
  9 29  1  0  0  0  0
 10 30  1  0  0  0  0
 11 31  1  0  0  0  0
 12 32  1  0  0  0  0
 13 33  1  0  0  0  0
 14 34  1  0  0  0  0
 15 35  1  0  0  0  0
 15 36  1  0  0  0  0
 16 37  1  0  0  0  0
 18 38  1  0  0  0  0
 19 39  1  0  0  0  0
M  END
> <id>
EN300-28285077

> <smiles>
O[C@@H]1C[C@H]2[C@H](C[C@H]2[C@@H]1O)NC(=O)OCC=3C=CC=CC3 |&1:1,3,4,6,7,r|

> <IUPAC Name>
rac-benzyl N-[(1R,2S,3R,5R,6S)-2,3-dihydroxybicyclo[3.2.0]heptan-6-yl]carbamate

> <CAS>
2679831-08-2

> <URL>
https://www.enaminestore.com/catalog/EN300-28285077

> <ROCS_ShapeQuery>
x0812_0A_x1140_0A_x1097_0A_x0365_0A_x1097_0A_x0310_0A

> <ROCS_TanimotoCombo>
0.695 

> <ROCS_ShapeTanimoto>
0.215 

> <ROCS_ColorTanimoto>
0.480 

> <ROCS_RefTversky>
0.201 

> <ROCS_RefColorTversky>
0.592 

> <ROCS_RefTverskyCombo>
0.793 

> <ROCS_FitTversky>
1.478 

> <ROCS_FitColorTversky>
0.717 

> <ROCS_FitTverskyCombo>
2.195 

> <ROCS_ColorScore>
-8.874

> <ROCS_Overlap>
2034.676

> <ROCS_Rank>
441                 

$$$$
untitled-dbase-515910_1
  -OEChem-02092408543D

 30 32  0     1  0  0  0  0  0999 V2000
    6.6995   10.8889   24.8749 C   0  0  0  0  0  0  0  0  0  0  0  0
    7.5160   12.4415   23.0817 C   0  0  0  0  0  0  0  0  0  0  0  0
    8.5946   12.4614   25.3523 C   0  0  0  0  0  0  0  0  0  0  0  0
    7.9462    9.9785   22.9005 C   0  0  0  0  0  0  0  0  0  0  0  0
    9.0243    9.9990   25.1650 C   0  0  0  0  0  0  0  0  0  0  0  0
    9.8469   11.5512   23.3741 C   0  0  0  0  0  0  0  0  0  0  0  0
    6.9392   11.0425   23.3634 C   0  0  1  0  0  0  0  0  0  0  0  0
    8.0222   11.0621   25.6405 C   0  0  2  0  0  0  0  0  0  0  0  0
    8.8522   12.6400   23.8369 C   0  0  0  0  0  0  0  0  0  0  0  0
    9.2753   10.1500   23.6557 C   0  0  0  0  0  0  0  0  0  0  0  0
    9.4203   14.0334   23.5551 C   0  0  0  0  0  0  0  0  0  0  0  0
   10.1890    9.1561   23.2142 O   0  0  0  0  0  0  0  0  0  0  0  0
   11.0654   14.2690   24.5516 Br  0  0  0  0  0  0  0  0  0  0  0  0
    5.9694   11.6330   25.2160 H   0  0  0  0  0  0  0  0  0  0  0  0
    6.2710    9.9015   25.0872 H   0  0  0  0  0  0  0  0  0  0  0  0
    7.6689   12.5658   22.0018 H   0  0  0  0  0  0  0  0  0  0  0  0
    6.7907   13.2066   23.3873 H   0  0  0  0  0  0  0  0  0  0  0  0
    7.8939   13.2266   25.7106 H   0  0  0  0  0  0  0  0  0  0  0  0
    9.5272   12.6004   25.9143 H   0  0  0  0  0  0  0  0  0  0  0  0
    7.5440    8.9709   23.0678 H   0  0  0  0  0  0  0  0  0  0  0  0
    8.1142   10.0544   21.8183 H   0  0  0  0  0  0  0  0  0  0  0  0
    9.9687   10.0898   25.7174 H   0  0  0  0  0  0  0  0  0  0  0  0
    8.6485    8.9916   25.3860 H   0  0  0  0  0  0  0  0  0  0  0  0
   10.0654   11.6543   22.3027 H   0  0  0  0  0  0  0  0  0  0  0  0
   10.8136   11.6690   23.8822 H   0  0  0  0  0  0  0  0  0  0  0  0
    5.9937   10.9169   22.8244 H   0  0  0  0  0  0  0  0  0  0  0  0
    7.8449   10.9494   26.7158 H   0  0  0  0  0  0  0  0  0  0  0  0
    8.7258   14.8027   23.8781 H   0  0  0  0  0  0  0  0  0  0  0  0
    9.6541   14.1456   22.5009 H   0  0  0  0  0  0  0  0  0  0  0  0
   11.0135    9.2927   23.7088 H   0  0  0  0  0  0  0  0  0  0  0  0
  1  7  1  0  0  0  0
  1  8  1  0  0  0  0
  2  7  1  0  0  0  0
  2  9  1  0  0  0  0
  3  8  1  0  0  0  0
  3  9  1  0  0  0  0
  4  7  1  0  0  0  0
  4 10  1  0  0  0  0
  5  8  1  0  0  0  0
  5 10  1  0  0  0  0
  6  9  1  0  0  0  0
  6 10  1  0  0  0  0
  9 11  1  0  0  0  0
 10 12  1  0  0  0  0
 11 13  1  0  0  0  0
  1 14  1  0  0  0  0
  1 15  1  0  0  0  0
  2 16  1  0  0  0  0
  2 17  1  0  0  0  0
  3 18  1  0  0  0  0
  3 19  1  0  0  0  0
  4 20  1  0  0  0  0
  4 21  1  0  0  0  0
  5 22  1  0  0  0  0
  5 23  1  0  0  0  0
  6 24  1  0  0  0  0
  6 25  1  0  0  0  0
  7 26  1  0  0  0  0
  8 27  1  0  0  0  0
 11 28  1  0  0  0  0
 11 29  1  0  0  0  0
 12 30  1  0  0  0  0
M  END
> <id>
EN300-8208552

> <smiles>
OC1(CC2CC3C1)CC(CBr)(C2)C3

> <IUPAC Name>
3-(bromomethyl)adamantan-1-ol

> <CAS>
27011-61-6

> <Purity>
95

> <URL>
https://www.enaminestore.com/catalog/EN300-8208552

> <MP>
87-88

> <ROCS_ShapeQuery>
x0812_0A_x1140_0A_x1097_0A_x0365_0A_x1097_0A_x0310_0A

> <ROCS_TanimotoCombo>
0.695 

> <ROCS_ShapeTanimoto>
0.221 

> <ROCS_ColorTanimoto>
0.474 

> <ROCS_RefTversky>
0.200 

> <ROCS_RefColorTversky>
0.532 

> <ROCS_RefTverskyCombo>
0.733 

> <ROCS_FitTversky>
1.891 

> <ROCS_FitColorTversky>
0.811 

> <ROCS_FitTverskyCombo>
2.702 

> <ROCS_ColorScore>
-7.907

> <ROCS_Overlap>
2025.820

> <ROCS_Rank>
442                 

$$$$
untitled-dbase-347781_4
  -OEChem-02092408543D

 32 33  0     1  0  0  0  0  0999 V2000
    8.5683   13.6385   25.0520 C   0  0  0  0  0  0  0  0  0  0  0  0
    7.3798   11.8958   23.6281 C   0  0  0  0  0  0  0  0  0  0  0  0
    8.7752   10.2653   25.5127 C   0  0  0  0  0  0  0  0  0  0  0  0
    9.4511   11.3115   24.6257 C   0  0  1  0  0  0  0  0  0  0  0  0
    7.8503   10.4530   23.3986 C   0  0  1  0  0  0  0  0  0  0  0  0
    9.3593   10.6331   23.2685 C   0  0  2  0  0  0  0  0  0  0  0  0
    9.8526   16.1570   25.4675 C   0  0  0  0  0  0  0  0  0  0  0  0
   11.8168   14.8142   26.2725 C   0  0  0  0  0  0  0  0  0  0  0  0
   11.0208   14.5688   23.9030 C   0  0  0  0  0  0  0  0  0  0  0  0
   10.6008   14.8300   25.3488 C   0  0  0  0  0  0  0  0  0  0  0  0
    8.4761   12.3958   24.4635 N   0  0  0  0  0  0  0  0  0  0  0  0
    7.7166   14.5178   24.9501 O   0  0  0  0  0  0  0  0  0  0  0  0
    7.7046    9.7578   24.6693 O   0  0  0  0  0  0  0  0  0  0  0  0
   10.0581    9.4088   23.2020 O   0  0  0  0  0  0  0  0  0  0  0  0
    9.7273   13.7754   25.7674 O   0  0  0  0  0  0  0  0  0  0  0  0
    7.3408   12.4876   22.7088 H   0  0  0  0  0  0  0  0  0  0  0  0
    6.4391   11.9705   24.1810 H   0  0  0  0  0  0  0  0  0  0  0  0
    9.4388    9.4312   25.7615 H   0  0  0  0  0  0  0  0  0  0  0  0
    8.3521   10.6763   26.4346 H   0  0  0  0  0  0  0  0  0  0  0  0
   10.4315   11.6397   24.9744 H   0  0  0  0  0  0  0  0  0  0  0  0
    7.3460    9.9042   22.6016 H   0  0  0  0  0  0  0  0  0  0  0  0
    9.6606   11.2754   22.4334 H   0  0  0  0  0  0  0  0  0  0  0  0
    8.9790   16.1724   24.8060 H   0  0  0  0  0  0  0  0  0  0  0  0
    9.5154   16.3397   26.4930 H   0  0  0  0  0  0  0  0  0  0  0  0
   10.4892   16.9939   25.1583 H   0  0  0  0  0  0  0  0  0  0  0  0
   12.3567   13.8639   26.1905 H   0  0  0  0  0  0  0  0  0  0  0  0
   11.5116   14.9064   27.3211 H   0  0  0  0  0  0  0  0  0  0  0  0
   12.5110   15.6284   26.0405 H   0  0  0  0  0  0  0  0  0  0  0  0
   11.5575   13.6170   23.8176 H   0  0  0  0  0  0  0  0  0  0  0  0
   10.1570   14.5400   23.2310 H   0  0  0  0  0  0  0  0  0  0  0  0
   11.7099   15.3450   23.5512 H   0  0  0  0  0  0  0  0  0  0  0  0
    9.9401    9.0558   22.3021 H   0  0  0  0  0  0  0  0  0  0  0  0
  1 11  1  0  0  0  0
  1 12  2  0  0  0  0
  1 15  1  0  0  0  0
  2  5  1  0  0  0  0
  2 11  1  0  0  0  0
  3  4  1  0  0  0  0
  3 13  1  0  0  0  0
  4  6  1  0  0  0  0
  4 11  1  0  0  0  0
  5  6  1  0  0  0  0
  5 13  1  1  0  0  0
  6 14  1  6  0  0  0
  7 10  1  0  0  0  0
  8 10  1  0  0  0  0
  9 10  1  0  0  0  0
 10 15  1  0  0  0  0
  2 16  1  0  0  0  0
  2 17  1  0  0  0  0
  3 18  1  0  0  0  0
  3 19  1  0  0  0  0
  4 20  1  0  0  0  0
  5 21  1  0  0  0  0
  6 22  1  0  0  0  0
  7 23  1  0  0  0  0
  7 24  1  0  0  0  0
  7 25  1  0  0  0  0
  8 26  1  0  0  0  0
  8 27  1  0  0  0  0
  8 28  1  0  0  0  0
  9 29  1  0  0  0  0
  9 30  1  0  0  0  0
  9 31  1  0  0  0  0
 14 32  1  0  0  0  0
M  END
> <id>
EN300-26666016

> <smiles>
CC(C)(C)OC(=O)N1C[C@@H]2OCC1[C@H]2O

> <IUPAC Name>
tert-butyl (1S,7R)-7-hydroxy-2-oxa-5-azabicyclo[2.2.1]heptane-5-carboxylate

> <CAS>
2413864-23-8

> <URL>
https://www.enaminestore.com/catalog/EN300-26666016

> <ROCS_ShapeQuery>
x0812_0A_x1140_0A_x1097_0A_x0365_0A_x1097_0A_x0310_0A

> <ROCS_TanimotoCombo>
0.695 

> <ROCS_ShapeTanimoto>
0.188 

> <ROCS_ColorTanimoto>
0.507 

> <ROCS_RefTversky>
0.176 

> <ROCS_RefColorTversky>
0.598 

> <ROCS_RefTverskyCombo>
0.774 

> <ROCS_FitTversky>
1.518 

> <ROCS_FitColorTversky>
0.769 

> <ROCS_FitTverskyCombo>
2.287 

> <ROCS_ColorScore>
-8.942

> <ROCS_Overlap>
1784.864

> <ROCS_Rank>
443                 

$$$$
untitled-dbase-301167_2
  -OEChem-02092408543D

 28 29  0     1  0  0  0  0  0999 V2000
    8.1356    9.8512   25.6013 C   0  0  0  0  0  0  0  0  0  0  0  0
    7.1925    9.6791   24.4015 C   0  0  0  0  0  0  0  0  0  0  0  0
    7.5723   12.0058   24.7537 C   0  0  0  0  0  0  0  0  0  0  0  0
    9.9739   11.3326   24.6012 C   0  0  0  0  0  0  0  0  0  0  0  0
    8.3920   11.0483   22.5969 C   0  0  0  0  0  0  0  0  0  0  0  0
    8.7013   11.2718   25.4710 C   0  0  2  0  0  0  0  0  0  0  0  0
    7.2575   11.0105   23.6410 C   0  0  1  0  0  0  0  0  0  0  0  0
    9.7920   10.7535   23.1811 C   0  0  0  0  0  0  0  0  0  0  0  0
   10.8885   11.2755   22.2478 C   0  0  0  0  0  0  0  0  0  0  0  0
   10.8182   12.6945   22.1751 N   0  0  0  0  0  0  0  0  0  0  0  0
    9.9728    9.3342   23.2627 O   0  0  0  0  0  0  0  0  0  0  0  0
    7.5558    9.7638   26.5283 H   0  0  0  0  0  0  0  0  0  0  0  0
    8.9139    9.0830   25.6369 H   0  0  0  0  0  0  0  0  0  0  0  0
    7.4574    8.8190   23.7791 H   0  0  0  0  0  0  0  0  0  0  0  0
    6.1730    9.5076   24.7683 H   0  0  0  0  0  0  0  0  0  0  0  0
    6.7084   12.1363   25.4169 H   0  0  0  0  0  0  0  0  0  0  0  0
    7.8682   12.9914   24.3800 H   0  0  0  0  0  0  0  0  0  0  0  0
   10.2770   12.3856   24.5314 H   0  0  0  0  0  0  0  0  0  0  0  0
   10.7812   10.8000   25.1200 H   0  0  0  0  0  0  0  0  0  0  0  0
    8.1591   10.3324   21.7987 H   0  0  0  0  0  0  0  0  0  0  0  0
    8.3895   12.0472   22.1413 H   0  0  0  0  0  0  0  0  0  0  0  0
    8.9094   11.7086   26.4532 H   0  0  0  0  0  0  0  0  0  0  0  0
    6.3041   11.2368   23.1525 H   0  0  0  0  0  0  0  0  0  0  0  0
   11.8404   10.9565   22.6655 H   0  0  0  0  0  0  0  0  0  0  0  0
   10.7145   10.8293   21.2716 H   0  0  0  0  0  0  0  0  0  0  0  0
   10.6895   12.9887   21.2228 H   0  0  0  0  0  0  0  0  0  0  0  0
   10.0469   13.0331   22.7233 H   0  0  0  0  0  0  0  0  0  0  0  0
   10.8705    9.1968   23.5965 H   0  0  0  0  0  0  0  0  0  0  0  0
  1  2  1  0  0  0  0
  1  6  1  0  0  0  0
  2  7  1  0  0  0  0
  3  6  1  0  0  0  0
  3  7  1  0  0  0  0
  4  6  1  0  0  0  0
  4  8  1  0  0  0  0
  5  7  1  0  0  0  0
  5  8  1  0  0  0  0
  8  9  1  0  0  0  0
  8 11  1  0  0  0  0
  9 10  1  0  0  0  0
  1 12  1  0  0  0  0
  1 13  1  0  0  0  0
  2 14  1  0  0  0  0
  2 15  1  0  0  0  0
  3 16  1  0  0  0  0
  3 17  1  0  0  0  0
  4 18  1  0  0  0  0
  4 19  1  0  0  0  0
  5 20  1  0  0  0  0
  5 21  1  0  0  0  0
  6 22  1  0  0  0  0
  7 23  1  0  0  0  0
  9 24  1  0  0  0  0
  9 25  1  0  0  0  0
 10 26  1  0  0  0  0
 10 27  1  0  0  0  0
 11 28  1  0  0  0  0
M  END
> <id>
EN300-6735771

> <smiles>
Cl.NCC1(O)CC2CCC(C2)C1

> <MDLNUMBER>
MFCD31737307

> <IUPAC Name>
3-(aminomethyl)bicyclo[3.2.1]octan-3-ol hydrochloride

> <CAS>
2260937-53-7

> <Purity>
95

> <URL>
https://www.enaminestore.com/catalog/EN300-6735771

> <Saltdate>
Cl

> <ROCS_ShapeQuery>
x0812_0A_x1140_0A_x1097_0A_x0365_0A_x1097_0A_x0310_0A

> <ROCS_TanimotoCombo>
0.695 

> <ROCS_ShapeTanimoto>
0.198 

> <ROCS_ColorTanimoto>
0.497 

> <ROCS_RefTversky>
0.181 

> <ROCS_RefColorTversky>
0.556 

> <ROCS_RefTverskyCombo>
0.737 

> <ROCS_FitTversky>
1.868 

> <ROCS_FitColorTversky>
0.823 

> <ROCS_FitTverskyCombo>
2.691 

> <ROCS_ColorScore>
-8.267

> <ROCS_Overlap>
1832.447

> <ROCS_Rank>
444                 

$$$$
untitled-dbase-301981_2
  -OEChem-02092408543D

 28 29  0     1  0  0  0  0  0999 V2000
    8.1356    9.8512   25.6013 C   0  0  0  0  0  0  0  0  0  0  0  0
    7.1925    9.6791   24.4015 C   0  0  0  0  0  0  0  0  0  0  0  0
    7.5723   12.0058   24.7537 C   0  0  0  0  0  0  0  0  0  0  0  0
    9.9739   11.3326   24.6012 C   0  0  0  0  0  0  0  0  0  0  0  0
    8.3920   11.0483   22.5969 C   0  0  0  0  0  0  0  0  0  0  0  0
    8.7013   11.2718   25.4710 C   0  0  2  0  0  0  0  0  0  0  0  0
    7.2575   11.0105   23.6410 C   0  0  1  0  0  0  0  0  0  0  0  0
    9.7920   10.7535   23.1811 C   0  0  0  0  0  0  0  0  0  0  0  0
   10.8885   11.2755   22.2478 C   0  0  0  0  0  0  0  0  0  0  0  0
   10.8182   12.6945   22.1751 N   0  0  0  0  0  0  0  0  0  0  0  0
    9.9728    9.3342   23.2627 O   0  0  0  0  0  0  0  0  0  0  0  0
    7.5558    9.7638   26.5283 H   0  0  0  0  0  0  0  0  0  0  0  0
    8.9139    9.0830   25.6369 H   0  0  0  0  0  0  0  0  0  0  0  0
    7.4574    8.8190   23.7791 H   0  0  0  0  0  0  0  0  0  0  0  0
    6.1730    9.5076   24.7683 H   0  0  0  0  0  0  0  0  0  0  0  0
    6.7084   12.1363   25.4169 H   0  0  0  0  0  0  0  0  0  0  0  0
    7.8682   12.9914   24.3800 H   0  0  0  0  0  0  0  0  0  0  0  0
   10.2770   12.3856   24.5314 H   0  0  0  0  0  0  0  0  0  0  0  0
   10.7812   10.8000   25.1200 H   0  0  0  0  0  0  0  0  0  0  0  0
    8.1591   10.3324   21.7987 H   0  0  0  0  0  0  0  0  0  0  0  0
    8.3895   12.0472   22.1413 H   0  0  0  0  0  0  0  0  0  0  0  0
    8.9094   11.7086   26.4532 H   0  0  0  0  0  0  0  0  0  0  0  0
    6.3041   11.2368   23.1525 H   0  0  0  0  0  0  0  0  0  0  0  0
   11.8404   10.9565   22.6655 H   0  0  0  0  0  0  0  0  0  0  0  0
   10.7145   10.8293   21.2716 H   0  0  0  0  0  0  0  0  0  0  0  0
   10.6895   12.9887   21.2228 H   0  0  0  0  0  0  0  0  0  0  0  0
   10.0469   13.0331   22.7233 H   0  0  0  0  0  0  0  0  0  0  0  0
   10.8705    9.1968   23.5965 H   0  0  0  0  0  0  0  0  0  0  0  0
  1  2  1  0  0  0  0
  1  6  1  0  0  0  0
  2  7  1  0  0  0  0
  3  6  1  0  0  0  0
  3  7  1  0  0  0  0
  4  6  1  0  0  0  0
  4  8  1  0  0  0  0
  5  7  1  0  0  0  0
  5  8  1  0  0  0  0
  8  9  1  0  0  0  0
  8 11  1  0  0  0  0
  9 10  1  0  0  0  0
  1 12  1  0  0  0  0
  1 13  1  0  0  0  0
  2 14  1  0  0  0  0
  2 15  1  0  0  0  0
  3 16  1  0  0  0  0
  3 17  1  0  0  0  0
  4 18  1  0  0  0  0
  4 19  1  0  0  0  0
  5 20  1  0  0  0  0
  5 21  1  0  0  0  0
  6 22  1  0  0  0  0
  7 23  1  0  0  0  0
  9 24  1  0  0  0  0
  9 25  1  0  0  0  0
 10 26  1  0  0  0  0
 10 27  1  0  0  0  0
 11 28  1  0  0  0  0
M  END
> <id>
EN300-2918334

> <smiles>
NCC1(O)CC2CCC(C2)C1

> <MDLNUMBER>
MFCD24502278

> <IUPAC Name>
3-(aminomethyl)bicyclo[3.2.1]octan-3-ol

> <CAS>
23174-43-8

> <URL>
https://www.enaminestore.com/catalog/EN300-2918334

> <ROCS_ShapeQuery>
x0812_0A_x1140_0A_x1097_0A_x0365_0A_x1097_0A_x0310_0A

> <ROCS_TanimotoCombo>
0.695 

> <ROCS_ShapeTanimoto>
0.198 

> <ROCS_ColorTanimoto>
0.497 

> <ROCS_RefTversky>
0.181 

> <ROCS_RefColorTversky>
0.556 

> <ROCS_RefTverskyCombo>
0.737 

> <ROCS_FitTversky>
1.868 

> <ROCS_FitColorTversky>
0.823 

> <ROCS_FitTverskyCombo>
2.691 

> <ROCS_ColorScore>
-8.267

> <ROCS_Overlap>
1832.447

> <ROCS_Rank>
445                 

$$$$
untitled-dbase-480171_4
  -OEChem-02092408543D

 32 33  0     1  0  0  0  0  0999 V2000
    8.5674   13.6381   25.0530 C   0  0  0  0  0  0  0  0  0  0  0  0
    7.3799   11.8959   23.6276 C   0  0  0  0  0  0  0  0  0  0  0  0
    8.7752   10.2653   25.5126 C   0  0  0  0  0  0  0  0  0  0  0  0
    9.4511   11.3116   24.6256 C   0  0  1  0  0  0  0  0  0  0  0  0
    7.8504   10.4530   23.3984 C   0  0  1  0  0  0  0  0  0  0  0  0
    9.3594   10.6331   23.2684 C   0  0  2  0  0  0  0  0  0  0  0  0
    9.8507   16.1570   25.4701 C   0  0  0  0  0  0  0  0  0  0  0  0
   11.8155   14.8144   26.2741 C   0  0  0  0  0  0  0  0  0  0  0  0
   11.0195   14.5704   23.9045 C   0  0  0  0  0  0  0  0  0  0  0  0
   10.5994   14.8304   25.3504 C   0  0  0  0  0  0  0  0  0  0  0  0
    8.4759   12.3958   24.4635 N   0  0  0  0  0  0  0  0  0  0  0  0
    7.7152   14.5171   24.9517 O   0  0  0  0  0  0  0  0  0  0  0  0
    7.7044    9.7580   24.6694 O   0  0  0  0  0  0  0  0  0  0  0  0
   10.0582    9.4088   23.2020 O   0  0  0  0  0  0  0  0  0  0  0  0
    9.7264   13.7751   25.7684 O   0  0  0  0  0  0  0  0  0  0  0  0
    7.3412   12.4876   22.7082 H   0  0  0  0  0  0  0  0  0  0  0  0
    6.4390   11.9707   24.1802 H   0  0  0  0  0  0  0  0  0  0  0  0
    9.4387    9.4309   25.7611 H   0  0  0  0  0  0  0  0  0  0  0  0
    8.3526   10.6764   26.4347 H   0  0  0  0  0  0  0  0  0  0  0  0
   10.4314   11.6398   24.9743 H   0  0  0  0  0  0  0  0  0  0  0  0
    7.3461    9.9040   22.6016 H   0  0  0  0  0  0  0  0  0  0  0  0
    9.6607   11.2754   22.4332 H   0  0  0  0  0  0  0  0  0  0  0  0
    8.9771   16.1724   24.8086 H   0  0  0  0  0  0  0  0  0  0  0  0
    9.5134   16.3387   26.4958 H   0  0  0  0  0  0  0  0  0  0  0  0
   10.4869   16.9943   25.1615 H   0  0  0  0  0  0  0  0  0  0  0  0
   12.3557   13.8644   26.1915 H   0  0  0  0  0  0  0  0  0  0  0  0
   11.5103   14.9058   27.3228 H   0  0  0  0  0  0  0  0  0  0  0  0
   12.5093   15.6291   26.0427 H   0  0  0  0  0  0  0  0  0  0  0  0
   11.5566   13.6189   23.8184 H   0  0  0  0  0  0  0  0  0  0  0  0
   10.1557   14.5416   23.2325 H   0  0  0  0  0  0  0  0  0  0  0  0
   11.7083   15.3471   23.5532 H   0  0  0  0  0  0  0  0  0  0  0  0
    9.9402    9.0558   22.3021 H   0  0  0  0  0  0  0  0  0  0  0  0
  1 11  1  0  0  0  0
  1 12  2  0  0  0  0
  1 15  1  0  0  0  0
  2  5  1  0  0  0  0
  2 11  1  0  0  0  0
  3  4  1  0  0  0  0
  3 13  1  0  0  0  0
  4  6  1  0  0  0  0
  4 11  1  1  0  0  0
  5  6  1  0  0  0  0
  5 13  1  1  0  0  0
  6 14  1  6  0  0  0
  7 10  1  0  0  0  0
  8 10  1  0  0  0  0
  9 10  1  0  0  0  0
 10 15  1  0  0  0  0
  2 16  1  0  0  0  0
  2 17  1  0  0  0  0
  3 18  1  0  0  0  0
  3 19  1  0  0  0  0
  4 20  1  0  0  0  0
  5 21  1  0  0  0  0
  6 22  1  0  0  0  0
  7 23  1  0  0  0  0
  7 24  1  0  0  0  0
  7 25  1  0  0  0  0
  8 26  1  0  0  0  0
  8 27  1  0  0  0  0
  8 28  1  0  0  0  0
  9 29  1  0  0  0  0
  9 30  1  0  0  0  0
  9 31  1  0  0  0  0
 14 32  1  0  0  0  0
M  END
> <id>
EN300-27718416

> <smiles>
CC(C)(C)OC(=O)N1C[C@@H]2OC[C@H]1[C@H]2O

> <MDLNUMBER>
MFCD31925820

> <IUPAC Name>
tert-butyl (1S,4S,7R)-7-hydroxy-2-oxa-5-azabicyclo[2.2.1]heptane-5-carboxylate

> <CAS>
1637399-25-7

> <URL>
https://www.enaminestore.com/catalog/EN300-27718416

> <ROCS_ShapeQuery>
x0812_0A_x1140_0A_x1097_0A_x0365_0A_x1097_0A_x0310_0A

> <ROCS_TanimotoCombo>
0.695 

> <ROCS_ShapeTanimoto>
0.188 

> <ROCS_ColorTanimoto>
0.507 

> <ROCS_RefTversky>
0.176 

> <ROCS_RefColorTversky>
0.598 

> <ROCS_RefTverskyCombo>
0.774 

> <ROCS_FitTversky>
1.518 

> <ROCS_FitColorTversky>
0.769 

> <ROCS_FitTverskyCombo>
2.287 

> <ROCS_ColorScore>
-8.942

> <ROCS_Overlap>
1784.758

> <ROCS_Rank>
446                 

$$$$
untitled-dbase-464995_0
  -OEChem-02092408543D

 33 35  0     0  0  0  0  0  0999 V2000
   11.6146   15.1928   22.8665 C   0  0  0  0  0  0  0  0  0  0  0  0
    8.3803   10.0998   25.5461 C   0  0  0  0  0  0  0  0  0  0  0  0
    8.8122    9.7417   23.1022 C   0  0  0  0  0  0  0  0  0  0  0  0
    6.6977   10.8627   23.8506 C   0  0  0  0  0  0  0  0  0  0  0  0
   10.1610   11.4261   24.3800 C   0  0  0  0  0  0  0  0  0  0  0  0
    8.0418   12.5497   25.1303 C   0  0  0  0  0  0  0  0  0  0  0  0
    8.4744   12.1909   22.6808 C   0  0  0  0  0  0  0  0  0  0  0  0
    9.4660   10.0556   24.4581 C   0  0  0  0  0  0  0  0  0  0  0  0
    7.3410   11.1822   25.2103 C   0  0  0  0  0  0  0  0  0  0  0  0
    7.7750   10.8223   22.7541 C   0  0  0  0  0  0  0  0  0  0  0  0
    9.1362   12.5331   24.0368 C   0  0  0  0  0  0  0  0  0  0  0  0
   10.9436   13.8873   22.9195 C   0  0  0  0  0  0  0  0  0  0  0  0
    9.8310   13.8951   23.9601 C   0  0  0  0  0  0  0  0  0  0  0  0
   12.1457   16.2236   22.8231 N   0  0  0  0  0  0  0  0  0  0  0  0
    7.8898    9.1218   25.6256 H   0  0  0  0  0  0  0  0  0  0  0  0
    8.8358   10.3075   26.5222 H   0  0  0  0  0  0  0  0  0  0  0  0
    9.5787    9.6917   22.3191 H   0  0  0  0  0  0  0  0  0  0  0  0
    8.3295    8.7573   23.1383 H   0  0  0  0  0  0  0  0  0  0  0  0
    6.1775    9.8982   23.9001 H   0  0  0  0  0  0  0  0  0  0  0  0
    5.9423   11.6196   23.6061 H   0  0  0  0  0  0  0  0  0  0  0  0
   10.6505   11.6459   25.3376 H   0  0  0  0  0  0  0  0  0  0  0  0
   10.9536   11.3944   23.6214 H   0  0  0  0  0  0  0  0  0  0  0  0
    7.3015   13.3309   24.9144 H   0  0  0  0  0  0  0  0  0  0  0  0
    8.4830   12.7950   26.1050 H   0  0  0  0  0  0  0  0  0  0  0  0
    9.2287   12.1769   21.8833 H   0  0  0  0  0  0  0  0  0  0  0  0
    7.7438   12.9637   22.4095 H   0  0  0  0  0  0  0  0  0  0  0  0
   10.2022    9.2814   24.7017 H   0  0  0  0  0  0  0  0  0  0  0  0
    6.5691   11.2077   25.9876 H   0  0  0  0  0  0  0  0  0  0  0  0
    7.3113   10.5923   21.7884 H   0  0  0  0  0  0  0  0  0  0  0  0
   10.5325   13.6478   21.9320 H   0  0  0  0  0  0  0  0  0  0  0  0
   11.6772   13.1092   23.1597 H   0  0  0  0  0  0  0  0  0  0  0  0
    9.0838   14.6558   23.7167 H   0  0  0  0  0  0  0  0  0  0  0  0
   10.2321   14.1394   24.9479 H   0  0  0  0  0  0  0  0  0  0  0  0
  1 12  1  0  0  0  0
  1 14  3  0  0  0  0
  2  8  1  0  0  0  0
  2  9  1  0  0  0  0
  3  8  1  0  0  0  0
  3 10  1  0  0  0  0
  4  9  1  0  0  0  0
  4 10  1  0  0  0  0
  5  8  1  0  0  0  0
  5 11  1  0  0  0  0
  6  9  1  0  0  0  0
  6 11  1  0  0  0  0
  7 10  1  0  0  0  0
  7 11  1  0  0  0  0
 11 13  1  0  0  0  0
 12 13  1  0  0  0  0
  2 15  1  0  0  0  0
  2 16  1  0  0  0  0
  3 17  1  0  0  0  0
  3 18  1  0  0  0  0
  4 19  1  0  0  0  0
  4 20  1  0  0  0  0
  5 21  1  0  0  0  0
  5 22  1  0  0  0  0
  6 23  1  0  0  0  0
  6 24  1  0  0  0  0
  7 25  1  0  0  0  0
  7 26  1  0  0  0  0
  8 27  1  0  0  0  0
  9 28  1  0  0  0  0
 10 29  1  0  0  0  0
 12 30  1  0  0  0  0
 12 31  1  0  0  0  0
 13 32  1  0  0  0  0
 13 33  1  0  0  0  0
M  END
> <id>
EN300-1849888

> <smiles>
N#CCCC1(CC2CC3CC(C2)C1)C3

> <IUPAC Name>
3-(adamantan-1-yl)propanenitrile

> <CAS>
52582-89-5

> <URL>
https://www.enaminestore.com/catalog/EN300-1849888

> <ROCS_ShapeQuery>
x0812_0A_x1140_0A_x1097_0A_x0365_0A_x1097_0A_x0310_0A

> <ROCS_TanimotoCombo>
0.695 

> <ROCS_ShapeTanimoto>
0.221 

> <ROCS_ColorTanimoto>
0.474 

> <ROCS_RefTversky>
0.201 

> <ROCS_RefColorTversky>
0.492 

> <ROCS_RefTverskyCombo>
0.693 

> <ROCS_FitTversky>
1.825 

> <ROCS_FitColorTversky>
0.925 

> <ROCS_FitTverskyCombo>
2.750 

> <ROCS_ColorScore>
-7.265

> <ROCS_Overlap>
2033.334

> <ROCS_Rank>
447                 

$$$$
untitled-dbase-329258_6
  -OEChem-02092408543D

 38 40  0     0  0  0  0  0  0999 V2000
    9.7846   11.8701   22.2587 C   0  0  0  0  0  0  0  0  0  0  0  0
    8.7201    8.7678   22.5626 C   0  0  0  0  0  0  0  0  0  0  0  0
   10.6340    9.2890   24.1206 C   0  0  0  0  0  0  0  0  0  0  0  0
    7.4741   11.4675   23.5495 C   0  0  0  0  0  0  0  0  0  0  0  0
    9.0500   11.8971   24.8328 C   0  0  0  0  0  0  0  0  0  0  0  0
    9.7523    8.5686   21.4537 C   0  0  0  0  0  0  0  0  0  0  0  0
   11.5796    9.0653   22.9414 C   0  0  0  0  0  0  0  0  0  0  0  0
    9.0326   11.2080   23.4038 C   0  0  0  0  0  0  0  0  0  0  0  0
    9.2153    9.6834   23.6898 C   0  0  0  0  0  0  0  0  0  0  0  0
    7.8243   10.9234   24.9830 C   0  0  0  0  0  0  0  0  0  0  0  0
   11.6441   13.4380   21.7427 C   0  0  0  0  0  0  0  0  0  0  0  0
    6.8589   11.0641   26.1208 C   0  0  0  0  0  0  0  0  0  0  0  0
   11.0357    8.1058   21.9808 N   0  0  0  0  0  0  0  0  0  0  0  0
    5.6219   10.4012   25.8261 N   0  0  0  0  0  0  0  0  0  0  0  0
   10.8032   12.7103   22.6660 N   0  0  0  0  0  0  0  0  0  0  0  0
    9.4586   11.6288   21.1024 O   0  0  0  0  0  0  0  0  0  0  0  0
    8.3244    9.5649   24.8238 O   0  0  0  0  0  0  0  0  0  0  0  0
    7.7949    9.1811   22.1241 H   0  0  0  0  0  0  0  0  0  0  0  0
    8.4534    7.7709   22.9491 H   0  0  0  0  0  0  0  0  0  0  0  0
   10.6249    8.3625   24.7174 H   0  0  0  0  0  0  0  0  0  0  0  0
   11.0560   10.0694   24.7784 H   0  0  0  0  0  0  0  0  0  0  0  0
    7.1380   12.5089   23.4764 H   0  0  0  0  0  0  0  0  0  0  0  0
    6.8021   10.8469   22.9522 H   0  0  0  0  0  0  0  0  0  0  0  0
    9.9062   11.6927   25.4798 H   0  0  0  0  0  0  0  0  0  0  0  0
    8.8430   12.9737   24.8648 H   0  0  0  0  0  0  0  0  0  0  0  0
    9.3761    7.8612   20.7018 H   0  0  0  0  0  0  0  0  0  0  0  0
    9.9087    9.5230   20.9355 H   0  0  0  0  0  0  0  0  0  0  0  0
   11.7432   10.0215   22.4285 H   0  0  0  0  0  0  0  0  0  0  0  0
   12.5631    8.7275   23.2965 H   0  0  0  0  0  0  0  0  0  0  0  0
   12.5225   12.8274   21.4867 H   0  0  0  0  0  0  0  0  0  0  0  0
   11.0753   13.6634   20.8286 H   0  0  0  0  0  0  0  0  0  0  0  0
   11.9743   14.3774   22.2101 H   0  0  0  0  0  0  0  0  0  0  0  0
    7.3064   10.6183   27.0183 H   0  0  0  0  0  0  0  0  0  0  0  0
    6.6689   12.1316   26.2903 H   0  0  0  0  0  0  0  0  0  0  0  0
   10.9057    7.2071   22.4405 H   0  0  0  0  0  0  0  0  0  0  0  0
    4.8713   11.0631   25.8482 H   0  0  0  0  0  0  0  0  0  0  0  0
    5.6709    9.9868   24.9161 H   0  0  0  0  0  0  0  0  0  0  0  0
   10.9689   12.8219   23.6617 H   0  0  0  0  0  0  0  0  0  0  0  0
  1  8  1  0  0  0  0
  1 15  1  0  0  0  0
  1 16  2  0  0  0  0
  2  6  1  0  0  0  0
  2  9  1  0  0  0  0
  3  7  1  0  0  0  0
  3  9  1  0  0  0  0
  4  8  1  0  0  0  0
  4 10  1  0  0  0  0
  5  8  1  0  0  0  0
  5 10  1  0  0  0  0
  6 13  1  0  0  0  0
  7 13  1  0  0  0  0
  8  9  1  0  0  0  0
  9 17  1  0  0  0  0
 10 12  1  0  0  0  0
 10 17  1  0  0  0  0
 11 15  1  0  0  0  0
 12 14  1  0  0  0  0
  2 18  1  0  0  0  0
  2 19  1  0  0  0  0
  3 20  1  0  0  0  0
  3 21  1  0  0  0  0
  4 22  1  0  0  0  0
  4 23  1  0  0  0  0
  5 24  1  0  0  0  0
  5 25  1  0  0  0  0
  6 26  1  0  0  0  0
  6 27  1  0  0  0  0
  7 28  1  0  0  0  0
  7 29  1  0  0  0  0
 11 30  1  0  0  0  0
 11 31  1  0  0  0  0
 11 32  1  0  0  0  0
 12 33  1  0  0  0  0
 12 34  1  0  0  0  0
 13 35  1  0  0  0  0
 14 36  1  0  0  0  0
 14 37  1  0  0  0  0
 15 38  1  0  0  0  0
M  END
> <id>
EN300-28317567

> <smiles>
CNC(=O)C1(CC2(CN)C1)C3(CCNCC3)O2

> <IUPAC Name>
4-(aminomethyl)-N-methyl-3-oxaspiro[bicyclo[2.1.1]hexane-2,4'-piperidine]-1-carboxamide

> <CAS>
2757912-44-8

> <URL>
https://www.enaminestore.com/catalog/EN300-28317567

> <ROCS_ShapeQuery>
x0812_0A_x1140_0A_x1097_0A_x0365_0A_x1097_0A_x0310_0A

> <ROCS_TanimotoCombo>
0.695 

> <ROCS_ShapeTanimoto>
0.259 

> <ROCS_ColorTanimoto>
0.435 

> <ROCS_RefTversky>
0.231 

> <ROCS_RefColorTversky>
0.600 

> <ROCS_RefTverskyCombo>
0.831 

> <ROCS_FitTversky>
1.873 

> <ROCS_FitColorTversky>
0.614 

> <ROCS_FitTverskyCombo>
2.487 

> <ROCS_ColorScore>
-9.068

> <ROCS_Overlap>
2341.174

> <ROCS_Rank>
448                 

$$$$
untitled-dbase-331420_3
  -OEChem-02092408543D

 27 28  0     0  0  0  0  0  0999 V2000
    6.9745   11.8571   26.3857 C   0  0  0  0  0  0  0  0  0  0  0  0
    9.9778   12.0839   22.3546 C   0  0  0  0  0  0  0  0  0  0  0  0
    7.1016   10.5691   24.0404 C   0  0  0  0  0  0  0  0  0  0  0  0
    8.7660   10.2141   25.2598 C   0  0  0  0  0  0  0  0  0  0  0  0
    8.5569   12.5400   24.4251 C   0  0  0  0  0  0  0  0  0  0  0  0
    7.7790   11.4352   25.1652 C   0  0  0  0  0  0  0  0  0  0  0  0
    8.6199   10.3230   23.6938 C   0  0  0  0  0  0  0  0  0  0  0  0
    9.0282    9.1877   22.8060 C   0  0  0  0  0  0  0  0  0  0  0  0
   10.8560   13.2675   22.6765 C   0  0  0  0  0  0  0  0  0  0  0  0
    9.1414   11.6866   23.3791 N   0  0  0  0  0  0  0  0  0  0  0  0
    7.4046   12.5277   27.3123 O   0  0  0  0  0  0  0  0  0  0  0  0
   10.0423   11.5511   21.2472 O   0  0  0  0  0  0  0  0  0  0  0  0
    5.7064   11.3844   26.3099 O   0  0  0  0  0  0  0  0  0  0  0  0
   10.4095    8.8990   23.0036 O   0  0  0  0  0  0  0  0  0  0  0  0
   10.6293   13.6954   23.9309 F   0  0  0  0  0  0  0  0  0  0  0  0
   12.1548   12.9354   22.5715 F   0  0  0  0  0  0  0  0  0  0  0  0
   10.6110   14.2851   21.8322 F   0  0  0  0  0  0  0  0  0  0  0  0
    6.5262    9.6971   24.3723 H   0  0  0  0  0  0  0  0  0  0  0  0
    6.5188   11.1141   23.2910 H   0  0  0  0  0  0  0  0  0  0  0  0
    9.7609   10.4226   25.6663 H   0  0  0  0  0  0  0  0  0  0  0  0
    8.3754    9.3026   25.7272 H   0  0  0  0  0  0  0  0  0  0  0  0
    7.9113   13.2996   23.9756 H   0  0  0  0  0  0  0  0  0  0  0  0
    9.3484   12.9929   25.0288 H   0  0  0  0  0  0  0  0  0  0  0  0
    8.8796    9.4365   21.7451 H   0  0  0  0  0  0  0  0  0  0  0  0
    8.4534    8.2775   23.0309 H   0  0  0  0  0  0  0  0  0  0  0  0
    5.1712   11.6445   27.0898 H   0  0  0  0  0  0  0  0  0  0  0  0
   10.6254    8.1621   22.4111 H   0  0  0  0  0  0  0  0  0  0  0  0
  1  6  1  0  0  0  0
  1 11  2  0  0  0  0
  1 13  1  0  0  0  0
  2  9  1  0  0  0  0
  2 10  1  0  0  0  0
  2 12  2  0  0  0  0
  3  6  1  0  0  0  0
  3  7  1  0  0  0  0
  4  6  1  0  0  0  0
  4  7  1  0  0  0  0
  5  6  1  0  0  0  0
  5 10  1  0  0  0  0
  7  8  1  0  0  0  0
  7 10  1  0  0  0  0
  8 14  1  0  0  0  0
  9 15  1  0  0  0  0
  9 16  1  0  0  0  0
  9 17  1  0  0  0  0
  3 18  1  0  0  0  0
  3 19  1  0  0  0  0
  4 20  1  0  0  0  0
  4 21  1  0  0  0  0
  5 22  1  0  0  0  0
  5 23  1  0  0  0  0
  8 24  1  0  0  0  0
  8 25  1  0  0  0  0
 13 26  1  0  0  0  0
 14 27  1  0  0  0  0
M  END
> <id>
EN300-37101866

> <smiles>
OCC1(CC2(C1)C(=O)O)N(C2)C(=O)C(F)(F)F

> <IUPAC Name>
1-(hydroxymethyl)-2-(2,2,2-trifluoroacetyl)-2-azabicyclo[2.1.1]hexane-4-carboxylic acid

> <CAS>
2757916-22-4

> <URL>
https://www.enaminestore.com/catalog/EN300-37101866

> <ROCS_ShapeQuery>
x0812_0A_x1140_0A_x1097_0A_x0365_0A_x1097_0A_x0310_0A

> <ROCS_TanimotoCombo>
0.695 

> <ROCS_ShapeTanimoto>
0.284 

> <ROCS_ColorTanimoto>
0.410 

> <ROCS_RefTversky>
0.249 

> <ROCS_RefColorTversky>
0.541 

> <ROCS_RefTverskyCombo>
0.790 

> <ROCS_FitTversky>
1.985 

> <ROCS_FitColorTversky>
0.630 

> <ROCS_FitTverskyCombo>
2.615 

> <ROCS_ColorScore>
-8.125

> <ROCS_Overlap>
2521.311

> <ROCS_Rank>
449                 

$$$$
untitled-dbase-570585_2
  -OEChem-02092408543D

 37 39  0     0  0  0  0  0  0999 V2000
   10.0219   11.9368   22.4822 C   0  0  0  0  0  0  0  0  0  0  0  0
    8.4240    9.1342   22.2881 C   0  0  0  0  0  0  0  0  0  0  0  0
   10.3004    9.0788   23.9655 C   0  0  0  0  0  0  0  0  0  0  0  0
    9.1466   11.7754   25.0158 C   0  0  0  0  0  0  0  0  0  0  0  0
    7.5976   11.8213   23.6314 C   0  0  0  0  0  0  0  0  0  0  0  0
    8.3990    7.6113   22.3811 C   0  0  0  0  0  0  0  0  0  0  0  0
   10.1614    7.5592   23.9556 C   0  0  0  0  0  0  0  0  0  0  0  0
    9.0886   11.3061   23.5057 C   0  0  0  0  0  0  0  0  0  0  0  0
    8.9819    9.7538   23.5736 C   0  0  0  0  0  0  0  0  0  0  0  0
    7.7595   11.0280   24.9834 C   0  0  0  0  0  0  0  0  0  0  0  0
   12.5280   14.5383   23.0657 C   0  0  0  0  0  0  0  0  0  0  0  0
    6.7689   11.1845   26.0970 C   0  0  0  0  0  0  0  0  0  0  0  0
   11.7380   13.5435   22.2424 C   0  0  0  0  0  0  0  0  0  0  0  0
   10.0438   11.6342   21.2968 O   0  0  0  0  0  0  0  0  0  0  0  0
    9.6946    7.1015   22.6884 O   0  0  0  0  0  0  0  0  0  0  0  0
    8.0217    9.6344   24.6437 O   0  0  0  0  0  0  0  0  0  0  0  0
   10.8067   12.8687   23.0942 O   0  0  0  0  0  0  0  0  0  0  0  0
    4.8052   10.6006   25.4821 I   0  0  0  0  0  0  0  0  0  0  0  0
    9.0577    9.4245   21.4415 H   0  0  0  0  0  0  0  0  0  0  0  0
    7.4079    9.4795   22.0751 H   0  0  0  0  0  0  0  0  0  0  0  0
   10.6364    9.3842   24.9613 H   0  0  0  0  0  0  0  0  0  0  0  0
   11.0805    9.3651   23.2500 H   0  0  0  0  0  0  0  0  0  0  0  0
    9.9133   11.3305   25.6540 H   0  0  0  0  0  0  0  0  0  0  0  0
    9.1276   12.8561   25.2009 H   0  0  0  0  0  0  0  0  0  0  0  0
    7.4523   12.9061   23.7028 H   0  0  0  0  0  0  0  0  0  0  0  0
    6.8638   11.4213   22.9281 H   0  0  0  0  0  0  0  0  0  0  0  0
    7.6808    7.2666   23.1343 H   0  0  0  0  0  0  0  0  0  0  0  0
    8.0940    7.1870   21.4191 H   0  0  0  0  0  0  0  0  0  0  0  0
   11.1370    7.0971   24.1375 H   0  0  0  0  0  0  0  0  0  0  0  0
    9.4818    7.2133   24.7432 H   0  0  0  0  0  0  0  0  0  0  0  0
   11.8668   15.2824   23.5185 H   0  0  0  0  0  0  0  0  0  0  0  0
   13.0825   14.0280   23.8601 H   0  0  0  0  0  0  0  0  0  0  0  0
   13.2665   15.0542   22.4431 H   0  0  0  0  0  0  0  0  0  0  0  0
    6.7394   12.2304   26.4437 H   0  0  0  0  0  0  0  0  0  0  0  0
    7.0671   10.5781   26.9678 H   0  0  0  0  0  0  0  0  0  0  0  0
   12.4051   12.8022   21.7924 H   0  0  0  0  0  0  0  0  0  0  0  0
   11.1840   14.0551   21.4497 H   0  0  0  0  0  0  0  0  0  0  0  0
  1  8  1  1  0  0  0
  1 14  2  0  0  0  0
  1 17  1  0  0  0  0
  2  6  1  0  0  0  0
  2  9  1  0  0  0  0
  3  7  1  0  0  0  0
  3  9  1  0  0  0  0
  4  8  1  0  0  0  0
  4 10  1  0  0  0  0
  5  8  1  0  0  0  0
  5 10  1  0  0  0  0
  6 15  1  0  0  0  0
  7 15  1  0  0  0  0
  8  9  1  0  0  0  0
  9 16  1  0  0  0  0
 10 12  1  1  0  0  0
 10 16  1  0  0  0  0
 11 13  1  0  0  0  0
 12 18  1  0  0  0  0
 13 17  1  0  0  0  0
  2 19  1  0  0  0  0
  2 20  1  0  0  0  0
  3 21  1  0  0  0  0
  3 22  1  0  0  0  0
  4 23  1  0  0  0  0
  4 24  1  0  0  0  0
  5 25  1  0  0  0  0
  5 26  1  0  0  0  0
  6 27  1  0  0  0  0
  6 28  1  0  0  0  0
  7 29  1  0  0  0  0
  7 30  1  0  0  0  0
 11 31  1  0  0  0  0
 11 32  1  0  0  0  0
 11 33  1  0  0  0  0
 12 34  1  0  0  0  0
 12 35  1  0  0  0  0
 13 36  1  0  0  0  0
 13 37  1  0  0  0  0
M  END
> <id>
EN300-37375209

> <smiles>
CCOC(=O)[C@]1(C[C@@]2(CI)C1)C3(CCOCC3)O2

> <IUPAC Name>
ethyl 4-(iodomethyl)-3-oxaspiro[bicyclo[2.1.1]hexane-2,4'-oxane]-1-carboxylate

> <CAS>
2225147-55-5

> <URL>
https://www.enaminestore.com/catalog/EN300-37375209

> <ROCS_ShapeQuery>
x0812_0A_x1140_0A_x1097_0A_x0365_0A_x1097_0A_x0310_0A

> <ROCS_TanimotoCombo>
0.694 

> <ROCS_ShapeTanimoto>
0.259 

> <ROCS_ColorTanimoto>
0.436 

> <ROCS_RefTversky>
0.231 

> <ROCS_RefColorTversky>
0.546 

> <ROCS_RefTverskyCombo>
0.777 

> <ROCS_FitTversky>
1.832 

> <ROCS_FitColorTversky>
0.685 

> <ROCS_FitTverskyCombo>
2.516 

> <ROCS_ColorScore>
-8.165

> <ROCS_Overlap>
2341.877

> <ROCS_Rank>
450                 

$$$$
untitled-dbase-309699_2
  -OEChem-02092408543D

 37 39  0     0  0  0  0  0  0999 V2000
   10.0221   11.9364   22.4820 C   0  0  0  0  0  0  0  0  0  0  0  0
    8.4237    9.1343   22.2879 C   0  0  0  0  0  0  0  0  0  0  0  0
   10.3001    9.0786   23.9653 C   0  0  0  0  0  0  0  0  0  0  0  0
    9.1469   11.7753   25.0155 C   0  0  0  0  0  0  0  0  0  0  0  0
    7.5977   11.8214   23.6313 C   0  0  0  0  0  0  0  0  0  0  0  0
    8.3992    7.6115   22.3798 C   0  0  0  0  0  0  0  0  0  0  0  0
   10.1608    7.5591   23.9552 C   0  0  0  0  0  0  0  0  0  0  0  0
    9.0885   11.3059   23.5054 C   0  0  0  0  0  0  0  0  0  0  0  0
    8.9818    9.7537   23.5734 C   0  0  0  0  0  0  0  0  0  0  0  0
    7.7597   11.0281   24.9833 C   0  0  0  0  0  0  0  0  0  0  0  0
   12.5289   14.5372   23.0660 C   0  0  0  0  0  0  0  0  0  0  0  0
    6.7693   11.1849   26.0972 C   0  0  0  0  0  0  0  0  0  0  0  0
   11.7387   13.5427   22.2425 C   0  0  0  0  0  0  0  0  0  0  0  0
   10.0440   11.6340   21.2966 O   0  0  0  0  0  0  0  0  0  0  0  0
    9.6946    7.1017   22.6878 O   0  0  0  0  0  0  0  0  0  0  0  0
    8.0216    9.6344   24.6437 O   0  0  0  0  0  0  0  0  0  0  0  0
   10.8071   12.8681   23.0942 O   0  0  0  0  0  0  0  0  0  0  0  0
    4.8056   10.6013   25.4826 I   0  0  0  0  0  0  0  0  0  0  0  0
    9.0571    9.4251   21.4415 H   0  0  0  0  0  0  0  0  0  0  0  0
    7.4071    9.4796   22.0753 H   0  0  0  0  0  0  0  0  0  0  0  0
   10.6352    9.3834   24.9613 H   0  0  0  0  0  0  0  0  0  0  0  0
   11.0805    9.3650   23.2501 H   0  0  0  0  0  0  0  0  0  0  0  0
    9.9137   11.3304   25.6538 H   0  0  0  0  0  0  0  0  0  0  0  0
    9.1284   12.8560   25.2003 H   0  0  0  0  0  0  0  0  0  0  0  0
    7.4524   12.9061   23.7027 H   0  0  0  0  0  0  0  0  0  0  0  0
    6.8639   11.4214   22.9279 H   0  0  0  0  0  0  0  0  0  0  0  0
    7.6809    7.2663   23.1325 H   0  0  0  0  0  0  0  0  0  0  0  0
    8.0949    7.1876   21.4172 H   0  0  0  0  0  0  0  0  0  0  0  0
   11.1361    7.0970   24.1378 H   0  0  0  0  0  0  0  0  0  0  0  0
    9.4808    7.2131   24.7428 H   0  0  0  0  0  0  0  0  0  0  0  0
   11.8679   15.2814   23.5189 H   0  0  0  0  0  0  0  0  0  0  0  0
   13.0832   14.0266   23.8604 H   0  0  0  0  0  0  0  0  0  0  0  0
   13.2676   15.0530   22.4435 H   0  0  0  0  0  0  0  0  0  0  0  0
    6.7403   12.2308   26.4437 H   0  0  0  0  0  0  0  0  0  0  0  0
    7.0677   10.5785   26.9678 H   0  0  0  0  0  0  0  0  0  0  0  0
   12.4056   12.8013   21.7925 H   0  0  0  0  0  0  0  0  0  0  0  0
   11.1849   14.0546   21.4499 H   0  0  0  0  0  0  0  0  0  0  0  0
  1  8  1  0  0  0  0
  1 14  2  0  0  0  0
  1 17  1  0  0  0  0
  2  6  1  0  0  0  0
  2  9  1  0  0  0  0
  3  7  1  0  0  0  0
  3  9  1  0  0  0  0
  4  8  1  0  0  0  0
  4 10  1  0  0  0  0
  5  8  1  0  0  0  0
  5 10  1  0  0  0  0
  6 15  1  0  0  0  0
  7 15  1  0  0  0  0
  8  9  1  0  0  0  0
  9 16  1  0  0  0  0
 10 12  1  0  0  0  0
 10 16  1  0  0  0  0
 11 13  1  0  0  0  0
 12 18  1  0  0  0  0
 13 17  1  0  0  0  0
  2 19  1  0  0  0  0
  2 20  1  0  0  0  0
  3 21  1  0  0  0  0
  3 22  1  0  0  0  0
  4 23  1  0  0  0  0
  4 24  1  0  0  0  0
  5 25  1  0  0  0  0
  5 26  1  0  0  0  0
  6 27  1  0  0  0  0
  6 28  1  0  0  0  0
  7 29  1  0  0  0  0
  7 30  1  0  0  0  0
 11 31  1  0  0  0  0
 11 32  1  0  0  0  0
 11 33  1  0  0  0  0
 12 34  1  0  0  0  0
 12 35  1  0  0  0  0
 13 36  1  0  0  0  0
 13 37  1  0  0  0  0
M  END
> <id>
EN300-1718244

> <smiles>
CCOC(=O)C1(CC2(CI)C1)C3(CCOCC3)O2

> <MDLNUMBER>
MFCD31665500

> <IUPAC Name>
ethyl 4-(iodomethyl)-3-oxaspiro[bicyclo[2.1.1]hexane-2,4'-oxane]-1-carboxylate

> <CAS>
2225147-55-5

> <Purity>
95

> <URL>
https://www.enaminestore.com/catalog/EN300-1718244

> <ROCS_ShapeQuery>
x0812_0A_x1140_0A_x1097_0A_x0365_0A_x1097_0A_x0310_0A

> <ROCS_TanimotoCombo>
0.694 

> <ROCS_ShapeTanimoto>
0.259 

> <ROCS_ColorTanimoto>
0.436 

> <ROCS_RefTversky>
0.231 

> <ROCS_RefColorTversky>
0.545 

> <ROCS_RefTverskyCombo>
0.777 

> <ROCS_FitTversky>
1.832 

> <ROCS_FitColorTversky>
0.685 

> <ROCS_FitTverskyCombo>
2.516 

> <ROCS_ColorScore>
-8.165

> <ROCS_Overlap>
2341.870

> <ROCS_Rank>
451                 

$$$$
untitled-dbase-561199_8
  -OEChem-02092408543D

 21 22  0     0  0  0  0  0  0999 V2000
    9.5499   11.6510   24.4576 C   0  0  0  0  0  0  0  0  0  0  0  0
    7.6754   11.8287   23.5393 C   0  0  0  0  0  0  0  0  0  0  0  0
    7.8038   10.1638   25.3448 C   0  0  0  0  0  0  0  0  0  0  0  0
    8.0904   11.6519   25.0474 C   0  0  0  0  0  0  0  0  0  0  0  0
    8.8010   10.7286   23.4183 C   0  0  0  0  0  0  0  0  0  0  0  0
    7.6738   12.6449   26.0901 C   0  0  0  0  0  0  0  0  0  0  0  0
    9.4169   10.3873   22.0956 C   0  0  0  0  0  0  0  0  0  0  0  0
    8.3320    9.5628   24.1503 O   0  0  0  0  0  0  0  0  0  0  0  0
   10.0622   11.5382   21.5579 O   0  0  0  0  0  0  0  0  0  0  0  0
    6.3643   12.4401   26.4076 F   0  0  0  0  0  0  0  0  0  0  0  0
    9.9357   12.6068   24.0860 H   0  0  0  0  0  0  0  0  0  0  0  0
   10.3163   11.1631   25.0668 H   0  0  0  0  0  0  0  0  0  0  0  0
    6.6626   11.5087   23.2777 H   0  0  0  0  0  0  0  0  0  0  0  0
    7.8789   12.8017   23.0787 H   0  0  0  0  0  0  0  0  0  0  0  0
    8.3489    9.7940   26.2180 H   0  0  0  0  0  0  0  0  0  0  0  0
    6.7349    9.9473   25.4269 H   0  0  0  0  0  0  0  0  0  0  0  0
    7.7711   13.6778   25.7321 H   0  0  0  0  0  0  0  0  0  0  0  0
    8.2596   12.5379   27.0121 H   0  0  0  0  0  0  0  0  0  0  0  0
    8.6561   10.0540   21.3751 H   0  0  0  0  0  0  0  0  0  0  0  0
   10.1681    9.5909   22.1984 H   0  0  0  0  0  0  0  0  0  0  0  0
   10.4432   11.2696   20.7074 H   0  0  0  0  0  0  0  0  0  0  0  0
  1  4  1  0  0  0  0
  1  5  1  0  0  0  0
  2  4  1  0  0  0  0
  2  5  1  0  0  0  0
  3  4  1  0  0  0  0
  3  8  1  0  0  0  0
  4  6  1  1  0  0  0
  5  7  1  1  0  0  0
  5  8  1  0  0  0  0
  6 10  1  0  0  0  0
  7  9  1  0  0  0  0
  1 11  1  0  0  0  0
  1 12  1  0  0  0  0
  2 13  1  0  0  0  0
  2 14  1  0  0  0  0
  3 15  1  0  0  0  0
  3 16  1  0  0  0  0
  6 17  1  0  0  0  0
  6 18  1  0  0  0  0
  7 19  1  0  0  0  0
  7 20  1  0  0  0  0
  9 21  1  0  0  0  0
M  END
> <id>
EN300-37375436

> <smiles>
OC[C@]1(C[C@@]2(CF)C1)OC2

> <IUPAC Name>
[4-(fluoromethyl)-2-oxabicyclo[2.1.1]hexan-1-yl]methanol

> <CAS>
2580210-98-4

> <URL>
https://www.enaminestore.com/catalog/EN300-37375436

> <ROCS_ShapeQuery>
x0812_0A_x1140_0A_x1097_0A_x0365_0A_x1097_0A_x0310_0A

> <ROCS_TanimotoCombo>
0.694 

> <ROCS_ShapeTanimoto>
0.192 

> <ROCS_ColorTanimoto>
0.503 

> <ROCS_RefTversky>
0.176 

> <ROCS_RefColorTversky>
0.560 

> <ROCS_RefTverskyCombo>
0.736 

> <ROCS_FitTversky>
1.884 

> <ROCS_FitColorTversky>
0.829 

> <ROCS_FitTverskyCombo>
2.714 

> <ROCS_ColorScore>
-8.333

> <ROCS_Overlap>
1778.958

> <ROCS_Rank>
452                 

$$$$
untitled-dbase-558859_0
  -OEChem-02092408543D

 23 24  0     0  0  0  0  0  0999 V2000
    9.3550    9.9053   23.7170 C   0  0  0  0  0  0  0  0  0  0  0  0
    9.9890   11.9704   22.3567 C   0  0  0  0  0  0  0  0  0  0  0  0
    8.9330   12.2641   24.7758 C   0  0  0  0  0  0  0  0  0  0  0  0
    7.5188   11.7265   23.3013 C   0  0  0  0  0  0  0  0  0  0  0  0
    7.5007   10.2001   25.3891 C   0  0  0  0  0  0  0  0  0  0  0  0
    7.5127   11.6336   24.8545 C   0  0  0  0  0  0  0  0  0  0  0  0
    9.0541   11.4324   23.4496 C   0  0  0  0  0  0  0  0  0  0  0  0
   11.6599   13.5890   21.9423 C   0  0  0  0  0  0  0  0  0  0  0  0
    8.5160    9.4005   24.7055 N   0  0  0  0  0  0  0  0  0  0  0  0
   10.2033    9.2114   23.1556 O   0  0  0  0  0  0  0  0  0  0  0  0
   10.0340   11.5303   21.2158 O   0  0  0  0  0  0  0  0  0  0  0  0
   10.7387   12.9918   22.8603 O   0  0  0  0  0  0  0  0  0  0  0  0
    8.9492   13.3524   24.6421 H   0  0  0  0  0  0  0  0  0  0  0  0
    9.6219   11.9994   25.5831 H   0  0  0  0  0  0  0  0  0  0  0  0
    6.9260   10.9746   22.7723 H   0  0  0  0  0  0  0  0  0  0  0  0
    7.2747   12.7158   22.8960 H   0  0  0  0  0  0  0  0  0  0  0  0
    7.7231   10.1738   26.4600 H   0  0  0  0  0  0  0  0  0  0  0  0
    6.5315    9.7213   25.2196 H   0  0  0  0  0  0  0  0  0  0  0  0
    6.7618   12.2606   25.3462 H   0  0  0  0  0  0  0  0  0  0  0  0
   12.2066   14.3914   22.4438 H   0  0  0  0  0  0  0  0  0  0  0  0
   11.1135   13.9873   21.0837 H   0  0  0  0  0  0  0  0  0  0  0  0
   12.3658   12.8280   21.6014 H   0  0  0  0  0  0  0  0  0  0  0  0
    8.6142    8.4242   24.9661 H   0  0  0  0  0  0  0  0  0  0  0  0
  1  7  1  0  0  0  0
  1  9  1  0  0  0  0
  1 10  2  0  0  0  0
  2  7  1  1  0  0  0
  2 11  2  0  0  0  0
  2 12  1  0  0  0  0
  3  6  1  6  0  0  0
  3  7  1  0  0  0  0
  4  6  1  0  0  0  0
  4  7  1  0  0  0  0
  5  6  1  0  0  0  0
  5  9  1  0  0  0  0
  8 12  1  0  0  0  0
  3 13  1  0  0  0  0
  3 14  1  0  0  0  0
  4 15  1  0  0  0  0
  4 16  1  0  0  0  0
  5 17  1  0  0  0  0
  5 18  1  0  0  0  0
  6 19  1  0  0  0  0
  8 20  1  0  0  0  0
  8 21  1  0  0  0  0
  8 22  1  0  0  0  0
  9 23  1  0  0  0  0
M  END
> <id>
EN300-37375133

> <smiles>
COC(=O)[C@]1(C[C@H]2C1)C(=O)NC2

> <IUPAC Name>
methyl (1r)-2-oxo-3-azabicyclo[3.1.1]heptane-1-carboxylate

> <CAS>
1628783-91-4

> <URL>
https://www.enaminestore.com/catalog/EN300-37375133

> <ROCS_ShapeQuery>
x0812_0A_x1140_0A_x1097_0A_x0365_0A_x1097_0A_x0310_0A

> <ROCS_TanimotoCombo>
0.694 

> <ROCS_ShapeTanimoto>
0.227 

> <ROCS_ColorTanimoto>
0.467 

> <ROCS_RefTversky>
0.204 

> <ROCS_RefColorTversky>
0.520 

> <ROCS_RefTverskyCombo>
0.724 

> <ROCS_FitTversky>
1.994 

> <ROCS_FitColorTversky>
0.822 

> <ROCS_FitTverskyCombo>
2.815 

> <ROCS_ColorScore>
-7.709

> <ROCS_Overlap>
2063.736

> <ROCS_Rank>
453                 

$$$$
untitled-dbase-319795_0
  -OEChem-02092408543D

 23 24  0     0  0  0  0  0  0999 V2000
    9.3549    9.9053   23.7168 C   0  0  0  0  0  0  0  0  0  0  0  0
    9.9890   11.9703   22.3567 C   0  0  0  0  0  0  0  0  0  0  0  0
    8.9332   12.2638   24.7760 C   0  0  0  0  0  0  0  0  0  0  0  0
    7.5189   11.7269   23.3016 C   0  0  0  0  0  0  0  0  0  0  0  0
    7.5005   10.2000   25.3888 C   0  0  0  0  0  0  0  0  0  0  0  0
    7.5128   11.6336   24.8547 C   0  0  0  0  0  0  0  0  0  0  0  0
    9.0540   11.4324   23.4495 C   0  0  0  0  0  0  0  0  0  0  0  0
   11.6601   13.5888   21.9424 C   0  0  0  0  0  0  0  0  0  0  0  0
    8.5160    9.4003   24.7055 N   0  0  0  0  0  0  0  0  0  0  0  0
   10.2033    9.2115   23.1555 O   0  0  0  0  0  0  0  0  0  0  0  0
   10.0340   11.5303   21.2158 O   0  0  0  0  0  0  0  0  0  0  0  0
   10.7388   12.9916   22.8604 O   0  0  0  0  0  0  0  0  0  0  0  0
    8.9496   13.3522   24.6425 H   0  0  0  0  0  0  0  0  0  0  0  0
    9.6221   11.9988   25.5833 H   0  0  0  0  0  0  0  0  0  0  0  0
    6.9258   10.9752   22.7726 H   0  0  0  0  0  0  0  0  0  0  0  0
    7.2748   12.7164   22.8966 H   0  0  0  0  0  0  0  0  0  0  0  0
    7.7224   10.1733   26.4599 H   0  0  0  0  0  0  0  0  0  0  0  0
    6.5314    9.7212   25.2188 H   0  0  0  0  0  0  0  0  0  0  0  0
    6.7621   12.2606   25.3465 H   0  0  0  0  0  0  0  0  0  0  0  0
   12.2069   14.3911   22.4439 H   0  0  0  0  0  0  0  0  0  0  0  0
   11.1138   13.9872   21.0838 H   0  0  0  0  0  0  0  0  0  0  0  0
   12.3659   12.8277   21.6015 H   0  0  0  0  0  0  0  0  0  0  0  0
    8.6145    8.4242   24.9664 H   0  0  0  0  0  0  0  0  0  0  0  0
  1  7  1  0  0  0  0
  1  9  1  0  0  0  0
  1 10  2  0  0  0  0
  2  7  1  0  0  0  0
  2 11  2  0  0  0  0
  2 12  1  0  0  0  0
  3  6  1  0  0  0  0
  3  7  1  0  0  0  0
  4  6  1  0  0  0  0
  4  7  1  0  0  0  0
  5  6  1  0  0  0  0
  5  9  1  0  0  0  0
  8 12  1  0  0  0  0
  3 13  1  0  0  0  0
  3 14  1  0  0  0  0
  4 15  1  0  0  0  0
  4 16  1  0  0  0  0
  5 17  1  0  0  0  0
  5 18  1  0  0  0  0
  6 19  1  0  0  0  0
  8 20  1  0  0  0  0
  8 21  1  0  0  0  0
  8 22  1  0  0  0  0
  9 23  1  0  0  0  0
M  END
> <id>
EN300-266829

> <smiles>
COC(=O)C1(CC2C1)C(=O)NC2

> <MDLNUMBER>
MFCD27991973

> <IUPAC Name>
methyl 2-oxo-3-azabicyclo[3.1.1]heptane-1-carboxylate

> <CAS>
1628783-91-4

> <Purity>
95

> <URL>
https://www.enaminestore.com/catalog/EN300-266829

> <MP>
115-116

> <ROCS_ShapeQuery>
x0812_0A_x1140_0A_x1097_0A_x0365_0A_x1097_0A_x0310_0A

> <ROCS_TanimotoCombo>
0.694 

> <ROCS_ShapeTanimoto>
0.227 

> <ROCS_ColorTanimoto>
0.467 

> <ROCS_RefTversky>
0.204 

> <ROCS_RefColorTversky>
0.520 

> <ROCS_RefTverskyCombo>
0.724 

> <ROCS_FitTversky>
1.994 

> <ROCS_FitColorTversky>
0.822 

> <ROCS_FitTverskyCombo>
2.815 

> <ROCS_ColorScore>
-7.709

> <ROCS_Overlap>
2063.748

> <ROCS_Rank>
454                 

$$$$
untitled-dbase-39768_2
  -OEChem-02092408543D

 32 34  0     1  0  0  0  0  0999 V2000
    9.1707    9.9750   25.5023 C   0  0  0  0  0  0  0  0  0  0  0  0
    8.1892   12.2826   25.4212 C   0  0  0  0  0  0  0  0  0  0  0  0
   10.1092   11.6828   23.9273 C   0  0  0  0  0  0  0  0  0  0  0  0
    8.8111    9.7309   23.0364 C   0  0  0  0  0  0  0  0  0  0  0  0
    7.8263   12.0463   22.9551 C   0  0  0  0  0  0  0  0  0  0  0  0
    9.4904   11.4684   25.3177 C   0  0  0  0  0  0  0  0  0  0  0  0
    8.1768    9.5046   24.4211 C   0  0  2  0  0  0  0  0  0  0  0  0
    7.1884   11.8285   24.3395 C   0  0  1  0  0  0  0  0  0  0  0  0
    6.8694   10.3249   24.5001 C   0  0  0  0  0  0  0  0  0  0  0  0
    9.1245   11.2257   22.8379 C   0  0  0  0  0  0  0  0  0  0  0  0
   10.0289   12.8028   21.3487 C   0  0  0  0  0  0  0  0  0  0  0  0
    6.1609   10.0676   25.7553 N   0  0  0  0  0  0  0  0  0  0  0  0
    9.7166   11.4328   21.5635 O   0  0  0  0  0  0  0  0  0  0  0  0
   10.0950    9.3872   25.4354 H   0  0  0  0  0  0  0  0  0  0  0  0
    8.7632    9.7986   26.5046 H   0  0  0  0  0  0  0  0  0  0  0  0
    7.7541   12.1706   26.4212 H   0  0  0  0  0  0  0  0  0  0  0  0
    8.4095   13.3503   25.2959 H   0  0  0  0  0  0  0  0  0  0  0  0
   10.3697   12.7393   23.7822 H   0  0  0  0  0  0  0  0  0  0  0  0
   11.0540   11.1307   23.8387 H   0  0  0  0  0  0  0  0  0  0  0  0
    9.7282    9.1366   22.9326 H   0  0  0  0  0  0  0  0  0  0  0  0
    8.1382    9.3771   22.2445 H   0  0  0  0  0  0  0  0  0  0  0  0
    7.1249   11.7593   22.1612 H   0  0  0  0  0  0  0  0  0  0  0  0
    8.0375   13.1112   22.7928 H   0  0  0  0  0  0  0  0  0  0  0  0
   10.1948   11.7951   26.0907 H   0  0  0  0  0  0  0  0  0  0  0  0
    7.9669    8.4361   24.5524 H   0  0  0  0  0  0  0  0  0  0  0  0
    6.2707   12.4245   24.4124 H   0  0  0  0  0  0  0  0  0  0  0  0
    6.2041   10.0133   23.6842 H   0  0  0  0  0  0  0  0  0  0  0  0
   10.4813   12.9238   20.3614 H   0  0  0  0  0  0  0  0  0  0  0  0
   10.7204   13.1455   22.1226 H   0  0  0  0  0  0  0  0  0  0  0  0
    9.1085   13.3894   21.3996 H   0  0  0  0  0  0  0  0  0  0  0  0
    6.7010    9.4287   26.2872 H   0  0  0  0  0  0  0  0  0  0  0  0
    6.0617   10.9304   26.2335 H   0  0  0  0  0  0  0  0  0  0  0  0
  1  6  1  0  0  0  0
  1  7  1  0  0  0  0
  2  6  1  0  0  0  0
  2  8  1  0  0  0  0
  3  6  1  0  0  0  0
  3 10  1  0  0  0  0
  4  7  1  0  0  0  0
  4 10  1  0  0  0  0
  5  8  1  0  0  0  0
  5 10  1  0  0  0  0
  7  9  1  0  0  0  0
  8  9  1  0  0  0  0
  9 12  1  0  0  0  0
 10 13  1  0  0  0  0
 11 13  1  0  0  0  0
  1 14  1  0  0  0  0
  1 15  1  0  0  0  0
  2 16  1  0  0  0  0
  2 17  1  0  0  0  0
  3 18  1  0  0  0  0
  3 19  1  0  0  0  0
  4 20  1  0  0  0  0
  4 21  1  0  0  0  0
  5 22  1  0  0  0  0
  5 23  1  0  0  0  0
  6 24  1  0  0  0  0
  7 25  1  0  0  0  0
  8 26  1  0  0  0  0
  9 27  1  0  0  0  0
 11 28  1  0  0  0  0
 11 29  1  0  0  0  0
 11 30  1  0  0  0  0
 12 31  1  0  0  0  0
 12 32  1  0  0  0  0
M  END
> <id>
EN300-201071

> <smiles>
Cl.COC1(CC2CC3C1)CC(C2)C3N

> <MDLNUMBER>
MFCD28246525

> <IUPAC Name>
5-methoxyadamantan-2-amine hydrochloride

> <CAS>
1803589-52-7

> <Purity>
95

> <URL>
https://www.enaminestore.com/catalog/EN300-201071

> <Saltdate>
Cl

> <ROCS_ShapeQuery>
x0812_0A_x1140_0A_x1097_0A_x0365_0A_x1097_0A_x0310_0A

> <ROCS_TanimotoCombo>
0.694 

> <ROCS_ShapeTanimoto>
0.222 

> <ROCS_ColorTanimoto>
0.472 

> <ROCS_RefTversky>
0.202 

> <ROCS_RefColorTversky>
0.531 

> <ROCS_RefTverskyCombo>
0.733 

> <ROCS_FitTversky>
1.879 

> <ROCS_FitColorTversky>
0.809 

> <ROCS_FitTverskyCombo>
2.688 

> <ROCS_ColorScore>
-7.888

> <ROCS_Overlap>
2037.701

> <ROCS_Rank>
455                 

$$$$
untitled-dbase-521296_2
  -OEChem-02092408543D

 32 34  0     1  0  0  0  0  0999 V2000
    9.1707    9.9750   25.5023 C   0  0  0  0  0  0  0  0  0  0  0  0
    8.1892   12.2826   25.4212 C   0  0  0  0  0  0  0  0  0  0  0  0
   10.1092   11.6828   23.9273 C   0  0  0  0  0  0  0  0  0  0  0  0
    8.8111    9.7309   23.0364 C   0  0  0  0  0  0  0  0  0  0  0  0
    7.8263   12.0463   22.9551 C   0  0  0  0  0  0  0  0  0  0  0  0
    9.4904   11.4684   25.3177 C   0  0  0  0  0  0  0  0  0  0  0  0
    8.1768    9.5046   24.4211 C   0  0  2  0  0  0  0  0  0  0  0  0
    7.1884   11.8285   24.3395 C   0  0  1  0  0  0  0  0  0  0  0  0
    6.8694   10.3249   24.5001 C   0  0  0  0  0  0  0  0  0  0  0  0
    9.1245   11.2257   22.8379 C   0  0  0  0  0  0  0  0  0  0  0  0
   10.0289   12.8028   21.3487 C   0  0  0  0  0  0  0  0  0  0  0  0
    6.1609   10.0676   25.7553 N   0  0  0  0  0  0  0  0  0  0  0  0
    9.7166   11.4328   21.5635 O   0  0  0  0  0  0  0  0  0  0  0  0
   10.0950    9.3872   25.4354 H   0  0  0  0  0  0  0  0  0  0  0  0
    8.7632    9.7986   26.5046 H   0  0  0  0  0  0  0  0  0  0  0  0
    7.7541   12.1706   26.4212 H   0  0  0  0  0  0  0  0  0  0  0  0
    8.4095   13.3503   25.2959 H   0  0  0  0  0  0  0  0  0  0  0  0
   10.3697   12.7393   23.7822 H   0  0  0  0  0  0  0  0  0  0  0  0
   11.0540   11.1307   23.8387 H   0  0  0  0  0  0  0  0  0  0  0  0
    9.7282    9.1366   22.9326 H   0  0  0  0  0  0  0  0  0  0  0  0
    8.1382    9.3771   22.2445 H   0  0  0  0  0  0  0  0  0  0  0  0
    7.1249   11.7593   22.1612 H   0  0  0  0  0  0  0  0  0  0  0  0
    8.0375   13.1112   22.7928 H   0  0  0  0  0  0  0  0  0  0  0  0
   10.1948   11.7951   26.0907 H   0  0  0  0  0  0  0  0  0  0  0  0
    7.9669    8.4361   24.5524 H   0  0  0  0  0  0  0  0  0  0  0  0
    6.2707   12.4245   24.4124 H   0  0  0  0  0  0  0  0  0  0  0  0
    6.2041   10.0133   23.6842 H   0  0  0  0  0  0  0  0  0  0  0  0
   10.4813   12.9238   20.3614 H   0  0  0  0  0  0  0  0  0  0  0  0
   10.7204   13.1455   22.1226 H   0  0  0  0  0  0  0  0  0  0  0  0
    9.1085   13.3894   21.3996 H   0  0  0  0  0  0  0  0  0  0  0  0
    6.7010    9.4287   26.2872 H   0  0  0  0  0  0  0  0  0  0  0  0
    6.0617   10.9304   26.2335 H   0  0  0  0  0  0  0  0  0  0  0  0
  1  6  1  0  0  0  0
  1  7  1  0  0  0  0
  2  6  1  0  0  0  0
  2  8  1  0  0  0  0
  3  6  1  0  0  0  0
  3 10  1  0  0  0  0
  4  7  1  0  0  0  0
  4 10  1  0  0  0  0
  5  8  1  0  0  0  0
  5 10  1  0  0  0  0
  7  9  1  0  0  0  0
  8  9  1  0  0  0  0
  9 12  1  0  0  0  0
 10 13  1  0  0  0  0
 11 13  1  0  0  0  0
  1 14  1  0  0  0  0
  1 15  1  0  0  0  0
  2 16  1  0  0  0  0
  2 17  1  0  0  0  0
  3 18  1  0  0  0  0
  3 19  1  0  0  0  0
  4 20  1  0  0  0  0
  4 21  1  0  0  0  0
  5 22  1  0  0  0  0
  5 23  1  0  0  0  0
  6 24  1  0  0  0  0
  7 25  1  0  0  0  0
  8 26  1  0  0  0  0
  9 27  1  0  0  0  0
 11 28  1  0  0  0  0
 11 29  1  0  0  0  0
 11 30  1  0  0  0  0
 12 31  1  0  0  0  0
 12 32  1  0  0  0  0
M  END
> <id>
EN300-201070

> <smiles>
COC1(CC2CC3C1)CC(C2)C3N

> <MDLNUMBER>
MFCD20696991

> <IUPAC Name>
5-methoxyadamantan-2-amine

> <CAS>
923595-78-2

> <URL>
https://www.enaminestore.com/catalog/EN300-201070

> <ROCS_ShapeQuery>
x0812_0A_x1140_0A_x1097_0A_x0365_0A_x1097_0A_x0310_0A

> <ROCS_TanimotoCombo>
0.694 

> <ROCS_ShapeTanimoto>
0.222 

> <ROCS_ColorTanimoto>
0.472 

> <ROCS_RefTversky>
0.202 

> <ROCS_RefColorTversky>
0.531 

> <ROCS_RefTverskyCombo>
0.733 

> <ROCS_FitTversky>
1.879 

> <ROCS_FitColorTversky>
0.809 

> <ROCS_FitTverskyCombo>
2.688 

> <ROCS_ColorScore>
-7.888

> <ROCS_Overlap>
2037.701

> <ROCS_Rank>
456                 

$$$$
untitled-dbase-393024_0
  -OEChem-02092408543D

 30 31  0     0  0  0  0  0  0999 V2000
   10.3341   11.7806   22.4482 C   0  0  0  0  0  0  0  0  0  0  0  0
    8.7221   12.5582   24.1911 C   0  0  0  0  0  0  0  0  0  0  0  0
    8.1066   10.6939   22.6402 C   0  0  0  0  0  0  0  0  0  0  0  0
    9.8280   10.3273   24.4168 C   0  0  0  0  0  0  0  0  0  0  0  0
    7.6196   12.1136   25.1636 C   0  0  0  0  0  0  0  0  0  0  0  0
    7.0040   10.2475   23.6119 C   0  0  0  0  0  0  0  0  0  0  0  0
    8.7282    9.8803   25.3916 C   0  0  0  0  0  0  0  0  0  0  0  0
    9.2672   11.3483   23.4113 C   0  0  0  0  0  0  0  0  0  0  0  0
    7.3965   10.5894   25.0642 C   0  0  0  0  0  0  0  0  0  0  0  0
   12.4515   12.8233   22.3330 C   0  0  0  0  0  0  0  0  0  0  0  0
    6.3431   10.1718   25.9842 N   0  0  0  0  0  0  0  0  0  0  0  0
   10.2684   11.6225   21.2367 O   0  0  0  0  0  0  0  0  0  0  0  0
   11.3590   12.3621   23.1341 O   0  0  0  0  0  0  0  0  0  0  0  0
    8.3227   13.3145   23.5030 H   0  0  0  0  0  0  0  0  0  0  0  0
    9.5286   13.0544   24.7464 H   0  0  0  0  0  0  0  0  0  0  0  0
    8.4637    9.8303   22.0643 H   0  0  0  0  0  0  0  0  0  0  0  0
    7.6898   11.3934   21.9040 H   0  0  0  0  0  0  0  0  0  0  0  0
   10.6671   10.7590   24.9774 H   0  0  0  0  0  0  0  0  0  0  0  0
   10.2354    9.4520   23.8945 H   0  0  0  0  0  0  0  0  0  0  0  0
    7.9007   12.3990   26.1857 H   0  0  0  0  0  0  0  0  0  0  0  0
    6.6931   12.6563   24.9352 H   0  0  0  0  0  0  0  0  0  0  0  0
    6.0598   10.7371   23.3398 H   0  0  0  0  0  0  0  0  0  0  0  0
    6.8364    9.1685   23.4987 H   0  0  0  0  0  0  0  0  0  0  0  0
    8.6116    8.7904   25.3322 H   0  0  0  0  0  0  0  0  0  0  0  0
    9.0428   10.1020   26.4196 H   0  0  0  0  0  0  0  0  0  0  0  0
   13.2135   13.2694   22.9767 H   0  0  0  0  0  0  0  0  0  0  0  0
   12.0901   13.5615   21.6126 H   0  0  0  0  0  0  0  0  0  0  0  0
   12.8823   11.9744   21.7967 H   0  0  0  0  0  0  0  0  0  0  0  0
    5.6139    9.7557   25.4545 H   0  0  0  0  0  0  0  0  0  0  0  0
    6.7296    9.5172   26.6227 H   0  0  0  0  0  0  0  0  0  0  0  0
  1  8  1  0  0  0  0
  1 12  2  0  0  0  0
  1 13  1  0  0  0  0
  2  5  1  0  0  0  0
  2  8  1  0  0  0  0
  3  6  1  0  0  0  0
  3  8  1  0  0  0  0
  4  7  1  0  0  0  0
  4  8  1  0  0  0  0
  5  9  1  0  0  0  0
  6  9  1  0  0  0  0
  7  9  1  0  0  0  0
  9 11  1  0  0  0  0
 10 13  1  0  0  0  0
  2 14  1  0  0  0  0
  2 15  1  0  0  0  0
  3 16  1  0  0  0  0
  3 17  1  0  0  0  0
  4 18  1  0  0  0  0
  4 19  1  0  0  0  0
  5 20  1  0  0  0  0
  5 21  1  0  0  0  0
  6 22  1  0  0  0  0
  6 23  1  0  0  0  0
  7 24  1  0  0  0  0
  7 25  1  0  0  0  0
 10 26  1  0  0  0  0
 10 27  1  0  0  0  0
 10 28  1  0  0  0  0
 11 29  1  0  0  0  0
 11 30  1  0  0  0  0
M  END
> <id>
EN300-268751

> <smiles>
COC(=O)C1(CCC2(N)CC1)CC2

> <MDLNUMBER>
MFCD20693756

> <IUPAC Name>
methyl 4-aminobicyclo[2.2.2]octane-1-carboxylate

> <CAS>
135908-33-7

> <URL>
https://www.enaminestore.com/catalog/EN300-268751

> <ROCS_ShapeQuery>
x0812_0A_x1140_0A_x1097_0A_x0365_0A_x1097_0A_x0310_0A

> <ROCS_TanimotoCombo>
0.694 

> <ROCS_ShapeTanimoto>
0.228 

> <ROCS_ColorTanimoto>
0.466 

> <ROCS_RefTversky>
0.206 

> <ROCS_RefColorTversky>
0.517 

> <ROCS_RefTverskyCombo>
0.723 

> <ROCS_FitTversky>
1.939 

> <ROCS_FitColorTversky>
0.824 

> <ROCS_FitTverskyCombo>
2.764 

> <ROCS_ColorScore>
-7.666

> <ROCS_Overlap>
2080.040

> <ROCS_Rank>
457                 

$$$$
untitled-dbase-304623_0
  -OEChem-02092408543D

 30 31  0     0  0  0  0  0  0999 V2000
   10.3341   11.7806   22.4482 C   0  0  0  0  0  0  0  0  0  0  0  0
    8.7221   12.5582   24.1911 C   0  0  0  0  0  0  0  0  0  0  0  0
    8.1066   10.6939   22.6402 C   0  0  0  0  0  0  0  0  0  0  0  0
    9.8280   10.3273   24.4168 C   0  0  0  0  0  0  0  0  0  0  0  0
    7.6196   12.1136   25.1636 C   0  0  0  0  0  0  0  0  0  0  0  0
    7.0040   10.2475   23.6119 C   0  0  0  0  0  0  0  0  0  0  0  0
    8.7282    9.8803   25.3916 C   0  0  0  0  0  0  0  0  0  0  0  0
    9.2672   11.3483   23.4113 C   0  0  0  0  0  0  0  0  0  0  0  0
    7.3965   10.5894   25.0642 C   0  0  0  0  0  0  0  0  0  0  0  0
   12.4515   12.8233   22.3330 C   0  0  0  0  0  0  0  0  0  0  0  0
    6.3431   10.1718   25.9842 N   0  0  0  0  0  0  0  0  0  0  0  0
   10.2684   11.6225   21.2367 O   0  0  0  0  0  0  0  0  0  0  0  0
   11.3590   12.3621   23.1341 O   0  0  0  0  0  0  0  0  0  0  0  0
    8.3227   13.3145   23.5030 H   0  0  0  0  0  0  0  0  0  0  0  0
    9.5286   13.0544   24.7464 H   0  0  0  0  0  0  0  0  0  0  0  0
    8.4637    9.8303   22.0643 H   0  0  0  0  0  0  0  0  0  0  0  0
    7.6898   11.3934   21.9040 H   0  0  0  0  0  0  0  0  0  0  0  0
   10.6671   10.7590   24.9774 H   0  0  0  0  0  0  0  0  0  0  0  0
   10.2354    9.4520   23.8945 H   0  0  0  0  0  0  0  0  0  0  0  0
    7.9007   12.3990   26.1857 H   0  0  0  0  0  0  0  0  0  0  0  0
    6.6931   12.6563   24.9352 H   0  0  0  0  0  0  0  0  0  0  0  0
    6.0598   10.7371   23.3398 H   0  0  0  0  0  0  0  0  0  0  0  0
    6.8364    9.1685   23.4987 H   0  0  0  0  0  0  0  0  0  0  0  0
    8.6116    8.7904   25.3322 H   0  0  0  0  0  0  0  0  0  0  0  0
    9.0428   10.1020   26.4196 H   0  0  0  0  0  0  0  0  0  0  0  0
   13.2135   13.2694   22.9767 H   0  0  0  0  0  0  0  0  0  0  0  0
   12.0901   13.5615   21.6126 H   0  0  0  0  0  0  0  0  0  0  0  0
   12.8823   11.9744   21.7967 H   0  0  0  0  0  0  0  0  0  0  0  0
    5.6139    9.7557   25.4545 H   0  0  0  0  0  0  0  0  0  0  0  0
    6.7296    9.5172   26.6227 H   0  0  0  0  0  0  0  0  0  0  0  0
  1  8  1  0  0  0  0
  1 12  2  0  0  0  0
  1 13  1  0  0  0  0
  2  5  1  0  0  0  0
  2  8  1  0  0  0  0
  3  6  1  0  0  0  0
  3  8  1  0  0  0  0
  4  7  1  0  0  0  0
  4  8  1  0  0  0  0
  5  9  1  0  0  0  0
  6  9  1  0  0  0  0
  7  9  1  0  0  0  0
  9 11  1  0  0  0  0
 10 13  1  0  0  0  0
  2 14  1  0  0  0  0
  2 15  1  0  0  0  0
  3 16  1  0  0  0  0
  3 17  1  0  0  0  0
  4 18  1  0  0  0  0
  4 19  1  0  0  0  0
  5 20  1  0  0  0  0
  5 21  1  0  0  0  0
  6 22  1  0  0  0  0
  6 23  1  0  0  0  0
  7 24  1  0  0  0  0
  7 25  1  0  0  0  0
 10 26  1  0  0  0  0
 10 27  1  0  0  0  0
 10 28  1  0  0  0  0
 11 29  1  0  0  0  0
 11 30  1  0  0  0  0
M  END
> <id>
EN300-7354013

> <smiles>
Cl.COC(=O)C1(CCC2(N)CC1)CC2

> <MDLNUMBER>
MFCD23701421

> <IUPAC Name>
methyl 4-aminobicyclo[2.2.2]octane-1-carboxylate hydrochloride

> <CAS>
135908-43-9

> <Purity>
95

> <URL>
https://www.enaminestore.com/catalog/EN300-7354013

> <Saltdate>
Cl

> <ROCS_ShapeQuery>
x0812_0A_x1140_0A_x1097_0A_x0365_0A_x1097_0A_x0310_0A

> <ROCS_TanimotoCombo>
0.694 

> <ROCS_ShapeTanimoto>
0.228 

> <ROCS_ColorTanimoto>
0.466 

> <ROCS_RefTversky>
0.206 

> <ROCS_RefColorTversky>
0.517 

> <ROCS_RefTverskyCombo>
0.723 

> <ROCS_FitTversky>
1.939 

> <ROCS_FitColorTversky>
0.824 

> <ROCS_FitTverskyCombo>
2.764 

> <ROCS_ColorScore>
-7.666

> <ROCS_Overlap>
2080.040

> <ROCS_Rank>
458                 

$$$$
untitled-dbase-300148_4
  -OEChem-02092408543D

 31 33  0     0  0  0  0  0  0999 V2000
   11.4058   13.2773   21.4290 C   0  0  0  0  0  0  0  0  0  0  0  0
   12.0035   14.2497   22.2307 C   0  0  0  0  0  0  0  0  0  0  0  0
   10.7207   13.4755   24.1261 C   0  0  0  0  0  0  0  0  0  0  0  0
   10.1230   12.5031   23.3243 C   0  0  0  0  0  0  0  0  0  0  0  0
   10.4655   12.4040   21.9758 C   0  0  0  0  0  0  0  0  0  0  0  0
   11.6610   14.3488   23.5792 C   0  0  0  0  0  0  0  0  0  0  0  0
    9.0217   11.0496   25.4089 C   0  0  0  0  0  0  0  0  0  0  0  0
    8.7823   10.0876   23.5225 C   0  0  0  0  0  0  0  0  0  0  0  0
    7.5530   11.7533   24.0326 C   0  0  0  0  0  0  0  0  0  0  0  0
    9.1227   11.5817   23.9210 C   0  0  0  0  0  0  0  0  0  0  0  0
    7.8470   10.4064   24.6817 C   0  0  0  0  0  0  0  0  0  0  0  0
   10.2950   11.4284   19.8136 C   0  0  0  0  0  0  0  0  0  0  0  0
    5.8906   10.2850   25.9559 N   0  0  0  0  0  0  0  0  0  0  0  0
    6.9004    9.5340   25.2471 N   0  0  0  0  0  0  0  0  0  0  0  0
    9.8881   11.4610   21.1803 O   0  0  0  0  0  0  0  0  0  0  0  0
   12.2356   15.2828   24.3486 F   0  0  0  0  0  0  0  0  0  0  0  0
   11.6756   13.2063   20.3788 H   0  0  0  0  0  0  0  0  0  0  0  0
   12.7348   14.9310   21.8059 H   0  0  0  0  0  0  0  0  0  0  0  0
   10.4587   13.5604   25.1769 H   0  0  0  0  0  0  0  0  0  0  0  0
    9.8240   10.3908   25.7577 H   0  0  0  0  0  0  0  0  0  0  0  0
    8.7934   11.7868   26.1860 H   0  0  0  0  0  0  0  0  0  0  0  0
    8.3309    9.9262   22.5378 H   0  0  0  0  0  0  0  0  0  0  0  0
    9.5621    9.3376   23.6926 H   0  0  0  0  0  0  0  0  0  0  0  0
    7.1854   12.5571   24.6792 H   0  0  0  0  0  0  0  0  0  0  0  0
    6.9840   11.7511   23.0969 H   0  0  0  0  0  0  0  0  0  0  0  0
    9.7591   10.6316   19.2920 H   0  0  0  0  0  0  0  0  0  0  0  0
   11.3726   11.2548   19.7574 H   0  0  0  0  0  0  0  0  0  0  0  0
   10.0579   12.3885   19.3492 H   0  0  0  0  0  0  0  0  0  0  0  0
    5.9226   10.0280   26.9422 H   0  0  0  0  0  0  0  0  0  0  0  0
    6.0942   11.2831   25.9216 H   0  0  0  0  0  0  0  0  0  0  0  0
    6.4084    8.9715   24.5278 H   0  0  0  0  0  0  0  0  0  0  0  0
  1  2  2  0  0  0  0
  1  5  1  0  0  0  0
  2  6  1  0  0  0  0
  3  4  1  0  0  0  0
  3  6  2  0  0  0  0
  4  5  2  0  0  0  0
  4 10  1  0  0  0  0
  5 15  1  0  0  0  0
  6 16  1  0  0  0  0
  7 10  1  0  0  0  0
  7 11  1  0  0  0  0
  8 10  1  0  0  0  0
  8 11  1  0  0  0  0
  9 10  1  0  0  0  0
  9 11  1  0  0  0  0
 11 14  1  0  0  0  0
 12 15  1  0  0  0  0
 13 14  1  0  0  0  0
  1 17  1  0  0  0  0
  2 18  1  0  0  0  0
  3 19  1  0  0  0  0
  7 20  1  0  0  0  0
  7 21  1  0  0  0  0
  8 22  1  0  0  0  0
  8 23  1  0  0  0  0
  9 24  1  0  0  0  0
  9 25  1  0  0  0  0
 12 26  1  0  0  0  0
 12 27  1  0  0  0  0
 12 28  1  0  0  0  0
 13 29  1  0  0  0  0
 13 30  1  0  0  0  0
 14 31  1  0  0  0  0
M  END
> <id>
EN300-6760380

> <smiles>
COC=1C=CC(F)=CC1C2(CC3(C2)NN)C3

> <IUPAC Name>
[3-(5-fluoro-2-methoxyphenyl)bicyclo[1.1.1]pentan-1-yl]hydrazine

> <CAS>
2287345-09-7

> <URL>
https://www.enaminestore.com/catalog/EN300-6760380

> <ROCS_ShapeQuery>
x0812_0A_x1140_0A_x1097_0A_x0365_0A_x1097_0A_x0310_0A

> <ROCS_TanimotoCombo>
0.694 

> <ROCS_ShapeTanimoto>
0.226 

> <ROCS_ColorTanimoto>
0.468 

> <ROCS_RefTversky>
0.207 

> <ROCS_RefColorTversky>
0.573 

> <ROCS_RefTverskyCombo>
0.780 

> <ROCS_FitTversky>
1.716 

> <ROCS_FitColorTversky>
0.719 

> <ROCS_FitTverskyCombo>
2.435 

> <ROCS_ColorScore>
-8.579

> <ROCS_Overlap>
2089.668

> <ROCS_Rank>
459                 

$$$$
untitled-dbase-208475_6
  -OEChem-02092408543D

 39 41  0     0  0  0  0  0  0999 V2000
    8.0108    9.2979   23.8292 C   0  0  0  0  0  0  0  0  0  0  0  0
    6.6247   11.2779   24.4970 C   0  0  0  0  0  0  0  0  0  0  0  0
    8.6057   10.6098   25.8816 C   0  0  0  0  0  0  0  0  0  0  0  0
    8.0845   11.3988   22.4614 C   0  0  0  0  0  0  0  0  0  0  0  0
   10.0700   10.7292   23.8490 C   0  0  0  0  0  0  0  0  0  0  0  0
    8.6810   12.7136   24.5186 C   0  0  0  0  0  0  0  0  0  0  0  0
    7.1815   10.4819   23.3050 C   0  0  0  0  0  0  0  0  0  0  0  0
    9.1724    9.8106   24.6964 C   0  0  0  0  0  0  0  0  0  0  0  0
    7.7794   11.8005   25.3677 C   0  0  0  0  0  0  0  0  0  0  0  0
    9.2594   11.9334   23.3142 C   0  0  0  0  0  0  0  0  0  0  0  0
   10.1556   12.8449   22.4717 C   0  0  0  0  0  0  0  0  0  0  0  0
   12.2452   14.2567   22.5869 C   0  0  0  0  0  0  0  0  0  0  0  0
   11.7322   15.5317   23.2475 C   0  0  0  0  0  0  0  0  0  0  0  0
   11.5265   13.0190   23.1058 C   0  0  0  0  0  0  0  0  0  0  0  0
   12.4458   16.6541   22.7458 O   0  0  0  0  0  0  0  0  0  0  0  0
   11.3944   13.1086   24.4539 F   0  0  0  0  0  0  0  0  0  0  0  0
   12.2846   11.9212   22.8549 F   0  0  0  0  0  0  0  0  0  0  0  0
    7.3735    8.6254   24.4166 H   0  0  0  0  0  0  0  0  0  0  0  0
    8.4012    8.7120   22.9879 H   0  0  0  0  0  0  0  0  0  0  0  0
    6.0175   12.1172   24.1364 H   0  0  0  0  0  0  0  0  0  0  0  0
    5.9627   10.6406   25.0962 H   0  0  0  0  0  0  0  0  0  0  0  0
    7.9789    9.9606   26.5053 H   0  0  0  0  0  0  0  0  0  0  0  0
    9.4242   10.9685   26.5177 H   0  0  0  0  0  0  0  0  0  0  0  0
    8.4664   10.8434   21.5950 H   0  0  0  0  0  0  0  0  0  0  0  0
    7.4931   12.2338   22.0641 H   0  0  0  0  0  0  0  0  0  0  0  0
   10.9151   11.0798   24.4555 H   0  0  0  0  0  0  0  0  0  0  0  0
   10.4972   10.1585   23.0142 H   0  0  0  0  0  0  0  0  0  0  0  0
    8.1034   13.5788   24.1682 H   0  0  0  0  0  0  0  0  0  0  0  0
    9.4944   13.1091   25.1404 H   0  0  0  0  0  0  0  0  0  0  0  0
    6.3544   10.1104   22.6896 H   0  0  0  0  0  0  0  0  0  0  0  0
    9.7583    8.9628   25.0687 H   0  0  0  0  0  0  0  0  0  0  0  0
    7.3765   12.3648   26.2161 H   0  0  0  0  0  0  0  0  0  0  0  0
   10.2523   12.4029   21.4767 H   0  0  0  0  0  0  0  0  0  0  0  0
    9.6592   13.8136   22.3722 H   0  0  0  0  0  0  0  0  0  0  0  0
   13.3236   14.1740   22.7687 H   0  0  0  0  0  0  0  0  0  0  0  0
   12.1150   14.3422   21.5011 H   0  0  0  0  0  0  0  0  0  0  0  0
   11.8793   15.4972   24.3314 H   0  0  0  0  0  0  0  0  0  0  0  0
   10.6662   15.6832   23.0507 H   0  0  0  0  0  0  0  0  0  0  0  0
   12.0861   17.4371   23.1930 H   0  0  0  0  0  0  0  0  0  0  0  0
  1  7  1  0  0  0  0
  1  8  1  0  0  0  0
  2  7  1  0  0  0  0
  2  9  1  0  0  0  0
  3  8  1  0  0  0  0
  3  9  1  0  0  0  0
  4  7  1  0  0  0  0
  4 10  1  0  0  0  0
  5  8  1  0  0  0  0
  5 10  1  0  0  0  0
  6  9  1  0  0  0  0
  6 10  1  0  0  0  0
 10 11  1  0  0  0  0
 11 14  1  0  0  0  0
 12 13  1  0  0  0  0
 12 14  1  0  0  0  0
 13 15  1  0  0  0  0
 14 16  1  0  0  0  0
 14 17  1  0  0  0  0
  1 18  1  0  0  0  0
  1 19  1  0  0  0  0
  2 20  1  0  0  0  0
  2 21  1  0  0  0  0
  3 22  1  0  0  0  0
  3 23  1  0  0  0  0
  4 24  1  0  0  0  0
  4 25  1  0  0  0  0
  5 26  1  0  0  0  0
  5 27  1  0  0  0  0
  6 28  1  0  0  0  0
  6 29  1  0  0  0  0
  7 30  1  0  0  0  0
  8 31  1  0  0  0  0
  9 32  1  0  0  0  0
 11 33  1  0  0  0  0
 11 34  1  0  0  0  0
 12 35  1  0  0  0  0
 12 36  1  0  0  0  0
 13 37  1  0  0  0  0
 13 38  1  0  0  0  0
 15 39  1  0  0  0  0
M  END
> <id>
EN300-1962479

> <smiles>
OCCC(F)(F)CC1(CC2CC3CC(C2)C1)C3

> <IUPAC Name>
4-(adamantan-1-yl)-3,3-difluorobutan-1-ol

> <CAS>
2228214-18-2

> <URL>
https://www.enaminestore.com/catalog/EN300-1962479

> <ROCS_ShapeQuery>
x0812_0A_x1140_0A_x1097_0A_x0365_0A_x1097_0A_x0310_0A

> <ROCS_TanimotoCombo>
0.694 

> <ROCS_ShapeTanimoto>
0.251 

> <ROCS_ColorTanimoto>
0.443 

> <ROCS_RefTversky>
0.225 

> <ROCS_RefColorTversky>
0.490 

> <ROCS_RefTverskyCombo>
0.715 

> <ROCS_FitTversky>
1.825 

> <ROCS_FitColorTversky>
0.824 

> <ROCS_FitTverskyCombo>
2.649 

> <ROCS_ColorScore>
-7.248

> <ROCS_Overlap>
2281.469

> <ROCS_Rank>
460                 

$$$$
untitled-dbase-473735_4
  -OEChem-02092408543D

 37 38  0     1  0  0  0  0  0999 V2000
    9.8770   13.3344   22.8112 C   0  0  0  0  0  0  0  0  0  0  0  0
    7.3275   10.8375   25.0764 C   0  0  0  0  0  0  0  0  0  0  0  0
    9.6268   11.8770   24.8356 C   0  0  0  0  0  0  0  0  0  0  0  0
    8.0845   11.6416   22.7966 C   0  0  0  0  0  0  0  0  0  0  0  0
    8.8542   10.6342   25.2597 C   0  0  2  0  0  0  0  0  0  0  0  0
    7.6025   10.4424   23.6020 C   0  0  1  0  0  0  0  0  0  0  0  0
    8.7574    9.5272   24.1484 C   0  0  0  0  0  0  0  0  0  0  0  0
   12.1838   14.5935   21.6831 C   0  0  0  0  0  0  0  0  0  0  0  0
   13.1318   14.5237   24.0081 C   0  0  0  0  0  0  0  0  0  0  0  0
   12.5803   12.3821   22.8175 C   0  0  0  0  0  0  0  0  0  0  0  0
    8.3689    8.1277   24.6158 C   0  0  0  0  0  0  0  0  0  0  0  0
   12.1895   13.8459   23.0157 C   0  0  0  0  0  0  0  0  0  0  0  0
    9.2269   12.2823   23.4721 N   0  0  0  0  0  0  0  0  0  0  0  0
    9.5919   13.7187   21.6785 O   0  0  0  0  0  0  0  0  0  0  0  0
    9.9186    9.4049   23.2946 O   0  0  0  0  0  0  0  0  0  0  0  0
   10.8704   13.8945   23.5711 O   0  0  0  0  0  0  0  0  0  0  0  0
    7.1614    8.1555   25.2010 F   0  0  0  0  0  0  0  0  0  0  0  0
    8.3245    7.2878   23.5699 F   0  0  0  0  0  0  0  0  0  0  0  0
    9.2688    7.6708   25.5007 F   0  0  0  0  0  0  0  0  0  0  0  0
    6.6952   10.1384   25.6343 H   0  0  0  0  0  0  0  0  0  0  0  0
    6.9400   11.8459   25.2526 H   0  0  0  0  0  0  0  0  0  0  0  0
    9.4285   12.7165   25.5115 H   0  0  0  0  0  0  0  0  0  0  0  0
   10.7059   11.6878   24.8401 H   0  0  0  0  0  0  0  0  0  0  0  0
    8.4006   11.3424   21.7910 H   0  0  0  0  0  0  0  0  0  0  0  0
    7.2920   12.3906   22.6870 H   0  0  0  0  0  0  0  0  0  0  0  0
    9.1458   10.2788   26.2535 H   0  0  0  0  0  0  0  0  0  0  0  0
    6.7758    9.9150   23.1150 H   0  0  0  0  0  0  0  0  0  0  0  0
   11.5086   14.1101   20.9680 H   0  0  0  0  0  0  0  0  0  0  0  0
   11.8714   15.6356   21.8065 H   0  0  0  0  0  0  0  0  0  0  0  0
   13.1791   14.5826   21.2243 H   0  0  0  0  0  0  0  0  0  0  0  0
   13.1390   13.9906   24.9657 H   0  0  0  0  0  0  0  0  0  0  0  0
   12.8000   15.5452   24.2261 H   0  0  0  0  0  0  0  0  0  0  0  0
   14.1573   14.5661   23.6271 H   0  0  0  0  0  0  0  0  0  0  0  0
   12.5844   11.8456   23.7732 H   0  0  0  0  0  0  0  0  0  0  0  0
   11.8928   11.8697   22.1366 H   0  0  0  0  0  0  0  0  0  0  0  0
   13.5957   12.3012   22.4131 H   0  0  0  0  0  0  0  0  0  0  0  0
   10.6484    9.1890   23.8862 H   0  0  0  0  0  0  0  0  0  0  0  0
  1 13  1  0  0  0  0
  1 14  2  0  0  0  0
  1 16  1  0  0  0  0
  2  5  1  0  0  0  0
  2  6  1  0  0  0  0
  3  5  1  0  0  0  0
  3 13  1  0  0  0  0
  4  6  1  0  0  0  0
  4 13  1  0  0  0  0
  5  7  1  0  0  0  0
  6  7  1  0  0  0  0
  7 11  1  0  0  0  0
  7 15  1  0  0  0  0
  8 12  1  0  0  0  0
  9 12  1  0  0  0  0
 10 12  1  0  0  0  0
 11 17  1  0  0  0  0
 11 18  1  0  0  0  0
 11 19  1  0  0  0  0
 12 16  1  0  0  0  0
  2 20  1  0  0  0  0
  2 21  1  0  0  0  0
  3 22  1  0  0  0  0
  3 23  1  0  0  0  0
  4 24  1  0  0  0  0
  4 25  1  0  0  0  0
  5 26  1  0  0  0  0
  6 27  1  0  0  0  0
  8 28  1  0  0  0  0
  8 29  1  0  0  0  0
  8 30  1  0  0  0  0
  9 31  1  0  0  0  0
  9 32  1  0  0  0  0
  9 33  1  0  0  0  0
 10 34  1  0  0  0  0
 10 35  1  0  0  0  0
 10 36  1  0  0  0  0
 15 37  1  0  0  0  0
M  END
> <id>
EN300-12722799

> <smiles>
CC(C)(C)OC(=O)N1CC2CC(C1)C2(O)C(F)(F)F

> <MDLNUMBER>
MFCD28010003

> <IUPAC Name>
tert-butyl 6-hydroxy-6-(trifluoromethyl)-3-azabicyclo[3.1.1]heptane-3-carboxylate

> <CAS>
1823863-66-6

> <URL>
https://www.enaminestore.com/catalog/EN300-12722799

> <ROCS_ShapeQuery>
x0812_0A_x1140_0A_x1097_0A_x0365_0A_x1097_0A_x0310_0A

> <ROCS_TanimotoCombo>
0.694 

> <ROCS_ShapeTanimoto>
0.227 

> <ROCS_ColorTanimoto>
0.467 

> <ROCS_RefTversky>
0.209 

> <ROCS_RefColorTversky>
0.541 

> <ROCS_RefTverskyCombo>
0.750 

> <ROCS_FitTversky>
1.572 

> <ROCS_FitColorTversky>
0.775 

> <ROCS_FitTverskyCombo>
2.347 

> <ROCS_ColorScore>
-8.049

> <ROCS_Overlap>
2119.468

> <ROCS_Rank>
461                 

$$$$
untitled-dbase-503474_8
  -OEChem-02092408543D

 38 40  0     1  0  0  0  0  0999 V2000
   13.2369   11.4152   18.6398 C   0  0  0  0  0  0  0  0  0  0  0  0
   14.0672   12.2615   19.3746 C   0  0  0  0  0  0  0  0  0  0  0  0
   11.8644   11.3964   18.8883 C   0  0  0  0  0  0  0  0  0  0  0  0
   13.5252   13.0889   20.3581 C   0  0  0  0  0  0  0  0  0  0  0  0
   11.3224   12.2239   19.8718 C   0  0  0  0  0  0  0  0  0  0  0  0
   12.1527   13.0701   20.6066 C   0  0  0  0  0  0  0  0  0  0  0  0
   10.6269   12.5169   23.2982 C   0  0  0  0  0  0  0  0  0  0  0  0
    7.9831   11.3633   25.4436 C   0  0  0  0  0  0  0  0  0  0  0  0
    7.6664    9.7349   23.7244 C   0  0  0  0  0  0  0  0  0  0  0  0
    8.1154   12.1571   23.2138 C   0  0  0  0  0  0  0  0  0  0  0  0
    7.2904   11.1940   24.0842 C   0  0  2  0  0  0  0  0  0  0  0  0
    9.3602   11.0063   24.8795 C   0  0  1  0  0  0  0  0  0  0  0  0
    9.1082    9.5983   24.2812 C   0  0  1  0  0  0  0  0  0  0  0  0
    9.2294    8.4778   25.3119 C   0  0  0  0  0  0  0  0  0  0  0  0
   11.5690   13.9598   21.6646 C   0  0  0  0  0  0  0  0  0  0  0  0
    9.4552   11.9545   23.7601 N   0  0  0  0  0  0  0  0  0  0  0  0
   11.7333   12.3154   23.7927 O   0  0  0  0  0  0  0  0  0  0  0  0
   10.0204    9.3156   23.2259 O   0  0  0  0  0  0  0  0  0  0  0  0
   10.4088   13.3288   22.2180 O   0  0  0  0  0  0  0  0  0  0  0  0
   13.6589   10.7720   17.8732 H   0  0  0  0  0  0  0  0  0  0  0  0
   15.1357   12.2770   19.1805 H   0  0  0  0  0  0  0  0  0  0  0  0
   11.2175   10.7385   18.3157 H   0  0  0  0  0  0  0  0  0  0  0  0
   14.1798   13.7449   20.9258 H   0  0  0  0  0  0  0  0  0  0  0  0
   10.2520   12.2024   20.0586 H   0  0  0  0  0  0  0  0  0  0  0  0
    7.9302   12.3881   25.8278 H   0  0  0  0  0  0  0  0  0  0  0  0
    7.6144   10.6725   26.2069 H   0  0  0  0  0  0  0  0  0  0  0  0
    6.9780    9.0484   24.2308 H   0  0  0  0  0  0  0  0  0  0  0  0
    7.6069    9.5537   22.6461 H   0  0  0  0  0  0  0  0  0  0  0  0
    8.0967   11.9201   22.1461 H   0  0  0  0  0  0  0  0  0  0  0  0
    7.8339   13.2041   23.3668 H   0  0  0  0  0  0  0  0  0  0  0  0
    6.2175   11.3932   24.0723 H   0  0  0  0  0  0  0  0  0  0  0  0
   10.2122   11.0773   25.5590 H   0  0  0  0  0  0  0  0  0  0  0  0
   10.2545    8.4187   25.6740 H   0  0  0  0  0  0  0  0  0  0  0  0
    8.9565    7.5270   24.8571 H   0  0  0  0  0  0  0  0  0  0  0  0
    8.5652    8.6753   26.1517 H   0  0  0  0  0  0  0  0  0  0  0  0
   12.2928   14.1424   22.4661 H   0  0  0  0  0  0  0  0  0  0  0  0
   11.2835   14.9291   21.2418 H   0  0  0  0  0  0  0  0  0  0  0  0
    9.7311    8.4810   22.8244 H   0  0  0  0  0  0  0  0  0  0  0  0
  1  2  1  0  0  0  0
  1  3  2  0  0  0  0
  2  4  2  0  0  0  0
  3  5  1  0  0  0  0
  4  6  1  0  0  0  0
  5  6  2  0  0  0  0
  6 15  1  0  0  0  0
  7 16  1  0  0  0  0
  7 17  2  0  0  0  0
  7 19  1  0  0  0  0
  8 11  1  6  0  0  0
  8 12  1  6  0  0  0
  9 11  1  0  0  0  0
  9 13  1  0  0  0  0
 10 11  1  0  0  0  0
 10 16  1  0  0  0  0
 12 13  1  0  0  0  0
 12 16  1  0  0  0  0
 13 14  1  6  0  0  0
 13 18  1  1  0  0  0
 15 19  1  0  0  0  0
  1 20  1  0  0  0  0
  2 21  1  0  0  0  0
  3 22  1  0  0  0  0
  4 23  1  0  0  0  0
  5 24  1  0  0  0  0
  8 25  1  0  0  0  0
  8 26  1  0  0  0  0
  9 27  1  0  0  0  0
  9 28  1  0  0  0  0
 10 29  1  0  0  0  0
 10 30  1  0  0  0  0
 11 31  1  0  0  0  0
 12 32  1  0  0  0  0
 14 33  1  0  0  0  0
 14 34  1  0  0  0  0
 14 35  1  0  0  0  0
 15 36  1  0  0  0  0
 15 37  1  0  0  0  0
 18 38  1  0  0  0  0
M  END
> <id>
EN300-28281080

> <smiles>
C[C@@]1(O)C[C@H]2C[C@@H]1N(C2)C(=O)OCC=3C=CC=CC3 |&1:1,4,6,r|

> <IUPAC Name>
rac-benzyl (1R,4S,6S)-6-hydroxy-6-methyl-2-azabicyclo[2.2.1]heptane-2-carboxylate

> <CAS>
2679928-79-9

> <URL>
https://www.enaminestore.com/catalog/EN300-28281080

> <ROCS_ShapeQuery>
x0812_0A_x1140_0A_x1097_0A_x0365_0A_x1097_0A_x0310_0A

> <ROCS_TanimotoCombo>
0.694 

> <ROCS_ShapeTanimoto>
0.223 

> <ROCS_ColorTanimoto>
0.471 

> <ROCS_RefTversky>
0.207 

> <ROCS_RefColorTversky>
0.548 

> <ROCS_RefTverskyCombo>
0.754 

> <ROCS_FitTversky>
1.552 

> <ROCS_FitColorTversky>
0.770 

> <ROCS_FitTverskyCombo>
2.322 

> <ROCS_ColorScore>
-8.157

> <ROCS_Overlap>
2095.501

> <ROCS_Rank>
462                 

$$$$
untitled-dbase-136884_1
  -OEChem-02092408543D

 24 25  0     0  0  0  0  0  0999 V2000
   10.1234   11.7582   22.4795 C   0  0  0  0  0  0  0  0  0  0  0  0
    8.9398   11.9459   24.8887 C   0  0  0  0  0  0  0  0  0  0  0  0
    7.6059   11.4051   23.3549 C   0  0  0  0  0  0  0  0  0  0  0  0
    8.2454    9.6455   24.8664 C   0  0  0  0  0  0  0  0  0  0  0  0
    9.1509   11.2352   23.5137 C   0  0  0  0  0  0  0  0  0  0  0  0
    7.6629   11.0527   24.8723 C   0  0  0  0  0  0  0  0  0  0  0  0
   12.1545   12.9417   22.2388 C   0  0  0  0  0  0  0  0  0  0  0  0
    6.5049   11.3180   25.7854 C   0  0  0  0  0  0  0  0  0  0  0  0
    9.3109    9.8052   23.8670 N   0  0  0  0  0  0  0  0  0  0  0  0
    9.9819   11.6166   21.2724 O   0  0  0  0  0  0  0  0  0  0  0  0
   11.1544   12.3951   23.1043 O   0  0  0  0  0  0  0  0  0  0  0  0
    5.9877   12.5489   25.5738 F   0  0  0  0  0  0  0  0  0  0  0  0
    5.5151   10.4176   25.5936 F   0  0  0  0  0  0  0  0  0  0  0  0
    6.8793   11.2471   27.0824 F   0  0  0  0  0  0  0  0  0  0  0  0
    9.6754   11.7406   25.6738 H   0  0  0  0  0  0  0  0  0  0  0  0
    8.7700   13.0286   24.8471 H   0  0  0  0  0  0  0  0  0  0  0  0
    7.2587   12.4160   23.1090 H   0  0  0  0  0  0  0  0  0  0  0  0
    7.0907   10.6928   22.7016 H   0  0  0  0  0  0  0  0  0  0  0  0
    8.6521    9.3617   25.8432 H   0  0  0  0  0  0  0  0  0  0  0  0
    7.5189    8.8929   24.5437 H   0  0  0  0  0  0  0  0  0  0  0  0
   12.9296   13.4268   22.8370 H   0  0  0  0  0  0  0  0  0  0  0  0
   11.6950   13.6663   21.5617 H   0  0  0  0  0  0  0  0  0  0  0  0
   12.6005   12.1327   21.6554 H   0  0  0  0  0  0  0  0  0  0  0  0
   10.2110    9.5818   24.2908 H   0  0  0  0  0  0  0  0  0  0  0  0
  1  5  1  0  0  0  0
  1 10  2  0  0  0  0
  1 11  1  0  0  0  0
  2  5  1  0  0  0  0
  2  6  1  0  0  0  0
  3  5  1  0  0  0  0
  3  6  1  0  0  0  0
  4  6  1  0  0  0  0
  4  9  1  0  0  0  0
  5  9  1  0  0  0  0
  6  8  1  0  0  0  0
  7 11  1  0  0  0  0
  8 12  1  0  0  0  0
  8 13  1  0  0  0  0
  8 14  1  0  0  0  0
  2 15  1  0  0  0  0
  2 16  1  0  0  0  0
  3 17  1  0  0  0  0
  3 18  1  0  0  0  0
  4 19  1  0  0  0  0
  4 20  1  0  0  0  0
  7 21  1  0  0  0  0
  7 22  1  0  0  0  0
  7 23  1  0  0  0  0
  9 24  1  0  0  0  0
M  END
> <id>
EN300-1070020

> <smiles>
COC(=O)C1(CC2(C1)C(F)(F)F)NC2

> <MDLNUMBER>
MFCD28389605

> <IUPAC Name>
methyl 4-(trifluoromethyl)-2-azabicyclo[2.1.1]hexane-1-carboxylate

> <CAS>
1934459-04-7

> <URL>
https://www.enaminestore.com/catalog/EN300-1070020

> <ROCS_ShapeQuery>
x0812_0A_x1140_0A_x1097_0A_x0365_0A_x1097_0A_x0310_0A

> <ROCS_TanimotoCombo>
0.694 

> <ROCS_ShapeTanimoto>
0.253 

> <ROCS_ColorTanimoto>
0.441 

> <ROCS_RefTversky>
0.225 

> <ROCS_RefColorTversky>
0.514 

> <ROCS_RefTverskyCombo>
0.738 

> <ROCS_FitTversky>
2.002 

> <ROCS_FitColorTversky>
0.756 

> <ROCS_FitTverskyCombo>
2.758 

> <ROCS_ColorScore>
-7.638

> <ROCS_Overlap>
2273.622

> <ROCS_Rank>
463                 

$$$$
untitled-dbase-315692_0
  -OEChem-02092408543D

 23 24  0     1  0  0  0  0  0999 V2000
    7.2196   10.5179   25.1241 C   0  0  0  0  0  0  0  0  0  0  0  0
    7.0923   11.9150   24.4992 C   0  0  0  0  0  0  0  0  0  0  0  0
    9.3821   11.5139   25.0335 C   0  0  0  0  0  0  0  0  0  0  0  0
    8.6897   10.1557   24.8630 C   0  0  2  0  0  0  0  0  0  0  0  0
    8.8636    9.8794   23.3546 C   0  0  1  0  0  0  0  0  0  0  0  0
    8.7747   11.2899   22.7293 C   0  0  1  0  0  0  0  0  0  0  0  0
    8.5157   12.1901   23.9650 C   0  0  1  0  0  0  0  0  0  0  0  0
    8.7673   13.5983   23.7573 N   0  0  0  0  0  0  0  0  0  0  0  0
   10.1207    9.2609   23.1290 O   0  0  0  0  0  0  0  0  0  0  0  0
    9.9920   11.6273   22.0787 O   0  0  0  0  0  0  0  0  0  0  0  0
    7.0179   10.5676   26.2002 H   0  0  0  0  0  0  0  0  0  0  0  0
    6.5211    9.8015   24.6805 H   0  0  0  0  0  0  0  0  0  0  0  0
    6.3347   11.9435   23.7086 H   0  0  0  0  0  0  0  0  0  0  0  0
    6.8012   12.6383   25.2709 H   0  0  0  0  0  0  0  0  0  0  0  0
    9.2496   11.9381   26.0354 H   0  0  0  0  0  0  0  0  0  0  0  0
   10.4495   11.4907   24.7885 H   0  0  0  0  0  0  0  0  0  0  0  0
    9.0789    9.3670   25.5106 H   0  0  0  0  0  0  0  0  0  0  0  0
    8.0776    9.2162   22.9781 H   0  0  0  0  0  0  0  0  0  0  0  0
    7.9604   11.3524   21.9989 H   0  0  0  0  0  0  0  0  0  0  0  0
    9.5356   13.8793   24.3278 H   0  0  0  0  0  0  0  0  0  0  0  0
    8.9844   13.7513   22.7961 H   0  0  0  0  0  0  0  0  0  0  0  0
   10.1213    8.4305   23.6332 H   0  0  0  0  0  0  0  0  0  0  0  0
    9.8750   12.5174   21.7087 H   0  0  0  0  0  0  0  0  0  0  0  0
  1  2  1  0  0  0  0
  1  4  1  0  0  0  0
  2  7  1  0  0  0  0
  3  4  1  0  0  0  0
  3  7  1  0  0  0  0
  4  5  1  0  0  0  0
  5  6  1  0  0  0  0
  5  9  1  1  0  0  0
  6  7  1  0  0  0  0
  6 10  1  1  0  0  0
  7  8  1  0  0  0  0
  1 11  1  0  0  0  0
  1 12  1  0  0  0  0
  2 13  1  0  0  0  0
  2 14  1  0  0  0  0
  3 15  1  0  0  0  0
  3 16  1  0  0  0  0
  4 17  1  0  0  0  0
  5 18  1  0  0  0  0
  6 19  1  0  0  0  0
  8 20  1  0  0  0  0
  8 21  1  0  0  0  0
  9 22  1  0  0  0  0
 10 23  1  0  0  0  0
M  END
> <id>
EN300-7455509

> <smiles>
NC1(CCC2C1)[C@@H](O)[C@H]2O |&1:6,8,r|

> <IUPAC Name>
rac-(2R,3S)-1-aminobicyclo[2.2.1]heptane-2,3-diol

> <CAS>
2419083-35-3

> <URL>
https://www.enaminestore.com/catalog/EN300-7455509

> <ROCS_ShapeQuery>
x0812_0A_x1140_0A_x1097_0A_x0365_0A_x1097_0A_x0310_0A

> <ROCS_TanimotoCombo>
0.694 

> <ROCS_ShapeTanimoto>
0.203 

> <ROCS_ColorTanimoto>
0.491 

> <ROCS_RefTversky>
0.185 

> <ROCS_RefColorTversky>
0.603 

> <ROCS_RefTverskyCombo>
0.787 

> <ROCS_FitTversky>
1.962 

> <ROCS_FitColorTversky>
0.726 

> <ROCS_FitTverskyCombo>
2.687 

> <ROCS_ColorScore>
-9.039

> <ROCS_Overlap>
1865.234

> <ROCS_Rank>
464                 

$$$$
untitled-dbase-411907_0
  -OEChem-02092408543D

 23 24  0     1  0  0  0  0  0999 V2000
    7.2196   10.5179   25.1241 C   0  0  0  0  0  0  0  0  0  0  0  0
    7.0923   11.9150   24.4992 C   0  0  0  0  0  0  0  0  0  0  0  0
    9.3821   11.5139   25.0335 C   0  0  0  0  0  0  0  0  0  0  0  0
    8.6897   10.1557   24.8630 C   0  0  2  0  0  0  0  0  0  0  0  0
    8.8636    9.8794   23.3546 C   0  0  1  0  0  0  0  0  0  0  0  0
    8.7747   11.2899   22.7293 C   0  0  1  0  0  0  0  0  0  0  0  0
    8.5157   12.1901   23.9650 C   0  0  1  0  0  0  0  0  0  0  0  0
    8.7673   13.5983   23.7573 N   0  0  0  0  0  0  0  0  0  0  0  0
   10.1207    9.2609   23.1290 O   0  0  0  0  0  0  0  0  0  0  0  0
    9.9920   11.6273   22.0787 O   0  0  0  0  0  0  0  0  0  0  0  0
    7.0179   10.5676   26.2002 H   0  0  0  0  0  0  0  0  0  0  0  0
    6.5211    9.8015   24.6805 H   0  0  0  0  0  0  0  0  0  0  0  0
    6.3347   11.9435   23.7086 H   0  0  0  0  0  0  0  0  0  0  0  0
    6.8012   12.6383   25.2709 H   0  0  0  0  0  0  0  0  0  0  0  0
    9.2496   11.9381   26.0354 H   0  0  0  0  0  0  0  0  0  0  0  0
   10.4495   11.4907   24.7885 H   0  0  0  0  0  0  0  0  0  0  0  0
    9.0789    9.3670   25.5106 H   0  0  0  0  0  0  0  0  0  0  0  0
    8.0776    9.2162   22.9781 H   0  0  0  0  0  0  0  0  0  0  0  0
    7.9604   11.3524   21.9989 H   0  0  0  0  0  0  0  0  0  0  0  0
    9.5356   13.8793   24.3278 H   0  0  0  0  0  0  0  0  0  0  0  0
    8.9844   13.7513   22.7961 H   0  0  0  0  0  0  0  0  0  0  0  0
   10.1213    8.4305   23.6332 H   0  0  0  0  0  0  0  0  0  0  0  0
    9.8750   12.5174   21.7087 H   0  0  0  0  0  0  0  0  0  0  0  0
  1  2  1  0  0  0  0
  1  4  1  0  0  0  0
  2  7  1  0  0  0  0
  3  4  1  0  0  0  0
  3  7  1  0  0  0  0
  4  5  1  0  0  0  0
  5  6  1  0  0  0  0
  5  9  1  1  0  0  0
  6  7  1  0  0  0  0
  6 10  1  1  0  0  0
  7  8  1  0  0  0  0
  1 11  1  0  0  0  0
  1 12  1  0  0  0  0
  2 13  1  0  0  0  0
  2 14  1  0  0  0  0
  3 15  1  0  0  0  0
  3 16  1  0  0  0  0
  4 17  1  0  0  0  0
  5 18  1  0  0  0  0
  6 19  1  0  0  0  0
  8 20  1  0  0  0  0
  8 21  1  0  0  0  0
  9 22  1  0  0  0  0
 10 23  1  0  0  0  0
M  END
> <id>
EN300-7455508

> <smiles>
Cl.NC1(CCC2C1)[C@@H](O)[C@H]2O |&1:7,9,r|

> <IUPAC Name>
rac-(2R,3S)-1-aminobicyclo[2.2.1]heptane-2,3-diol hydrochloride

> <CAS>
2434591-27-0

> <Purity>
95

> <URL>
https://www.enaminestore.com/catalog/EN300-7455508

> <Saltdate>
Cl

> <ROCS_ShapeQuery>
x0812_0A_x1140_0A_x1097_0A_x0365_0A_x1097_0A_x0310_0A

> <ROCS_TanimotoCombo>
0.694 

> <ROCS_ShapeTanimoto>
0.203 

> <ROCS_ColorTanimoto>
0.491 

> <ROCS_RefTversky>
0.185 

> <ROCS_RefColorTversky>
0.603 

> <ROCS_RefTverskyCombo>
0.787 

> <ROCS_FitTversky>
1.962 

> <ROCS_FitColorTversky>
0.726 

> <ROCS_FitTverskyCombo>
2.687 

> <ROCS_ColorScore>
-9.039

> <ROCS_Overlap>
1865.234

> <ROCS_Rank>
465                 

$$$$
untitled-dbase-306813_4
  -OEChem-02092408543D

 31 33  0     0  0  0  0  0  0999 V2000
   11.4057   13.2785   21.4303 C   0  0  0  0  0  0  0  0  0  0  0  0
   12.0035   14.2508   22.2321 C   0  0  0  0  0  0  0  0  0  0  0  0
   10.7201   13.4771   24.1272 C   0  0  0  0  0  0  0  0  0  0  0  0
   10.1222   12.5049   23.3253 C   0  0  0  0  0  0  0  0  0  0  0  0
   10.4650   12.4056   21.9769 C   0  0  0  0  0  0  0  0  0  0  0  0
   11.6608   14.3501   23.5805 C   0  0  0  0  0  0  0  0  0  0  0  0
    9.0221   11.0491   25.4090 C   0  0  0  0  0  0  0  0  0  0  0  0
    8.7826   10.0885   23.5218 C   0  0  0  0  0  0  0  0  0  0  0  0
    7.5527   11.7533   24.0335 C   0  0  0  0  0  0  0  0  0  0  0  0
    9.1224   11.5825   23.9215 C   0  0  0  0  0  0  0  0  0  0  0  0
    7.8475   10.4060   24.6814 C   0  0  0  0  0  0  0  0  0  0  0  0
   10.2966   11.4287   19.8152 C   0  0  0  0  0  0  0  0  0  0  0  0
    5.8914   10.2826   25.9560 N   0  0  0  0  0  0  0  0  0  0  0  0
    6.9013    9.5326   25.2463 N   0  0  0  0  0  0  0  0  0  0  0  0
    9.8894   11.4612   21.1817 O   0  0  0  0  0  0  0  0  0  0  0  0
   12.3987   15.5498   24.5694 Cl  0  0  0  0  0  0  0  0  0  0  0  0
   11.6771   13.2065   20.3806 H   0  0  0  0  0  0  0  0  0  0  0  0
   12.7349   14.9242   21.7925 H   0  0  0  0  0  0  0  0  0  0  0  0
   10.4486   13.5494   25.1778 H   0  0  0  0  0  0  0  0  0  0  0  0
    9.8247   10.3904   25.7570 H   0  0  0  0  0  0  0  0  0  0  0  0
    8.7936   11.7855   26.1867 H   0  0  0  0  0  0  0  0  0  0  0  0
    8.3312    9.9278   22.5370 H   0  0  0  0  0  0  0  0  0  0  0  0
    9.5628    9.3388   23.6910 H   0  0  0  0  0  0  0  0  0  0  0  0
    7.1848   12.5564   24.6809 H   0  0  0  0  0  0  0  0  0  0  0  0
    6.9835   11.7516   23.0980 H   0  0  0  0  0  0  0  0  0  0  0  0
    9.7623   10.6308   19.2938 H   0  0  0  0  0  0  0  0  0  0  0  0
   11.3745   11.2570   19.7592 H   0  0  0  0  0  0  0  0  0  0  0  0
   10.0579   12.3882   19.3502 H   0  0  0  0  0  0  0  0  0  0  0  0
    5.9237   10.0248   26.9420 H   0  0  0  0  0  0  0  0  0  0  0  0
    6.0945   11.2808   25.9225 H   0  0  0  0  0  0  0  0  0  0  0  0
    6.4095    8.9705   24.5266 H   0  0  0  0  0  0  0  0  0  0  0  0
  1  2  2  0  0  0  0
  1  5  1  0  0  0  0
  2  6  1  0  0  0  0
  3  4  1  0  0  0  0
  3  6  2  0  0  0  0
  4  5  2  0  0  0  0
  4 10  1  0  0  0  0
  5 15  1  0  0  0  0
  6 16  1  0  0  0  0
  7 10  1  0  0  0  0
  7 11  1  0  0  0  0
  8 10  1  0  0  0  0
  8 11  1  0  0  0  0
  9 10  1  0  0  0  0
  9 11  1  0  0  0  0
 11 14  1  0  0  0  0
 12 15  1  0  0  0  0
 13 14  1  0  0  0  0
  1 17  1  0  0  0  0
  2 18  1  0  0  0  0
  3 19  1  0  0  0  0
  7 20  1  0  0  0  0
  7 21  1  0  0  0  0
  8 22  1  0  0  0  0
  8 23  1  0  0  0  0
  9 24  1  0  0  0  0
  9 25  1  0  0  0  0
 12 26  1  0  0  0  0
 12 27  1  0  0  0  0
 12 28  1  0  0  0  0
 13 29  1  0  0  0  0
 13 30  1  0  0  0  0
 14 31  1  0  0  0  0
M  END
> <id>
EN300-6760402

> <smiles>
COC=1C=CC(Cl)=CC1C2(CC3(C2)NN)C3

> <IUPAC Name>
[3-(5-chloro-2-methoxyphenyl)bicyclo[1.1.1]pentan-1-yl]hydrazine

> <CAS>
2287285-88-3

> <URL>
https://www.enaminestore.com/catalog/EN300-6760402

> <ROCS_ShapeQuery>
x0812_0A_x1140_0A_x1097_0A_x0365_0A_x1097_0A_x0310_0A

> <ROCS_TanimotoCombo>
0.693 

> <ROCS_ShapeTanimoto>
0.225 

> <ROCS_ColorTanimoto>
0.468 

> <ROCS_RefTversky>
0.206 

> <ROCS_RefColorTversky>
0.573 

> <ROCS_RefTverskyCombo>
0.779 

> <ROCS_FitTversky>
1.725 

> <ROCS_FitColorTversky>
0.719 

> <ROCS_FitTverskyCombo>
2.444 

> <ROCS_ColorScore>
-8.579

> <ROCS_Overlap>
2081.939

> <ROCS_Rank>
466                 

$$$$
untitled-dbase-291420_5
  -OEChem-02092408543D

 33 34  0     0  0  0  0  0  0999 V2000
    9.8819   11.9966   22.4103 C   0  0  0  0  0  0  0  0  0  0  0  0
    8.9194   11.9341   24.9222 C   0  0  0  0  0  0  0  0  0  0  0  0
    7.4907   11.3884   23.4782 C   0  0  0  0  0  0  0  0  0  0  0  0
    8.3970    9.5919   24.7977 C   0  0  0  0  0  0  0  0  0  0  0  0
    9.0520   11.3323   23.4868 C   0  0  0  0  0  0  0  0  0  0  0  0
    7.7157   10.9448   24.9556 C   0  0  0  0  0  0  0  0  0  0  0  0
   12.3470   13.0353   21.4403 C   0  0  0  0  0  0  0  0  0  0  0  0
   12.3103   14.5139   23.4705 C   0  0  0  0  0  0  0  0  0  0  0  0
   12.4034   12.0187   23.7421 C   0  0  0  0  0  0  0  0  0  0  0  0
    6.6323   11.0578   25.9844 C   0  0  0  0  0  0  0  0  0  0  0  0
   11.8763   13.1707   22.8877 C   0  0  0  0  0  0  0  0  0  0  0  0
    9.3492    9.8999   23.7216 N   0  0  0  0  0  0  0  0  0  0  0  0
   10.0107   11.5574   21.2755 O   0  0  0  0  0  0  0  0  0  0  0  0
   10.4458   13.1345   22.9065 O   0  0  0  0  0  0  0  0  0  0  0  0
    6.0084   12.2546   25.9079 F   0  0  0  0  0  0  0  0  0  0  0  0
    5.6977   10.0955   25.8176 F   0  0  0  0  0  0  0  0  0  0  0  0
    7.1312   10.9338   27.2348 F   0  0  0  0  0  0  0  0  0  0  0  0
    9.7386   11.7381   25.6224 H   0  0  0  0  0  0  0  0  0  0  0  0
    8.6673   13.0003   24.9732 H   0  0  0  0  0  0  0  0  0  0  0  0
    7.0485   12.3820   23.3369 H   0  0  0  0  0  0  0  0  0  0  0  0
    6.9701   10.6807   22.8242 H   0  0  0  0  0  0  0  0  0  0  0  0
    8.9134    9.2793   25.7118 H   0  0  0  0  0  0  0  0  0  0  0  0
    7.7006    8.8060   24.4880 H   0  0  0  0  0  0  0  0  0  0  0  0
   12.0375   12.0724   21.0183 H   0  0  0  0  0  0  0  0  0  0  0  0
   11.9473   13.8360   20.8095 H   0  0  0  0  0  0  0  0  0  0  0  0
   13.4411   13.0614   21.3809 H   0  0  0  0  0  0  0  0  0  0  0  0
   11.9746   14.6153   24.5089 H   0  0  0  0  0  0  0  0  0  0  0  0
   11.8569   15.3442   22.9170 H   0  0  0  0  0  0  0  0  0  0  0  0
   13.3982   14.6330   23.4446 H   0  0  0  0  0  0  0  0  0  0  0  0
   12.0659   12.1156   24.7803 H   0  0  0  0  0  0  0  0  0  0  0  0
   12.0710   11.0482   23.3598 H   0  0  0  0  0  0  0  0  0  0  0  0
   13.4990   12.0249   23.7713 H   0  0  0  0  0  0  0  0  0  0  0  0
   10.2991    9.7222   24.0469 H   0  0  0  0  0  0  0  0  0  0  0  0
  1  5  1  0  0  0  0
  1 13  2  0  0  0  0
  1 14  1  0  0  0  0
  2  5  1  0  0  0  0
  2  6  1  0  0  0  0
  3  5  1  0  0  0  0
  3  6  1  0  0  0  0
  4  6  1  0  0  0  0
  4 12  1  0  0  0  0
  5 12  1  0  0  0  0
  6 10  1  0  0  0  0
  7 11  1  0  0  0  0
  8 11  1  0  0  0  0
  9 11  1  0  0  0  0
 10 15  1  0  0  0  0
 10 16  1  0  0  0  0
 10 17  1  0  0  0  0
 11 14  1  0  0  0  0
  2 18  1  0  0  0  0
  2 19  1  0  0  0  0
  3 20  1  0  0  0  0
  3 21  1  0  0  0  0
  4 22  1  0  0  0  0
  4 23  1  0  0  0  0
  7 24  1  0  0  0  0
  7 25  1  0  0  0  0
  7 26  1  0  0  0  0
  8 27  1  0  0  0  0
  8 28  1  0  0  0  0
  8 29  1  0  0  0  0
  9 30  1  0  0  0  0
  9 31  1  0  0  0  0
  9 32  1  0  0  0  0
 12 33  1  0  0  0  0
M  END
> <id>
EN300-6512057

> <smiles>
CC(C)(C)OC(=O)C1(CC2(C1)C(F)(F)F)NC2

> <MDLNUMBER>
MFCD28389604

> <IUPAC Name>
tert-butyl 4-(trifluoromethyl)-2-azabicyclo[2.1.1]hexane-1-carboxylate

> <CAS>
1983346-85-5

> <URL>
https://www.enaminestore.com/catalog/EN300-6512057

> <ROCS_ShapeQuery>
x0812_0A_x1140_0A_x1097_0A_x0365_0A_x1097_0A_x0310_0A

> <ROCS_TanimotoCombo>
0.693 

> <ROCS_ShapeTanimoto>
0.273 

> <ROCS_ColorTanimoto>
0.420 

> <ROCS_RefTversky>
0.241 

> <ROCS_RefColorTversky>
0.515 

> <ROCS_RefTverskyCombo>
0.756 

> <ROCS_FitTversky>
1.935 

> <ROCS_FitColorTversky>
0.696 

> <ROCS_FitTverskyCombo>
2.631 

> <ROCS_ColorScore>
-7.688

> <ROCS_Overlap>
2440.728

> <ROCS_Rank>
467                 

$$$$
untitled-dbase-157000_7
  -OEChem-02092408543D

 25 26  0     0  0  0  0  0  0999 V2000
   10.0557   11.9450   22.5209 C   0  0  0  0  0  0  0  0  0  0  0  0
    9.1380   11.7532   25.0346 C   0  0  0  0  0  0  0  0  0  0  0  0
    7.6091   11.8069   23.6126 C   0  0  0  0  0  0  0  0  0  0  0  0
    8.9986    9.7833   23.5758 C   0  0  0  0  0  0  0  0  0  0  0  0
    9.1008   11.3229   23.5243 C   0  0  0  0  0  0  0  0  0  0  0  0
    7.7473   11.0141   24.9681 C   0  0  0  0  0  0  0  0  0  0  0  0
    6.2959   12.5829   26.2645 C   0  0  0  0  0  0  0  0  0  0  0  0
   11.0063   12.9753   23.0814 C   0  0  0  0  0  0  0  0  0  0  0  0
    6.7342   11.1580   26.0626 C   0  0  0  0  0  0  0  0  0  0  0  0
   10.0233   11.6053   21.3395 O   0  0  0  0  0  0  0  0  0  0  0  0
    8.0224    9.6295   24.6200 O   0  0  0  0  0  0  0  0  0  0  0  0
   12.1839   13.6290   21.6890 Br  0  0  0  0  0  0  0  0  0  0  0  0
    9.9012   11.2738   25.6549 H   0  0  0  0  0  0  0  0  0  0  0  0
    9.1220   12.8283   25.2460 H   0  0  0  0  0  0  0  0  0  0  0  0
    7.4401   12.8874   23.6819 H   0  0  0  0  0  0  0  0  0  0  0  0
    6.9181   11.3790   22.8805 H   0  0  0  0  0  0  0  0  0  0  0  0
    8.6166    9.3536   22.6454 H   0  0  0  0  0  0  0  0  0  0  0  0
    9.9376    9.3073   23.8727 H   0  0  0  0  0  0  0  0  0  0  0  0
    7.1574   13.2244   26.4844 H   0  0  0  0  0  0  0  0  0  0  0  0
    5.5977   12.6522   27.1054 H   0  0  0  0  0  0  0  0  0  0  0  0
    5.8102   12.9646   25.3602 H   0  0  0  0  0  0  0  0  0  0  0  0
   11.6347   12.5308   23.8557 H   0  0  0  0  0  0  0  0  0  0  0  0
   10.4518   13.8334   23.4662 H   0  0  0  0  0  0  0  0  0  0  0  0
    5.8410   10.5487   25.8446 H   0  0  0  0  0  0  0  0  0  0  0  0
    7.1404   10.7823   27.0166 H   0  0  0  0  0  0  0  0  0  0  0  0
  1  5  1  0  0  0  0
  1  8  1  0  0  0  0
  1 10  2  0  0  0  0
  2  5  1  0  0  0  0
  2  6  1  0  0  0  0
  3  5  1  0  0  0  0
  3  6  1  0  0  0  0
  4  5  1  0  0  0  0
  4 11  1  0  0  0  0
  6  9  1  0  0  0  0
  6 11  1  0  0  0  0
  7  9  1  0  0  0  0
  8 12  1  0  0  0  0
  2 13  1  0  0  0  0
  2 14  1  0  0  0  0
  3 15  1  0  0  0  0
  3 16  1  0  0  0  0
  4 17  1  0  0  0  0
  4 18  1  0  0  0  0
  7 19  1  0  0  0  0
  7 20  1  0  0  0  0
  7 21  1  0  0  0  0
  8 22  1  0  0  0  0
  8 23  1  0  0  0  0
  9 24  1  0  0  0  0
  9 25  1  0  0  0  0
M  END
> <id>
EN300-26674278

> <smiles>
CCC1(CC2(C1)C(=O)CBr)OC2

> <MDLNUMBER>
MFCD34562668

> <IUPAC Name>
2-bromo-1-{1-ethyl-2-oxabicyclo[2.1.1]hexan-4-yl}ethan-1-one

> <CAS>
2731008-23-2

> <Purity>
95

> <URL>
https://www.enaminestore.com/catalog/EN300-26674278

> <ROCS_ShapeQuery>
x0812_0A_x1140_0A_x1097_0A_x0365_0A_x1097_0A_x0310_0A

> <ROCS_TanimotoCombo>
0.693 

> <ROCS_ShapeTanimoto>
0.229 

> <ROCS_ColorTanimoto>
0.464 

> <ROCS_RefTversky>
0.205 

> <ROCS_RefColorTversky>
0.551 

> <ROCS_RefTverskyCombo>
0.756 

> <ROCS_FitTversky>
2.047 

> <ROCS_FitColorTversky>
0.747 

> <ROCS_FitTverskyCombo>
2.794 

> <ROCS_ColorScore>
-8.215

> <ROCS_Overlap>
2073.816

> <ROCS_Rank>
468                 

$$$$
untitled-dbase-470588_4
  -OEChem-02092408543D

 39 41  0     0  0  0  0  0  0999 V2000
    9.7919   12.1077   22.3842 C   0  0  0  0  0  0  0  0  0  0  0  0
    8.6585    9.0837   22.3044 C   0  0  0  0  0  0  0  0  0  0  0  0
   10.6218    9.3544   23.8564 C   0  0  0  0  0  0  0  0  0  0  0  0
    9.1162   11.8462   24.9702 C   0  0  0  0  0  0  0  0  0  0  0  0
    7.4953   11.6226   23.6895 C   0  0  0  0  0  0  0  0  0  0  0  0
    8.8568    7.5696   22.4024 C   0  0  0  0  0  0  0  0  0  0  0  0
   10.7385    7.8291   23.8900 C   0  0  0  0  0  0  0  0  0  0  0  0
    9.0389   11.3510   23.4690 C   0  0  0  0  0  0  0  0  0  0  0  0
    9.1882    9.8029   23.5504 C   0  0  0  0  0  0  0  0  0  0  0  0
    7.8687   10.8850   25.0313 C   0  0  0  0  0  0  0  0  0  0  0  0
   11.8785   15.0858   22.7919 C   0  0  0  0  0  0  0  0  0  0  0  0
    6.9388   10.8963   26.2066 C   0  0  0  0  0  0  0  0  0  0  0  0
   11.2083   13.9650   22.0261 C   0  0  0  0  0  0  0  0  0  0  0  0
   10.2566    7.2275   22.6480 N   0  0  0  0  0  0  0  0  0  0  0  0
    9.7871   11.7949   21.2013 O   0  0  0  0  0  0  0  0  0  0  0  0
    8.3300    9.5466   24.6810 O   0  0  0  0  0  0  0  0  0  0  0  0
    5.6885   10.3255   25.8318 O   0  0  0  0  0  0  0  0  0  0  0  0
   10.4536   13.1625   22.9397 O   0  0  0  0  0  0  0  0  0  0  0  0
    9.1697    9.4574   21.4087 H   0  0  0  0  0  0  0  0  0  0  0  0
    7.5886    9.2682   22.1615 H   0  0  0  0  0  0  0  0  0  0  0  0
   10.9601    9.7333   24.8265 H   0  0  0  0  0  0  0  0  0  0  0  0
   11.3099    9.7524   23.1002 H   0  0  0  0  0  0  0  0  0  0  0  0
    9.9834   11.5403   25.5596 H   0  0  0  0  0  0  0  0  0  0  0  0
    8.9351   12.9127   25.1503 H   0  0  0  0  0  0  0  0  0  0  0  0
    7.1824   12.6710   23.7653 H   0  0  0  0  0  0  0  0  0  0  0  0
    6.7917   11.1002   23.0376 H   0  0  0  0  0  0  0  0  0  0  0  0
    8.2205    7.1507   23.1914 H   0  0  0  0  0  0  0  0  0  0  0  0
    8.5408    7.1075   21.4606 H   0  0  0  0  0  0  0  0  0  0  0  0
   11.7904    7.5557   24.0292 H   0  0  0  0  0  0  0  0  0  0  0  0
   10.1881    7.4217   24.7471 H   0  0  0  0  0  0  0  0  0  0  0  0
   11.1362   15.7210   23.2832 H   0  0  0  0  0  0  0  0  0  0  0  0
   12.5570   14.6829   23.5509 H   0  0  0  0  0  0  0  0  0  0  0  0
   12.4834   15.7041   22.1203 H   0  0  0  0  0  0  0  0  0  0  0  0
    6.7549   11.9212   26.5597 H   0  0  0  0  0  0  0  0  0  0  0  0
    7.3456   10.3100   27.0430 H   0  0  0  0  0  0  0  0  0  0  0  0
   11.9562   13.3336   21.5372 H   0  0  0  0  0  0  0  0  0  0  0  0
   10.5302   14.3693   21.2688 H   0  0  0  0  0  0  0  0  0  0  0  0
   10.3498    6.2139   22.7069 H   0  0  0  0  0  0  0  0  0  0  0  0
    5.1237   10.3546   26.6197 H   0  0  0  0  0  0  0  0  0  0  0  0
  1  8  1  1  0  0  0
  1 15  2  0  0  0  0
  1 18  1  0  0  0  0
  2  6  1  0  0  0  0
  2  9  1  0  0  0  0
  3  7  1  0  0  0  0
  3  9  1  0  0  0  0
  4  8  1  0  0  0  0
  4 10  1  0  0  0  0
  5  8  1  0  0  0  0
  5 10  1  0  0  0  0
  6 14  1  0  0  0  0
  7 14  1  0  0  0  0
  8  9  1  0  0  0  0
  9 16  1  0  0  0  0
 10 12  1  1  0  0  0
 10 16  1  0  0  0  0
 11 13  1  0  0  0  0
 12 17  1  0  0  0  0
 13 18  1  0  0  0  0
  2 19  1  0  0  0  0
  2 20  1  0  0  0  0
  3 21  1  0  0  0  0
  3 22  1  0  0  0  0
  4 23  1  0  0  0  0
  4 24  1  0  0  0  0
  5 25  1  0  0  0  0
  5 26  1  0  0  0  0
  6 27  1  0  0  0  0
  6 28  1  0  0  0  0
  7 29  1  0  0  0  0
  7 30  1  0  0  0  0
 11 31  1  0  0  0  0
 11 32  1  0  0  0  0
 11 33  1  0  0  0  0
 12 34  1  0  0  0  0
 12 35  1  0  0  0  0
 13 36  1  0  0  0  0
 13 37  1  0  0  0  0
 14 38  1  0  0  0  0
 17 39  1  0  0  0  0
M  END
> <id>
EN300-39870168

> <smiles>
CCOC(=O)[C@]1(C[C@@]2(CO)C1)C3(CCNCC3)O2

> <IUPAC Name>
ethyl 4-(hydroxymethyl)-3-oxaspiro[bicyclo[2.1.1]hexane-2,4'-piperidine]-1-carboxylate

> <URL>
https://www.enaminestore.com/catalog/EN300-39870168

> <ROCS_ShapeQuery>
x0812_0A_x1140_0A_x1097_0A_x0365_0A_x1097_0A_x0310_0A

> <ROCS_TanimotoCombo>
0.693 

> <ROCS_ShapeTanimoto>
0.263 

> <ROCS_ColorTanimoto>
0.430 

> <ROCS_RefTversky>
0.235 

> <ROCS_RefColorTversky>
0.576 

> <ROCS_RefTverskyCombo>
0.811 

> <ROCS_FitTversky>
1.844 

> <ROCS_FitColorTversky>
0.628 

> <ROCS_FitTverskyCombo>
2.472 

> <ROCS_ColorScore>
-8.683

> <ROCS_Overlap>
2379.143

> <ROCS_Rank>
469                 

$$$$
untitled-dbase-561190_4
  -OEChem-02092408543D

 39 41  0     0  0  0  0  0  0999 V2000
    9.7919   12.1077   22.3842 C   0  0  0  0  0  0  0  0  0  0  0  0
    8.6585    9.0837   22.3044 C   0  0  0  0  0  0  0  0  0  0  0  0
   10.6218    9.3544   23.8564 C   0  0  0  0  0  0  0  0  0  0  0  0
    9.1162   11.8462   24.9702 C   0  0  0  0  0  0  0  0  0  0  0  0
    7.4953   11.6226   23.6895 C   0  0  0  0  0  0  0  0  0  0  0  0
    8.8568    7.5696   22.4024 C   0  0  0  0  0  0  0  0  0  0  0  0
   10.7385    7.8291   23.8900 C   0  0  0  0  0  0  0  0  0  0  0  0
    9.0389   11.3510   23.4690 C   0  0  0  0  0  0  0  0  0  0  0  0
    9.1882    9.8029   23.5504 C   0  0  0  0  0  0  0  0  0  0  0  0
    7.8687   10.8850   25.0313 C   0  0  0  0  0  0  0  0  0  0  0  0
   11.8785   15.0858   22.7919 C   0  0  0  0  0  0  0  0  0  0  0  0
    6.9388   10.8963   26.2066 C   0  0  0  0  0  0  0  0  0  0  0  0
   11.2083   13.9650   22.0261 C   0  0  0  0  0  0  0  0  0  0  0  0
   10.2566    7.2275   22.6480 N   0  0  0  0  0  0  0  0  0  0  0  0
    9.7871   11.7949   21.2013 O   0  0  0  0  0  0  0  0  0  0  0  0
    8.3300    9.5466   24.6810 O   0  0  0  0  0  0  0  0  0  0  0  0
    5.6885   10.3255   25.8318 O   0  0  0  0  0  0  0  0  0  0  0  0
   10.4536   13.1625   22.9397 O   0  0  0  0  0  0  0  0  0  0  0  0
    9.1697    9.4574   21.4087 H   0  0  0  0  0  0  0  0  0  0  0  0
    7.5886    9.2682   22.1615 H   0  0  0  0  0  0  0  0  0  0  0  0
   10.9601    9.7333   24.8265 H   0  0  0  0  0  0  0  0  0  0  0  0
   11.3099    9.7524   23.1002 H   0  0  0  0  0  0  0  0  0  0  0  0
    9.9834   11.5403   25.5596 H   0  0  0  0  0  0  0  0  0  0  0  0
    8.9351   12.9127   25.1503 H   0  0  0  0  0  0  0  0  0  0  0  0
    7.1824   12.6710   23.7653 H   0  0  0  0  0  0  0  0  0  0  0  0
    6.7917   11.1002   23.0376 H   0  0  0  0  0  0  0  0  0  0  0  0
    8.2205    7.1507   23.1914 H   0  0  0  0  0  0  0  0  0  0  0  0
    8.5408    7.1075   21.4606 H   0  0  0  0  0  0  0  0  0  0  0  0
   11.7904    7.5557   24.0292 H   0  0  0  0  0  0  0  0  0  0  0  0
   10.1881    7.4217   24.7471 H   0  0  0  0  0  0  0  0  0  0  0  0
   11.1362   15.7210   23.2832 H   0  0  0  0  0  0  0  0  0  0  0  0
   12.5570   14.6829   23.5509 H   0  0  0  0  0  0  0  0  0  0  0  0
   12.4834   15.7041   22.1203 H   0  0  0  0  0  0  0  0  0  0  0  0
    6.7549   11.9212   26.5597 H   0  0  0  0  0  0  0  0  0  0  0  0
    7.3456   10.3100   27.0430 H   0  0  0  0  0  0  0  0  0  0  0  0
   11.9562   13.3336   21.5372 H   0  0  0  0  0  0  0  0  0  0  0  0
   10.5302   14.3693   21.2688 H   0  0  0  0  0  0  0  0  0  0  0  0
   10.3498    6.2139   22.7069 H   0  0  0  0  0  0  0  0  0  0  0  0
    5.1237   10.3546   26.6197 H   0  0  0  0  0  0  0  0  0  0  0  0
  1  8  1  1  0  0  0
  1 15  2  0  0  0  0
  1 18  1  0  0  0  0
  2  6  1  0  0  0  0
  2  9  1  0  0  0  0
  3  7  1  0  0  0  0
  3  9  1  0  0  0  0
  4  8  1  0  0  0  0
  4 10  1  0  0  0  0
  5  8  1  0  0  0  0
  5 10  1  0  0  0  0
  6 14  1  0  0  0  0
  7 14  1  0  0  0  0
  8  9  1  0  0  0  0
  9 16  1  0  0  0  0
 10 12  1  1  0  0  0
 10 16  1  0  0  0  0
 11 13  1  0  0  0  0
 12 17  1  0  0  0  0
 13 18  1  0  0  0  0
  2 19  1  0  0  0  0
  2 20  1  0  0  0  0
  3 21  1  0  0  0  0
  3 22  1  0  0  0  0
  4 23  1  0  0  0  0
  4 24  1  0  0  0  0
  5 25  1  0  0  0  0
  5 26  1  0  0  0  0
  6 27  1  0  0  0  0
  6 28  1  0  0  0  0
  7 29  1  0  0  0  0
  7 30  1  0  0  0  0
 11 31  1  0  0  0  0
 11 32  1  0  0  0  0
 11 33  1  0  0  0  0
 12 34  1  0  0  0  0
 12 35  1  0  0  0  0
 13 36  1  0  0  0  0
 13 37  1  0  0  0  0
 14 38  1  0  0  0  0
 17 39  1  0  0  0  0
M  END
> <id>
EN300-37375293

> <smiles>
Cl.CCOC(=O)[C@]1(C[C@@]2(CO)C1)C3(CCNCC3)O2

> <IUPAC Name>
ethyl 4-(hydroxymethyl)-3-oxaspiro[bicyclo[2.1.1]hexane-2,4'-piperidine]-1-carboxylate hydrochloride

> <CAS>
2253631-06-8

> <URL>
https://www.enaminestore.com/catalog/EN300-37375293

> <ROCS_ShapeQuery>
x0812_0A_x1140_0A_x1097_0A_x0365_0A_x1097_0A_x0310_0A

> <ROCS_TanimotoCombo>
0.693 

> <ROCS_ShapeTanimoto>
0.263 

> <ROCS_ColorTanimoto>
0.430 

> <ROCS_RefTversky>
0.235 

> <ROCS_RefColorTversky>
0.576 

> <ROCS_RefTverskyCombo>
0.811 

> <ROCS_FitTversky>
1.844 

> <ROCS_FitColorTversky>
0.628 

> <ROCS_FitTverskyCombo>
2.472 

> <ROCS_ColorScore>
-8.683

> <ROCS_Overlap>
2379.143

> <ROCS_Rank>
470                 

$$$$
untitled-dbase-339900_2
  -OEChem-02092408543D

 45 48  0     0  0  0  0  0  0999 V2000
   12.4574   15.2962   22.6144 C   0  0  0  0  0  0  0  0  0  0  0  0
   13.8624    8.9996   21.5048 C   0  0  0  0  0  0  0  0  0  0  0  0
   14.6049    9.7117   22.4466 C   0  0  0  0  0  0  0  0  0  0  0  0
   12.9784    9.6716   20.6607 C   0  0  0  0  0  0  0  0  0  0  0  0
   14.4634   11.0959   22.5445 C   0  0  0  0  0  0  0  0  0  0  0  0
   12.8369   11.0558   20.7585 C   0  0  0  0  0  0  0  0  0  0  0  0
   13.5794   11.7680   21.7004 C   0  0  0  0  0  0  0  0  0  0  0  0
   13.4296   13.2280   21.8032 C   0  0  0  0  0  0  0  0  0  0  0  0
   12.5327   13.8710   22.5762 C   0  0  0  0  0  0  0  0  0  0  0  0
   11.6262   13.0105   23.4193 C   0  0  0  0  0  0  0  0  0  0  0  0
    6.6921   11.4492   24.4899 C   0  0  0  0  0  0  0  0  0  0  0  0
    8.4939   10.2705   25.7759 C   0  0  0  0  0  0  0  0  0  0  0  0
    7.7728    9.3954   23.5391 C   0  0  0  0  0  0  0  0  0  0  0  0
    8.9467   12.5148   24.7534 C   0  0  0  0  0  0  0  0  0  0  0  0
    8.2247   11.6388   22.5143 C   0  0  0  0  0  0  0  0  0  0  0  0
   10.0292   10.4577   23.8018 C   0  0  0  0  0  0  0  0  0  0  0  0
    7.8835   11.6426   25.4431 C   0  0  0  0  0  0  0  0  0  0  0  0
    7.1586   10.7630   23.1949 C   0  0  0  0  0  0  0  0  0  0  0  0
    8.9698    9.5778   24.4876 C   0  0  0  0  0  0  0  0  0  0  0  0
    9.4354   11.8396   23.4527 C   0  0  0  0  0  0  0  0  0  0  0  0
   12.3934   16.4545   22.6486 N   0  0  0  0  0  0  0  0  0  0  0  0
   10.4325   12.6639   22.8060 N   0  0  0  0  0  0  0  0  0  0  0  0
   11.9437   12.6548   24.5532 O   0  0  0  0  0  0  0  0  0  0  0  0
   13.9736    7.9220   21.4277 H   0  0  0  0  0  0  0  0  0  0  0  0
   15.2942    9.1887   23.1033 H   0  0  0  0  0  0  0  0  0  0  0  0
   12.4011    9.1174   19.9265 H   0  0  0  0  0  0  0  0  0  0  0  0
   15.0490   11.6373   23.2837 H   0  0  0  0  0  0  0  0  0  0  0  0
   12.1437   11.5654   20.0934 H   0  0  0  0  0  0  0  0  0  0  0  0
   14.1179   13.7766   21.1639 H   0  0  0  0  0  0  0  0  0  0  0  0
    5.9178   10.8436   24.9764 H   0  0  0  0  0  0  0  0  0  0  0  0
    6.2371   12.4197   24.2568 H   0  0  0  0  0  0  0  0  0  0  0  0
    9.3356   10.3929   26.4686 H   0  0  0  0  0  0  0  0  0  0  0  0
    7.7512    9.6439   26.2848 H   0  0  0  0  0  0  0  0  0  0  0  0
    7.0174    8.7536   24.0092 H   0  0  0  0  0  0  0  0  0  0  0  0
    8.0951    8.8880   22.6216 H   0  0  0  0  0  0  0  0  0  0  0  0
    8.5215   13.5029   24.5339 H   0  0  0  0  0  0  0  0  0  0  0  0
    9.7894   12.6748   25.4386 H   0  0  0  0  0  0  0  0  0  0  0  0
    8.5439   11.1645   21.5771 H   0  0  0  0  0  0  0  0  0  0  0  0
    7.7850   12.6086   22.2471 H   0  0  0  0  0  0  0  0  0  0  0  0
   10.8955   10.5725   24.4662 H   0  0  0  0  0  0  0  0  0  0  0  0
   10.3879    9.9560   22.8935 H   0  0  0  0  0  0  0  0  0  0  0  0
    7.5447   12.1302   26.3640 H   0  0  0  0  0  0  0  0  0  0  0  0
    6.3060   10.6267   22.5204 H   0  0  0  0  0  0  0  0  0  0  0  0
    9.4014    8.6004   24.7306 H   0  0  0  0  0  0  0  0  0  0  0  0
   10.2511   13.0016   21.8668 H   0  0  0  0  0  0  0  0  0  0  0  0
  1  9  1  0  0  0  0
  1 21  3  0  0  0  0
  2  3  1  0  0  0  0
  2  4  2  0  0  0  0
  3  5  2  0  0  0  0
  4  6  1  0  0  0  0
  5  7  1  0  0  0  0
  6  7  2  0  0  0  0
  7  8  1  4  0  0  0
  8  9  2  0  0  0  0
  9 10  1  0  0  0  0
 10 22  1  0  0  0  0
 10 23  2  0  0  0  0
 11 17  1  0  0  0  0
 11 18  1  0  0  0  0
 12 17  1  0  0  0  0
 12 19  1  0  0  0  0
 13 18  1  0  0  0  0
 13 19  1  0  0  0  0
 14 17  1  0  0  0  0
 14 20  1  0  0  0  0
 15 18  1  0  0  0  0
 15 20  1  0  0  0  0
 16 19  1  0  0  0  0
 16 20  1  0  0  0  0
 20 22  1  0  0  0  0
  2 24  1  0  0  0  0
  3 25  1  0  0  0  0
  4 26  1  0  0  0  0
  5 27  1  0  0  0  0
  6 28  1  0  0  0  0
  8 29  1  0  0  0  0
 11 30  1  0  0  0  0
 11 31  1  0  0  0  0
 12 32  1  0  0  0  0
 12 33  1  0  0  0  0
 13 34  1  0  0  0  0
 13 35  1  0  0  0  0
 14 36  1  0  0  0  0
 14 37  1  0  0  0  0
 15 38  1  0  0  0  0
 15 39  1  0  0  0  0
 16 40  1  0  0  0  0
 16 41  1  0  0  0  0
 17 42  1  0  0  0  0
 18 43  1  0  0  0  0
 19 44  1  0  0  0  0
 22 45  1  0  0  0  0
M  END
> <id>
EN300-26577088

> <smiles>
O=C(NC1(CC2CC3CC(C2)C1)C3)C(=CC=4C=CC=CC4)C#N

> <IUPAC Name>
N-(adamantan-1-yl)-2-cyano-3-phenylprop-2-enamide

> <CAS>
721903-32-8

> <URL>
https://www.enaminestore.com/catalog/EN300-26577088

> <ROCS_ShapeQuery>
x0812_0A_x1140_0A_x1097_0A_x0365_0A_x1097_0A_x0310_0A

> <ROCS_TanimotoCombo>
0.693 

> <ROCS_ShapeTanimoto>
0.239 

> <ROCS_ColorTanimoto>
0.454 

> <ROCS_RefTversky>
0.222 

> <ROCS_RefColorTversky>
0.537 

> <ROCS_RefTverskyCombo>
0.758 

> <ROCS_FitTversky>
1.477 

> <ROCS_FitColorTversky>
0.747 

> <ROCS_FitTverskyCombo>
2.224 

> <ROCS_ColorScore>
-7.999

> <ROCS_Overlap>
2246.033

> <ROCS_Rank>
471                 

$$$$
untitled-dbase-562884_3
  -OEChem-02092408543D

 44 46  0     0  0  0  0  0  0999 V2000
    5.8191   12.8401   28.8228 C   0  0  0  0  0  0  0  0  0  0  0  0
    7.0082   13.4392   28.4073 C   0  0  0  0  0  0  0  0  0  0  0  0
    5.2692   11.7939   28.0818 C   0  0  0  0  0  0  0  0  0  0  0  0
    7.6474   12.9924   27.2508 C   0  0  0  0  0  0  0  0  0  0  0  0
    5.9084   11.3471   26.9253 C   0  0  0  0  0  0  0  0  0  0  0  0
    7.0975   11.9463   26.5098 C   0  0  0  0  0  0  0  0  0  0  0  0
    9.6756   12.1246   22.1878 C   0  0  0  0  0  0  0  0  0  0  0  0
    8.8907   10.2964   25.2627 C   0  0  0  0  0  0  0  0  0  0  0  0
    7.0961   10.4772   24.2001 C   0  0  0  0  0  0  0  0  0  0  0  0
    8.4343   12.5660   24.3575 C   0  0  0  0  0  0  0  0  0  0  0  0
    7.8117   11.4464   25.2185 C   0  0  0  0  0  0  0  0  0  0  0  0
    8.5887   10.3238   23.7154 C   0  0  0  0  0  0  0  0  0  0  0  0
    9.7957   13.6613   19.7788 C   0  0  0  0  0  0  0  0  0  0  0  0
   10.5758   15.5496   21.2399 C   0  0  0  0  0  0  0  0  0  0  0  0
   11.9509   13.4554   21.0623 C   0  0  0  0  0  0  0  0  0  0  0  0
    8.9957    9.1836   22.8335 C   0  0  0  0  0  0  0  0  0  0  0  0
   10.5364   14.0333   21.0624 C   0  0  0  0  0  0  0  0  0  0  0  0
    8.9738   11.7020   23.2996 N   0  0  0  0  0  0  0  0  0  0  0  0
   10.1204   11.3888   21.3116 O   0  0  0  0  0  0  0  0  0  0  0  0
   10.4106    9.0215   22.8834 O   0  0  0  0  0  0  0  0  0  0  0  0
    9.8207   13.4871   22.1761 O   0  0  0  0  0  0  0  0  0  0  0  0
    5.3216   13.1870   29.7237 H   0  0  0  0  0  0  0  0  0  0  0  0
    7.4365   14.2533   28.9850 H   0  0  0  0  0  0  0  0  0  0  0  0
    4.3436   11.3274   28.4064 H   0  0  0  0  0  0  0  0  0  0  0  0
    8.5737   13.4637   26.9334 H   0  0  0  0  0  0  0  0  0  0  0  0
    5.4740   10.5313   26.3538 H   0  0  0  0  0  0  0  0  0  0  0  0
    9.9024   10.5889   25.5619 H   0  0  0  0  0  0  0  0  0  0  0  0
    8.6130    9.3819   25.8001 H   0  0  0  0  0  0  0  0  0  0  0  0
    6.6237    9.5824   24.6221 H   0  0  0  0  0  0  0  0  0  0  0  0
    6.4040   10.9413   23.4902 H   0  0  0  0  0  0  0  0  0  0  0  0
    7.7000   13.2575   23.9339 H   0  0  0  0  0  0  0  0  0  0  0  0
    9.2492   13.1025   24.8527 H   0  0  0  0  0  0  0  0  0  0  0  0
    9.7652   12.5737   19.6477 H   0  0  0  0  0  0  0  0  0  0  0  0
    8.7685   14.0401   19.7815 H   0  0  0  0  0  0  0  0  0  0  0  0
   10.3108   14.0643   18.8993 H   0  0  0  0  0  0  0  0  0  0  0  0
   11.1064   15.8211   22.1597 H   0  0  0  0  0  0  0  0  0  0  0  0
    9.5632   15.9579   21.3357 H   0  0  0  0  0  0  0  0  0  0  0  0
   11.0700   16.0424   20.3964 H   0  0  0  0  0  0  0  0  0  0  0  0
   12.4824   13.7221   21.9830 H   0  0  0  0  0  0  0  0  0  0  0  0
   11.9407   12.3643   20.9729 H   0  0  0  0  0  0  0  0  0  0  0  0
   12.5400   13.8671   20.2348 H   0  0  0  0  0  0  0  0  0  0  0  0
    8.7096    9.3655   21.7872 H   0  0  0  0  0  0  0  0  0  0  0  0
    8.5324    8.2408   23.1590 H   0  0  0  0  0  0  0  0  0  0  0  0
   10.6242    8.2766   22.3003 H   0  0  0  0  0  0  0  0  0  0  0  0
  1  2  1  0  0  0  0
  1  3  2  0  0  0  0
  2  4  2  0  0  0  0
  3  5  1  0  0  0  0
  4  6  1  0  0  0  0
  5  6  2  0  0  0  0
  6 11  1  0  0  0  0
  7 18  1  0  0  0  0
  7 19  2  0  0  0  0
  7 21  1  0  0  0  0
  8 11  1  0  0  0  0
  8 12  1  0  0  0  0
  9 11  1  0  0  0  0
  9 12  1  0  0  0  0
 10 11  1  0  0  0  0
 10 18  1  0  0  0  0
 12 16  1  0  0  0  0
 12 18  1  0  0  0  0
 13 17  1  0  0  0  0
 14 17  1  0  0  0  0
 15 17  1  0  0  0  0
 16 20  1  0  0  0  0
 17 21  1  0  0  0  0
  1 22  1  0  0  0  0
  2 23  1  0  0  0  0
  3 24  1  0  0  0  0
  4 25  1  0  0  0  0
  5 26  1  0  0  0  0
  8 27  1  0  0  0  0
  8 28  1  0  0  0  0
  9 29  1  0  0  0  0
  9 30  1  0  0  0  0
 10 31  1  0  0  0  0
 10 32  1  0  0  0  0
 13 33  1  0  0  0  0
 13 34  1  0  0  0  0
 13 35  1  0  0  0  0
 14 36  1  0  0  0  0
 14 37  1  0  0  0  0
 14 38  1  0  0  0  0
 15 39  1  0  0  0  0
 15 40  1  0  0  0  0
 15 41  1  0  0  0  0
 16 42  1  0  0  0  0
 16 43  1  0  0  0  0
 20 44  1  0  0  0  0
M  END
> <id>
EN300-37351334

> <smiles>
CC(C)(C)OC(=O)N1CC2(CC1(CO)C2)C=3C=CC=CC3

> <IUPAC Name>
tert-butyl 1-(hydroxymethyl)-4-phenyl-2-azabicyclo[2.1.1]hexane-2-carboxylate

> <CAS>
2763754-86-3

> <Purity>
94

> <URL>
https://www.enaminestore.com/catalog/EN300-37351334

> <ROCS_ShapeQuery>
x0812_0A_x1140_0A_x1097_0A_x0365_0A_x1097_0A_x0310_0A

> <ROCS_TanimotoCombo>
0.693 

> <ROCS_ShapeTanimoto>
0.263 

> <ROCS_ColorTanimoto>
0.430 

> <ROCS_RefTversky>
0.237 

> <ROCS_RefColorTversky>
0.541 

> <ROCS_RefTverskyCombo>
0.778 

> <ROCS_FitTversky>
1.683 

> <ROCS_FitColorTversky>
0.678 

> <ROCS_FitTverskyCombo>
2.361 

> <ROCS_ColorScore>
-8.095

> <ROCS_Overlap>
2404.578

> <ROCS_Rank>
472                 

$$$$
untitled-dbase-75631_0
  -OEChem-02092408543D

 26 27  0     1  0  0  0  0  0999 V2000
   10.7349   11.9086   21.9183 C   0  0  0  0  0  0  0  0  0  0  0  0
    9.2424    9.8752   23.6819 C   0  0  0  0  0  0  0  0  0  0  0  0
    8.2006    9.5719   24.7425 C   0  0  0  0  0  0  0  0  0  0  0  0
    8.4578   11.9692   25.4095 C   0  0  0  0  0  0  0  0  0  0  0  0
    9.5329   12.1859   24.3185 C   0  0  0  0  0  0  0  0  0  0  0  0
    7.4843   10.9505   24.7516 C   0  0  1  0  0  0  0  0  0  0  0  0
    9.0176   11.2921   23.1869 C   0  0  2  0  0  0  0  0  0  0  0  0
    7.4826   11.3882   23.2579 C   0  0  0  0  0  0  0  0  0  0  0  0
    6.9061   12.7964   23.0188 C   0  0  0  0  0  0  0  0  0  0  0  0
    6.7297   10.4335   22.3100 C   0  0  0  0  0  0  0  0  0  0  0  0
    9.6183   11.5191   21.8949 N   0  0  0  0  0  0  0  0  0  0  0  0
   11.8456   12.2961   21.9262 O   0  0  0  0  0  0  0  0  0  0  0  0
   10.1182    9.1078   23.3167 O   0  0  0  0  0  0  0  0  0  0  0  0
    7.5430    8.7644   24.4141 H   0  0  0  0  0  0  0  0  0  0  0  0
    8.6688    9.3322   25.6998 H   0  0  0  0  0  0  0  0  0  0  0  0
    8.8947   11.5874   26.3383 H   0  0  0  0  0  0  0  0  0  0  0  0
    7.9509   12.9100   25.6478 H   0  0  0  0  0  0  0  0  0  0  0  0
    9.5950   13.2397   24.0268 H   0  0  0  0  0  0  0  0  0  0  0  0
   10.5235   11.8830   24.6767 H   0  0  0  0  0  0  0  0  0  0  0  0
    6.5048   10.9196   25.2347 H   0  0  0  0  0  0  0  0  0  0  0  0
    6.9421   13.0207   21.9584 H   0  0  0  0  0  0  0  0  0  0  0  0
    7.4977   13.5211   23.5672 H   0  0  0  0  0  0  0  0  0  0  0  0
    5.8787   12.8240   23.3649 H   0  0  0  0  0  0  0  0  0  0  0  0
    6.7844   10.8211   21.2992 H   0  0  0  0  0  0  0  0  0  0  0  0
    5.6941   10.3668   22.6229 H   0  0  0  0  0  0  0  0  0  0  0  0
    7.1912    9.4536   22.3537 H   0  0  0  0  0  0  0  0  0  0  0  0
  1 11  2  0  0  0  0
  1 12  2  0  0  0  0
  2  3  1  0  0  0  0
  2  7  1  0  0  0  0
  2 13  2  0  0  0  0
  3  6  1  0  0  0  0
  4  5  1  0  0  0  0
  4  6  1  0  0  0  0
  5  7  1  0  0  0  0
  6  8  1  0  0  0  0
  7  8  1  0  0  0  0
  7 11  1  0  0  0  0
  8  9  1  0  0  0  0
  8 10  1  0  0  0  0
  3 14  1  0  0  0  0
  3 15  1  0  0  0  0
  4 16  1  0  0  0  0
  4 17  1  0  0  0  0
  5 18  1  0  0  0  0
  5 19  1  0  0  0  0
  6 20  1  0  0  0  0
  9 21  1  0  0  0  0
  9 22  1  0  0  0  0
  9 23  1  0  0  0  0
 10 24  1  0  0  0  0
 10 25  1  0  0  0  0
 10 26  1  0  0  0  0
M  END
> <id>
EN300-370456

> <smiles>
CC1(C)C2CCC1(N=C=O)C(=O)C2

> <MDLNUMBER>
MFCD24451482

> <IUPAC Name>
1-isocyanato-7,7-dimethylbicyclo[2.2.1]heptan-2-one

> <CAS>
38989-01-4

> <URL>
https://www.enaminestore.com/catalog/EN300-370456

> <ROCS_ShapeQuery>
x0812_0A_x1140_0A_x1097_0A_x0365_0A_x1097_0A_x0310_0A

> <ROCS_TanimotoCombo>
0.693 

> <ROCS_ShapeTanimoto>
0.219 

> <ROCS_ColorTanimoto>
0.474 

> <ROCS_RefTversky>
0.199 

> <ROCS_RefColorTversky>
0.530 

> <ROCS_RefTverskyCombo>
0.729 

> <ROCS_FitTversky>
1.850 

> <ROCS_FitColorTversky>
0.817 

> <ROCS_FitTverskyCombo>
2.668 

> <ROCS_ColorScore>
-7.867

> <ROCS_Overlap>
2013.594

> <ROCS_Rank>
473                 

$$$$
untitled-dbase-586437_2
  -OEChem-02092408543D

 44 46  0     0  0  0  0  0  0999 V2000
    5.8277   12.8249   28.8313 C   0  0  0  0  0  0  0  0  0  0  0  0
    5.1620   11.9704   27.9526 C   0  0  0  0  0  0  0  0  0  0  0  0
    7.1309   13.2361   28.5514 C   0  0  0  0  0  0  0  0  0  0  0  0
    5.7996   11.5268   26.7940 C   0  0  0  0  0  0  0  0  0  0  0  0
    7.7684   12.7925   27.3928 C   0  0  0  0  0  0  0  0  0  0  0  0
    7.1028   11.9378   26.5141 C   0  0  0  0  0  0  0  0  0  0  0  0
    9.6706   12.1347   22.1869 C   0  0  0  0  0  0  0  0  0  0  0  0
    7.0981   10.4770   24.1989 C   0  0  0  0  0  0  0  0  0  0  0  0
    8.8950   10.2941   25.2572 C   0  0  0  0  0  0  0  0  0  0  0  0
    8.4345   12.5665   24.3615 C   0  0  0  0  0  0  0  0  0  0  0  0
    7.8149   11.4431   25.2195 C   0  0  0  0  0  0  0  0  0  0  0  0
    8.5897   10.3269   23.7106 C   0  0  0  0  0  0  0  0  0  0  0  0
    9.7810   13.6796   19.7828 C   0  0  0  0  0  0  0  0  0  0  0  0
   10.5619   15.5644   21.2479 C   0  0  0  0  0  0  0  0  0  0  0  0
   11.9402   13.4733   21.0595 C   0  0  0  0  0  0  0  0  0  0  0  0
    8.9969    9.1904   22.8240 C   0  0  0  0  0  0  0  0  0  0  0  0
   10.5247   14.0487   21.0655 C   0  0  0  0  0  0  0  0  0  0  0  0
    8.9726   11.7070   23.2991 N   0  0  0  0  0  0  0  0  0  0  0  0
   10.1142   11.4027   21.3070 O   0  0  0  0  0  0  0  0  0  0  0  0
   10.4089    9.0118   22.8933 O   0  0  0  0  0  0  0  0  0  0  0  0
    9.8132   13.4975   22.1794 O   0  0  0  0  0  0  0  0  0  0  0  0
    5.3313   13.1713   29.7331 H   0  0  0  0  0  0  0  0  0  0  0  0
    4.1469   11.6510   28.1706 H   0  0  0  0  0  0  0  0  0  0  0  0
    7.6483   13.9021   29.2359 H   0  0  0  0  0  0  0  0  0  0  0  0
    5.2747   10.8614   26.1139 H   0  0  0  0  0  0  0  0  0  0  0  0
    8.7836   13.1176   27.1815 H   0  0  0  0  0  0  0  0  0  0  0  0
    6.6277    9.5799   24.6185 H   0  0  0  0  0  0  0  0  0  0  0  0
    6.4035   10.9430   23.4924 H   0  0  0  0  0  0  0  0  0  0  0  0
    9.9069   10.5863   25.5557 H   0  0  0  0  0  0  0  0  0  0  0  0
    8.6188    9.3772   25.7912 H   0  0  0  0  0  0  0  0  0  0  0  0
    7.6983   13.2592   23.9431 H   0  0  0  0  0  0  0  0  0  0  0  0
    9.2505   13.1013   24.8567 H   0  0  0  0  0  0  0  0  0  0  0  0
    9.7521   12.5924   19.6482 H   0  0  0  0  0  0  0  0  0  0  0  0
    8.7531   14.0566   19.7897 H   0  0  0  0  0  0  0  0  0  0  0  0
   10.2930   14.0864   18.9032 H   0  0  0  0  0  0  0  0  0  0  0  0
   11.0946   15.8338   22.1672 H   0  0  0  0  0  0  0  0  0  0  0  0
    9.5489   15.9705   21.3480 H   0  0  0  0  0  0  0  0  0  0  0  0
   11.0528   16.0609   20.4047 H   0  0  0  0  0  0  0  0  0  0  0  0
   12.4738   13.7379   21.9795 H   0  0  0  0  0  0  0  0  0  0  0  0
   11.9317   12.3824   20.9665 H   0  0  0  0  0  0  0  0  0  0  0  0
   12.5262   13.8888   20.2317 H   0  0  0  0  0  0  0  0  0  0  0  0
    8.7284    9.3855   21.7755 H   0  0  0  0  0  0  0  0  0  0  0  0
    8.5180    8.2502   23.1338 H   0  0  0  0  0  0  0  0  0  0  0  0
   10.6228    8.2699   22.3065 H   0  0  0  0  0  0  0  0  0  0  0  0
  1  2  1  0  0  0  0
  1  3  2  0  0  0  0
  2  4  2  0  0  0  0
  3  5  1  0  0  0  0
  4  6  1  0  0  0  0
  5  6  2  0  0  0  0
  6 11  1  6  0  0  0
  7 18  1  0  0  0  0
  7 19  2  0  0  0  0
  7 21  1  0  0  0  0
  8 11  1  0  0  0  0
  8 12  1  0  0  0  0
  9 11  1  0  0  0  0
  9 12  1  0  0  0  0
 10 11  1  0  0  0  0
 10 18  1  0  0  0  0
 12 16  1  6  0  0  0
 12 18  1  0  0  0  0
 13 17  1  0  0  0  0
 14 17  1  0  0  0  0
 15 17  1  0  0  0  0
 16 20  1  0  0  0  0
 17 21  1  0  0  0  0
  1 22  1  0  0  0  0
  2 23  1  0  0  0  0
  3 24  1  0  0  0  0
  4 25  1  0  0  0  0
  5 26  1  0  0  0  0
  8 27  1  0  0  0  0
  8 28  1  0  0  0  0
  9 29  1  0  0  0  0
  9 30  1  0  0  0  0
 10 31  1  0  0  0  0
 10 32  1  0  0  0  0
 13 33  1  0  0  0  0
 13 34  1  0  0  0  0
 13 35  1  0  0  0  0
 14 36  1  0  0  0  0
 14 37  1  0  0  0  0
 14 38  1  0  0  0  0
 15 39  1  0  0  0  0
 15 40  1  0  0  0  0
 15 41  1  0  0  0  0
 16 42  1  0  0  0  0
 16 43  1  0  0  0  0
 20 44  1  0  0  0  0
M  END
> <id>
EN300-37408183

> <smiles>
CC(C)(C)OC(=O)N1C[C@]2(C[C@]1(CO)C2)C=3C=CC=CC3

> <IUPAC Name>
tert-butyl 1-(hydroxymethyl)-4-phenyl-2-azabicyclo[2.1.1]hexane-2-carboxylate

> <CAS>
2763754-86-3

> <URL>
https://www.enaminestore.com/catalog/EN300-37408183

> <ROCS_ShapeQuery>
x0812_0A_x1140_0A_x1097_0A_x0365_0A_x1097_0A_x0310_0A

> <ROCS_TanimotoCombo>
0.693 

> <ROCS_ShapeTanimoto>
0.262 

> <ROCS_ColorTanimoto>
0.431 

> <ROCS_RefTversky>
0.237 

> <ROCS_RefColorTversky>
0.541 

> <ROCS_RefTverskyCombo>
0.778 

> <ROCS_FitTversky>
1.679 

> <ROCS_FitColorTversky>
0.679 

> <ROCS_FitTverskyCombo>
2.358 

> <ROCS_ColorScore>
-8.104

> <ROCS_Overlap>
2399.010

> <ROCS_Rank>
474                 

$$$$
untitled-dbase-477265_6
  -OEChem-02092408543D

 37 38  0     0  0  0  0  0  0999 V2000
   10.2471   11.1395   22.0243 C   0  0  0  0  0  0  0  0  0  0  0  0
    8.0246   11.8042   22.9023 C   0  0  0  0  0  0  0  0  0  0  0  0
    9.9703   11.7315   24.4168 C   0  0  0  0  0  0  0  0  0  0  0  0
    7.0596   11.6516   24.0826 C   0  0  0  0  0  0  0  0  0  0  0  0
    9.0549   11.5783   25.6360 C   0  0  0  0  0  0  0  0  0  0  0  0
    9.3231   11.0253   23.2055 C   0  0  0  0  0  0  0  0  0  0  0  0
    7.7490   10.8766   25.2205 C   0  0  0  0  0  0  0  0  0  0  0  0
    8.9640    9.5541   23.5965 C   0  0  0  0  0  0  0  0  0  0  0  0
   10.1862    8.7166   24.0134 C   0  0  0  0  0  0  0  0  0  0  0  0
    8.2220    8.7896   22.4858 C   0  0  0  0  0  0  0  0  0  0  0  0
   12.3730   10.4803   21.2307 C   0  0  0  0  0  0  0  0  0  0  0  0
    6.8137   10.7112   26.4140 C   0  0  0  0  0  0  0  0  0  0  0  0
    5.6453    9.9985   26.0181 N   0  0  0  0  0  0  0  0  0  0  0  0
    9.9804   11.7583   21.0031 O   0  0  0  0  0  0  0  0  0  0  0  0
    8.0749    9.5581   24.7394 O   0  0  0  0  0  0  0  0  0  0  0  0
   11.3987   10.4551   22.2786 O   0  0  0  0  0  0  0  0  0  0  0  0
    7.5520   11.4631   21.9737 H   0  0  0  0  0  0  0  0  0  0  0  0
    8.2410   12.8685   22.7388 H   0  0  0  0  0  0  0  0  0  0  0  0
   10.1258   12.7981   24.2050 H   0  0  0  0  0  0  0  0  0  0  0  0
   10.9697   11.3362   24.6342 H   0  0  0  0  0  0  0  0  0  0  0  0
    6.7249   12.6389   24.4221 H   0  0  0  0  0  0  0  0  0  0  0  0
    6.1711   11.1058   23.7417 H   0  0  0  0  0  0  0  0  0  0  0  0
    9.5768   10.9816   26.3944 H   0  0  0  0  0  0  0  0  0  0  0  0
    8.8530   12.5610   26.0782 H   0  0  0  0  0  0  0  0  0  0  0  0
    9.8615    7.7136   24.2691 H   0  0  0  0  0  0  0  0  0  0  0  0
   10.6591    9.1784   24.8735 H   0  0  0  0  0  0  0  0  0  0  0  0
   10.8888    8.6745   23.1879 H   0  0  0  0  0  0  0  0  0  0  0  0
    8.0073    7.7825   22.8272 H   0  0  0  0  0  0  0  0  0  0  0  0
    8.8473    8.7501   21.6002 H   0  0  0  0  0  0  0  0  0  0  0  0
    7.2946    9.3037   22.2564 H   0  0  0  0  0  0  0  0  0  0  0  0
   13.2513    9.9056   21.5349 H   0  0  0  0  0  0  0  0  0  0  0  0
   12.6562   11.5146   21.0200 H   0  0  0  0  0  0  0  0  0  0  0  0
   11.9408   10.0328   20.3326 H   0  0  0  0  0  0  0  0  0  0  0  0
    7.3580   10.1587   27.1788 H   0  0  0  0  0  0  0  0  0  0  0  0
    6.5529   11.7096   26.7627 H   0  0  0  0  0  0  0  0  0  0  0  0
    4.8256   10.5501   26.1978 H   0  0  0  0  0  0  0  0  0  0  0  0
    5.6847    9.7879   25.0370 H   0  0  0  0  0  0  0  0  0  0  0  0
  1  6  1  0  0  0  0
  1 14  2  0  0  0  0
  1 16  1  0  0  0  0
  2  4  1  0  0  0  0
  2  6  1  0  0  0  0
  3  5  1  0  0  0  0
  3  6  1  0  0  0  0
  4  7  1  0  0  0  0
  5  7  1  0  0  0  0
  6  8  1  0  0  0  0
  7 12  1  0  0  0  0
  7 15  1  0  0  0  0
  8  9  1  0  0  0  0
  8 10  1  0  0  0  0
  8 15  1  0  0  0  0
 11 16  1  0  0  0  0
 12 13  1  0  0  0  0
  2 17  1  0  0  0  0
  2 18  1  0  0  0  0
  3 19  1  0  0  0  0
  3 20  1  0  0  0  0
  4 21  1  0  0  0  0
  4 22  1  0  0  0  0
  5 23  1  0  0  0  0
  5 24  1  0  0  0  0
  9 25  1  0  0  0  0
  9 26  1  0  0  0  0
  9 27  1  0  0  0  0
 10 28  1  0  0  0  0
 10 29  1  0  0  0  0
 10 30  1  0  0  0  0
 11 31  1  0  0  0  0
 11 32  1  0  0  0  0
 11 33  1  0  0  0  0
 12 34  1  0  0  0  0
 12 35  1  0  0  0  0
 13 36  1  0  0  0  0
 13 37  1  0  0  0  0
M  END
> <id>
EN300-27728361

> <smiles>
COC(=O)C1(CCC2(CN)CC1)C(C)(C)O2

> <IUPAC Name>
methyl 1-(aminomethyl)-3,3-dimethyl-2-oxabicyclo[2.2.2]octane-4-carboxylate

> <CAS>
2580220-47-7

> <URL>
https://www.enaminestore.com/catalog/EN300-27728361

> <ROCS_ShapeQuery>
x0812_0A_x1140_0A_x1097_0A_x0365_0A_x1097_0A_x0310_0A

> <ROCS_TanimotoCombo>
0.693 

> <ROCS_ShapeTanimoto>
0.238 

> <ROCS_ColorTanimoto>
0.455 

> <ROCS_RefTversky>
0.215 

> <ROCS_RefColorTversky>
0.548 

> <ROCS_RefTverskyCombo>
0.763 

> <ROCS_FitTversky>
1.804 

> <ROCS_FitColorTversky>
0.728 

> <ROCS_FitTverskyCombo>
2.532 

> <ROCS_ColorScore>
-8.180

> <ROCS_Overlap>
2175.206

> <ROCS_Rank>
475                 

$$$$
untitled-dbase-504159_6
  -OEChem-02092408543D

 40 42  0     0  0  0  0  0  0999 V2000
    9.5633   12.2309   22.3058 C   0  0  0  0  0  0  0  0  0  0  0  0
    8.3569    9.2386   22.1480 C   0  0  0  0  0  0  0  0  0  0  0  0
   10.4867    9.3683   23.4835 C   0  0  0  0  0  0  0  0  0  0  0  0
    7.4155   11.6914   23.8251 C   0  0  0  0  0  0  0  0  0  0  0  0
    9.1733   11.7987   24.9277 C   0  0  0  0  0  0  0  0  0  0  0  0
    8.5305    7.7186   22.1175 C   0  0  0  0  0  0  0  0  0  0  0  0
   10.5705    7.8428   23.3994 C   0  0  0  0  0  0  0  0  0  0  0  0
    8.9181   11.4117   23.4143 C   0  0  0  0  0  0  0  0  0  0  0  0
    9.0389    9.8595   23.3726 C   0  0  0  0  0  0  0  0  0  0  0  0
    7.9181   10.8554   25.0629 C   0  0  0  0  0  0  0  0  0  0  0  0
   10.0479   15.8566   22.2160 C   0  0  0  0  0  0  0  0  0  0  0  0
    7.1243   10.7987   26.3328 C   0  0  0  0  0  0  0  0  0  0  0  0
   10.1348   14.4396   21.6904 C   0  0  0  0  0  0  0  0  0  0  0  0
    9.9405    7.3389   22.1805 N   0  0  0  0  0  0  0  0  0  0  0  0
    5.8190   10.2544   26.0953 N   0  0  0  0  0  0  0  0  0  0  0  0
   10.0138   11.7523   21.2737 O   0  0  0  0  0  0  0  0  0  0  0  0
    8.3061    9.5379   24.5726 O   0  0  0  0  0  0  0  0  0  0  0  0
    9.5541   13.5502   22.6495 O   0  0  0  0  0  0  0  0  0  0  0  0
    8.7731    9.6674   21.2279 H   0  0  0  0  0  0  0  0  0  0  0  0
    7.2824    9.4489   22.1404 H   0  0  0  0  0  0  0  0  0  0  0  0
   10.9397    9.6724   24.4328 H   0  0  0  0  0  0  0  0  0  0  0  0
   11.0957    9.8076   22.6834 H   0  0  0  0  0  0  0  0  0  0  0  0
    7.1374   12.7363   24.0075 H   0  0  0  0  0  0  0  0  0  0  0  0
    6.6315   11.2273   23.2223 H   0  0  0  0  0  0  0  0  0  0  0  0
   10.0932   11.4382   25.3934 H   0  0  0  0  0  0  0  0  0  0  0  0
    9.0386   12.8524   25.2000 H   0  0  0  0  0  0  0  0  0  0  0  0
    7.9759    7.2535   22.9418 H   0  0  0  0  0  0  0  0  0  0  0  0
    8.1016    7.3297   21.1873 H   0  0  0  0  0  0  0  0  0  0  0  0
   11.6243    7.5435   23.4013 H   0  0  0  0  0  0  0  0  0  0  0  0
   10.1081    7.3846   24.2821 H   0  0  0  0  0  0  0  0  0  0  0  0
    9.0068   16.1496   22.3780 H   0  0  0  0  0  0  0  0  0  0  0  0
   10.5931   15.9520   23.1607 H   0  0  0  0  0  0  0  0  0  0  0  0
   10.5068   16.5583   21.5115 H   0  0  0  0  0  0  0  0  0  0  0  0
    7.6579   10.1649   27.0526 H   0  0  0  0  0  0  0  0  0  0  0  0
    7.0277   11.8162   26.7325 H   0  0  0  0  0  0  0  0  0  0  0  0
   11.1785   14.1529   21.5306 H   0  0  0  0  0  0  0  0  0  0  0  0
    9.5889   14.3458   20.7469 H   0  0  0  0  0  0  0  0  0  0  0  0
   10.0161    6.3222   22.1589 H   0  0  0  0  0  0  0  0  0  0  0  0
    5.1221   10.9252   26.3534 H   0  0  0  0  0  0  0  0  0  0  0  0
    5.7193   10.0308   25.1247 H   0  0  0  0  0  0  0  0  0  0  0  0
  1  8  1  0  0  0  0
  1 16  2  0  0  0  0
  1 18  1  0  0  0  0
  2  6  1  0  0  0  0
  2  9  1  0  0  0  0
  3  7  1  0  0  0  0
  3  9  1  0  0  0  0
  4  8  1  0  0  0  0
  4 10  1  0  0  0  0
  5  8  1  0  0  0  0
  5 10  1  0  0  0  0
  6 14  1  0  0  0  0
  7 14  1  0  0  0  0
  8  9  1  0  0  0  0
  9 17  1  0  0  0  0
 10 12  1  0  0  0  0
 10 17  1  0  0  0  0
 11 13  1  0  0  0  0
 12 15  1  0  0  0  0
 13 18  1  0  0  0  0
  2 19  1  0  0  0  0
  2 20  1  0  0  0  0
  3 21  1  0  0  0  0
  3 22  1  0  0  0  0
  4 23  1  0  0  0  0
  4 24  1  0  0  0  0
  5 25  1  0  0  0  0
  5 26  1  0  0  0  0
  6 27  1  0  0  0  0
  6 28  1  0  0  0  0
  7 29  1  0  0  0  0
  7 30  1  0  0  0  0
 11 31  1  0  0  0  0
 11 32  1  0  0  0  0
 11 33  1  0  0  0  0
 12 34  1  0  0  0  0
 12 35  1  0  0  0  0
 13 36  1  0  0  0  0
 13 37  1  0  0  0  0
 14 38  1  0  0  0  0
 15 39  1  0  0  0  0
 15 40  1  0  0  0  0
M  END
> <id>
EN300-28279648

> <smiles>
CCOC(=O)C1(CC2(CN)C1)C3(CCNCC3)O2

> <IUPAC Name>
ethyl 4-(aminomethyl)-3-oxaspiro[bicyclo[2.1.1]hexane-2,4'-piperidine]-1-carboxylate

> <CAS>
2680881-93-8

> <URL>
https://www.enaminestore.com/catalog/EN300-28279648

> <ROCS_ShapeQuery>
x0812_0A_x1140_0A_x1097_0A_x0365_0A_x1097_0A_x0310_0A

> <ROCS_TanimotoCombo>
0.693 

> <ROCS_ShapeTanimoto>
0.249 

> <ROCS_ColorTanimoto>
0.443 

> <ROCS_RefTversky>
0.225 

> <ROCS_RefColorTversky>
0.589 

> <ROCS_RefTverskyCombo>
0.814 

> <ROCS_FitTversky>
1.765 

> <ROCS_FitColorTversky>
0.642 

> <ROCS_FitTverskyCombo>
2.407 

> <ROCS_ColorScore>
-8.877

> <ROCS_Overlap>
2276.333

> <ROCS_Rank>
476                 

$$$$
untitled-dbase-491327_0
  -OEChem-02092408543D

 40 41  0     0  0  0  0  0  0999 V2000
    9.8832   11.9849   22.0446 C   0  0  0  0  0  0  0  0  0  0  0  0
    7.9249   12.4294   23.5379 C   0  0  0  0  0  0  0  0  0  0  0  0
   10.0687   11.5965   24.4974 C   0  0  0  0  0  0  0  0  0  0  0  0
    7.1513   11.8826   24.7430 C   0  0  0  0  0  0  0  0  0  0  0  0
    9.3262   11.0379   25.7167 C   0  0  0  0  0  0  0  0  0  0  0  0
    8.6521   10.0905   23.1215 C   0  0  0  0  0  0  0  0  0  0  0  0
    9.1462   11.5362   23.2705 C   0  0  0  0  0  0  0  0  0  0  0  0
    7.8866   10.6591   25.3210 C   0  0  0  0  0  0  0  0  0  0  0  0
   10.1292   13.8174   19.8818 C   0  0  0  0  0  0  0  0  0  0  0  0
   11.4163   15.2557   21.4892 C   0  0  0  0  0  0  0  0  0  0  0  0
   12.2854   12.9809   20.8745 C   0  0  0  0  0  0  0  0  0  0  0  0
    7.1278   10.0714   26.5060 C   0  0  0  0  0  0  0  0  0  0  0  0
   11.0347   13.8258   21.1125 C   0  0  0  0  0  0  0  0  0  0  0  0
    5.8249    9.6670   26.0945 N   0  0  0  0  0  0  0  0  0  0  0  0
   10.0597   11.2849   21.0566 O   0  0  0  0  0  0  0  0  0  0  0  0
    7.9526    9.6495   24.2953 O   0  0  0  0  0  0  0  0  0  0  0  0
   10.3111   13.2683   22.2142 O   0  0  0  0  0  0  0  0  0  0  0  0
    7.2688   12.4666   22.6588 H   0  0  0  0  0  0  0  0  0  0  0  0
    8.2330   13.4653   23.7290 H   0  0  0  0  0  0  0  0  0  0  0  0
   10.3905   12.6275   24.6927 H   0  0  0  0  0  0  0  0  0  0  0  0
   10.9874   11.0213   24.3247 H   0  0  0  0  0  0  0  0  0  0  0  0
    7.0341   12.6664   25.5006 H   0  0  0  0  0  0  0  0  0  0  0  0
    6.1452   11.5958   24.4122 H   0  0  0  0  0  0  0  0  0  0  0  0
    9.8630   10.1516   26.0774 H   0  0  0  0  0  0  0  0  0  0  0  0
    9.3311   11.7744   26.5287 H   0  0  0  0  0  0  0  0  0  0  0  0
    7.9726    9.9868   22.2675 H   0  0  0  0  0  0  0  0  0  0  0  0
    9.4845    9.3981   22.9497 H   0  0  0  0  0  0  0  0  0  0  0  0
    9.8530   12.7928   19.6082 H   0  0  0  0  0  0  0  0  0  0  0  0
    9.2123   14.3911   20.0517 H   0  0  0  0  0  0  0  0  0  0  0  0
   10.6462   14.2406   19.0130 H   0  0  0  0  0  0  0  0  0  0  0  0
   12.0661   15.2665   22.3718 H   0  0  0  0  0  0  0  0  0  0  0  0
   10.5275   15.8403   21.7530 H   0  0  0  0  0  0  0  0  0  0  0  0
   11.9353   15.7644   20.6704 H   0  0  0  0  0  0  0  0  0  0  0  0
   12.9351   12.9867   21.7572 H   0  0  0  0  0  0  0  0  0  0  0  0
   12.0317   11.9422   20.6392 H   0  0  0  0  0  0  0  0  0  0  0  0
   12.8806   13.3894   20.0498 H   0  0  0  0  0  0  0  0  0  0  0  0
    7.6981    9.2154   26.8649 H   0  0  0  0  0  0  0  0  0  0  0  0
    7.0643   10.8471   27.2682 H   0  0  0  0  0  0  0  0  0  0  0  0
    5.1271   10.1456   26.6352 H   0  0  0  0  0  0  0  0  0  0  0  0
    5.6865    9.8833   25.1237 H   0  0  0  0  0  0  0  0  0  0  0  0
  1  7  1  0  0  0  0
  1 15  2  0  0  0  0
  1 17  1  0  0  0  0
  2  4  1  0  0  0  0
  2  7  1  0  0  0  0
  3  5  1  0  0  0  0
  3  7  1  0  0  0  0
  4  8  1  0  0  0  0
  5  8  1  0  0  0  0
  6  7  1  0  0  0  0
  6 16  1  0  0  0  0
  8 12  1  0  0  0  0
  8 16  1  0  0  0  0
  9 13  1  0  0  0  0
 10 13  1  0  0  0  0
 11 13  1  0  0  0  0
 12 14  1  0  0  0  0
 13 17  1  0  0  0  0
  2 18  1  0  0  0  0
  2 19  1  0  0  0  0
  3 20  1  0  0  0  0
  3 21  1  0  0  0  0
  4 22  1  0  0  0  0
  4 23  1  0  0  0  0
  5 24  1  0  0  0  0
  5 25  1  0  0  0  0
  6 26  1  0  0  0  0
  6 27  1  0  0  0  0
  9 28  1  0  0  0  0
  9 29  1  0  0  0  0
  9 30  1  0  0  0  0
 10 31  1  0  0  0  0
 10 32  1  0  0  0  0
 10 33  1  0  0  0  0
 11 34  1  0  0  0  0
 11 35  1  0  0  0  0
 11 36  1  0  0  0  0
 12 37  1  0  0  0  0
 12 38  1  0  0  0  0
 14 39  1  0  0  0  0
 14 40  1  0  0  0  0
M  END
> <id>
EN300-27727439

> <smiles>
CC(C)(C)OC(=O)C1(CCC2(CN)CC1)CO2

> <IUPAC Name>
tert-butyl 1-(aminomethyl)-2-oxabicyclo[2.2.2]octane-4-carboxylate

> <CAS>
2639418-56-5

> <URL>
https://www.enaminestore.com/catalog/EN300-27727439

> <ROCS_ShapeQuery>
x0812_0A_x1140_0A_x1097_0A_x0365_0A_x1097_0A_x0310_0A

> <ROCS_TanimotoCombo>
0.693 

> <ROCS_ShapeTanimoto>
0.236 

> <ROCS_ColorTanimoto>
0.457 

> <ROCS_RefTversky>
0.214 

> <ROCS_RefColorTversky>
0.550 

> <ROCS_RefTverskyCombo>
0.764 

> <ROCS_FitTversky>
1.742 

> <ROCS_FitColorTversky>
0.729 

> <ROCS_FitTverskyCombo>
2.472 

> <ROCS_ColorScore>
-8.208

> <ROCS_Overlap>
2170.635

> <ROCS_Rank>
477                 

$$$$
untitled-dbase-518498_0
  -OEChem-02092408543D

 32 33  0     1  0  0  0  0  0999 V2000
    7.1839   12.0870   24.5976 C   0  0  0  0  0  0  0  0  0  0  0  0
    8.3396   12.5867   23.7242 C   0  0  0  0  0  0  0  0  0  0  0  0
    9.1617   11.0303   25.3193 C   0  0  0  0  0  0  0  0  0  0  0  0
    7.6802   10.7114   25.0755 C   0  0  2  0  0  0  0  0  0  0  0  0
    9.4024   11.4697   23.8656 C   0  0  1  0  0  0  0  0  0  0  0  0
    7.7326    9.6662   23.9058 C   0  0  0  0  0  0  0  0  0  0  0  0
    8.9862   10.1732   23.0834 C   0  0  1  0  0  0  0  0  0  0  0  0
   10.8146   11.9688   23.6035 C   0  0  0  0  0  0  0  0  0  0  0  0
    7.9293    8.2549   24.5090 C   0  0  0  0  0  0  0  0  0  0  0  0
    6.4185    9.6149   23.1057 C   0  0  0  0  0  0  0  0  0  0  0  0
    8.7815   10.3838   21.5814 C   0  0  0  0  0  0  0  0  0  0  0  0
   10.0701    9.2361   23.1996 O   0  0  0  0  0  0  0  0  0  0  0  0
    7.0555   12.7586   25.4558 H   0  0  0  0  0  0  0  0  0  0  0  0
    6.2291   12.0671   24.0684 H   0  0  0  0  0  0  0  0  0  0  0  0
    8.0293   12.7684   22.6928 H   0  0  0  0  0  0  0  0  0  0  0  0
    8.7083   13.5411   24.1201 H   0  0  0  0  0  0  0  0  0  0  0  0
    9.3121   11.8379   26.0456 H   0  0  0  0  0  0  0  0  0  0  0  0
    9.7608   10.1692   25.6289 H   0  0  0  0  0  0  0  0  0  0  0  0
    7.1441   10.3560   25.9596 H   0  0  0  0  0  0  0  0  0  0  0  0
   11.5287   11.1512   23.7137 H   0  0  0  0  0  0  0  0  0  0  0  0
   11.0719   12.7577   24.3119 H   0  0  0  0  0  0  0  0  0  0  0  0
   10.8904   12.3674   22.5906 H   0  0  0  0  0  0  0  0  0  0  0  0
    7.9657    7.5330   23.7037 H   0  0  0  0  0  0  0  0  0  0  0  0
    7.0978    8.0374   25.1665 H   0  0  0  0  0  0  0  0  0  0  0  0
    8.8576    8.2394   25.0651 H   0  0  0  0  0  0  0  0  0  0  0  0
    6.5110    8.8793   22.3139 H   0  0  0  0  0  0  0  0  0  0  0  0
    6.2233   10.5918   22.6767 H   0  0  0  0  0  0  0  0  0  0  0  0
    5.6068    9.3378   23.7699 H   0  0  0  0  0  0  0  0  0  0  0  0
    8.4965    9.4432   21.1154 H   0  0  0  0  0  0  0  0  0  0  0  0
    9.7055   10.7413   21.1327 H   0  0  0  0  0  0  0  0  0  0  0  0
    7.9955   11.1179   21.4186 H   0  0  0  0  0  0  0  0  0  0  0  0
    9.7921    8.4493   22.7124 H   0  0  0  0  0  0  0  0  0  0  0  0
  1  2  1  0  0  0  0
  1  4  1  0  0  0  0
  2  5  1  0  0  0  0
  3  4  1  6  0  0  0
  3  5  1  0  0  0  0
  4  6  1  0  0  0  0
  5  7  1  0  0  0  0
  5  8  1  6  0  0  0
  6  7  1  0  0  0  0
  6  9  1  0  0  0  0
  6 10  1  0  0  0  0
  7 11  1  1  0  0  0
  7 12  1  6  0  0  0
  1 13  1  0  0  0  0
  1 14  1  0  0  0  0
  2 15  1  0  0  0  0
  2 16  1  0  0  0  0
  3 17  1  0  0  0  0
  3 18  1  0  0  0  0
  4 19  1  0  0  0  0
  8 20  1  0  0  0  0
  8 21  1  0  0  0  0
  8 22  1  0  0  0  0
  9 23  1  0  0  0  0
  9 24  1  0  0  0  0
  9 25  1  0  0  0  0
 10 26  1  0  0  0  0
 10 27  1  0  0  0  0
 10 28  1  0  0  0  0
 11 29  1  0  0  0  0
 11 30  1  0  0  0  0
 11 31  1  0  0  0  0
 12 32  1  0  0  0  0
M  END
> <id>
EN300-36596580

> <smiles>
CC1(C)[C@@H]2CC[C@@](C)(C2)[C@@]1(C)O

> <MDLNUMBER>
MFCD34550753

> <IUPAC Name>
(1S,2R,4R)-1,2,3,3-tetramethylbicyclo[2.2.1]heptan-2-ol

> <CAS>
139974-53-1

> <Purity>
95

> <URL>
https://www.enaminestore.com/catalog/EN300-36596580

> <ROCS_ShapeQuery>
x0812_0A_x1140_0A_x1097_0A_x0365_0A_x1097_0A_x0310_0A

> <ROCS_TanimotoCombo>
0.693 

> <ROCS_ShapeTanimoto>
0.211 

> <ROCS_ColorTanimoto>
0.481 

> <ROCS_RefTversky>
0.192 

> <ROCS_RefColorTversky>
0.534 

> <ROCS_RefTverskyCombo>
0.726 

> <ROCS_FitTversky>
1.892 

> <ROCS_FitColorTversky>
0.830 

> <ROCS_FitTverskyCombo>
2.722 

> <ROCS_ColorScore>
-7.924

> <ROCS_Overlap>
1943.189

> <ROCS_Rank>
478                 

$$$$
untitled-dbase-505485_2
  -OEChem-02092408543D

 38 40  0     1  0  0  0  0  0999 V2000
   16.6903   15.0646   23.0882 C   0  0  0  0  0  0  0  0  0  0  0  0
   16.2835   15.6048   21.8683 C   0  0  0  0  0  0  0  0  0  0  0  0
   15.7652   14.4177   23.9077 C   0  0  0  0  0  0  0  0  0  0  0  0
   14.9517   15.4982   21.4677 C   0  0  0  0  0  0  0  0  0  0  0  0
   14.4334   14.3110   23.5071 C   0  0  0  0  0  0  0  0  0  0  0  0
   14.0266   14.8513   22.2872 C   0  0  0  0  0  0  0  0  0  0  0  0
   10.7262   13.2946   22.0990 C   0  0  0  0  0  0  0  0  0  0  0  0
    9.1543   11.1812   25.7826 C   0  0  0  0  0  0  0  0  0  0  0  0
    8.5490   12.3903   25.0860 C   0  0  0  0  0  0  0  0  0  0  0  0
    8.2125   10.0505   25.3968 C   0  0  0  0  0  0  0  0  0  0  0  0
    8.0357   11.8590   23.7462 C   0  0  2  0  0  0  0  0  0  0  0  0
    7.8358   10.3396   23.9451 C   0  0  1  0  0  0  0  0  0  0  0  0
    8.9896   11.5712   22.5620 C   0  0  2  0  0  0  0  0  0  0  0  0
    8.8616   10.0569   22.8193 C   0  0  1  0  0  0  0  0  0  0  0  0
   12.5937   14.7364   21.8570 C   0  0  0  0  0  0  0  0  0  0  0  0
   10.3334   12.1210   22.6907 N   0  0  0  0  0  0  0  0  0  0  0  0
   10.0279   14.0234   21.4019 O   0  0  0  0  0  0  0  0  0  0  0  0
   10.0566    9.3463   23.1960 O   0  0  0  0  0  0  0  0  0  0  0  0
   12.0354   13.5375   22.4063 O   0  0  0  0  0  0  0  0  0  0  0  0
   17.7277   15.1466   23.3994 H   0  0  0  0  0  0  0  0  0  0  0  0
   17.0039   16.1076   21.2296 H   0  0  0  0  0  0  0  0  0  0  0  0
   16.0818   13.9960   24.8570 H   0  0  0  0  0  0  0  0  0  0  0  0
   14.6437   15.9222   20.5156 H   0  0  0  0  0  0  0  0  0  0  0  0
   13.7196   13.8054   24.1521 H   0  0  0  0  0  0  0  0  0  0  0  0
   10.1629   10.9867   25.4017 H   0  0  0  0  0  0  0  0  0  0  0  0
    9.2240   11.3151   26.8659 H   0  0  0  0  0  0  0  0  0  0  0  0
    7.7061   12.7676   25.6779 H   0  0  0  0  0  0  0  0  0  0  0  0
    9.2651   13.2091   24.9717 H   0  0  0  0  0  0  0  0  0  0  0  0
    8.6699    9.0652   25.5251 H   0  0  0  0  0  0  0  0  0  0  0  0
    7.3151   10.0881   26.0261 H   0  0  0  0  0  0  0  0  0  0  0  0
    7.1324   12.3935   23.4263 H   0  0  0  0  0  0  0  0  0  0  0  0
    6.8312    9.9772   23.6961 H   0  0  0  0  0  0  0  0  0  0  0  0
    8.5578   11.8625   21.5963 H   0  0  0  0  0  0  0  0  0  0  0  0
    8.3942    9.5413   21.9703 H   0  0  0  0  0  0  0  0  0  0  0  0
   12.0098   15.5949   22.2061 H   0  0  0  0  0  0  0  0  0  0  0  0
   12.5184   14.7001   20.7649 H   0  0  0  0  0  0  0  0  0  0  0  0
   11.0085   11.6129   23.2427 H   0  0  0  0  0  0  0  0  0  0  0  0
    9.7564    8.4978   23.5456 H   0  0  0  0  0  0  0  0  0  0  0  0
  1  2  1  0  0  0  0
  1  3  2  0  0  0  0
  2  4  2  0  0  0  0
  3  5  1  0  0  0  0
  4  6  1  0  0  0  0
  5  6  2  0  0  0  0
  6 15  1  0  0  0  0
  7 16  1  0  0  0  0
  7 17  2  0  0  0  0
  7 19  1  0  0  0  0
  8  9  1  0  0  0  0
  8 10  1  0  0  0  0
  9 11  1  6  0  0  0
 10 12  1  6  0  0  0
 11 12  1  0  0  0  0
 11 13  1  0  0  0  0
 12 14  1  0  0  0  0
 13 14  1  0  0  0  0
 13 16  1  6  0  0  0
 14 18  1  6  0  0  0
 15 19  1  0  0  0  0
  1 20  1  0  0  0  0
  2 21  1  0  0  0  0
  3 22  1  0  0  0  0
  4 23  1  0  0  0  0
  5 24  1  0  0  0  0
  8 25  1  0  0  0  0
  8 26  1  0  0  0  0
  9 27  1  0  0  0  0
  9 28  1  0  0  0  0
 10 29  1  0  0  0  0
 10 30  1  0  0  0  0
 11 31  1  0  0  0  0
 12 32  1  0  0  0  0
 13 33  1  0  0  0  0
 14 34  1  0  0  0  0
 15 35  1  0  0  0  0
 15 36  1  0  0  0  0
 16 37  1  0  0  0  0
 18 38  1  0  0  0  0
M  END
> <id>
EN300-28281042

> <smiles>
O[C@@H]1[C@H](NC(=O)OCC=2C=CC=CC2)[C@@H]3CCC[C@H]13 |&1:1,2,14,18,r|

> <IUPAC Name>
rac-benzyl N-[(1R,5S,6S,7R)-7-hydroxybicyclo[3.2.0]heptan-6-yl]carbamate

> <CAS>
2679920-70-6

> <URL>
https://www.enaminestore.com/catalog/EN300-28281042

> <ROCS_ShapeQuery>
x0812_0A_x1140_0A_x1097_0A_x0365_0A_x1097_0A_x0310_0A

> <ROCS_TanimotoCombo>
0.693 

> <ROCS_ShapeTanimoto>
0.207 

> <ROCS_ColorTanimoto>
0.486 

> <ROCS_RefTversky>
0.194 

> <ROCS_RefColorTversky>
0.560 

> <ROCS_RefTverskyCombo>
0.754 

> <ROCS_FitTversky>
1.474 

> <ROCS_FitColorTversky>
0.786 

> <ROCS_FitTverskyCombo>
2.260 

> <ROCS_ColorScore>
-8.340

> <ROCS_Overlap>
1963.234

> <ROCS_Rank>
479                 

$$$$
untitled-dbase-264275_9
  -OEChem-02092408543D

 38 39  0     1  0  0  0  0  0999 V2000
    7.5926   12.1724   25.0470 C   0  0  0  0  0  0  0  0  0  0  0  0
    7.9081   12.4185   23.7668 C   0  0  0  0  0  0  0  0  0  0  0  0
   11.5026   11.6001   21.1954 C   0  0  0  0  0  0  0  0  0  0  0  0
    7.3509   10.1838   23.9018 C   0  0  0  0  0  0  0  0  0  0  0  0
    9.3026   10.3926   25.2578 C   0  0  0  0  0  0  0  0  0  0  0  0
    7.7831   10.6916   25.2793 C   0  0  1  0  0  0  0  0  0  0  0  0
    8.3277   11.1046   23.1513 C   0  0  2  0  0  0  0  0  0  0  0  0
    9.6813   10.6501   23.7640 C   0  0  1  0  0  0  0  0  0  0  0  0
   13.9573   10.7523   20.0097 C   0  0  0  0  0  0  0  0  0  0  0  0
   13.5715    8.5795   21.2094 C   0  0  0  0  0  0  0  0  0  0  0  0
   11.9327    9.3571   19.4722 C   0  0  0  0  0  0  0  0  0  0  0  0
   10.8344   11.6327   23.5940 C   0  0  0  0  0  0  0  0  0  0  0  0
   12.9054    9.7941   20.5666 C   0  0  0  0  0  0  0  0  0  0  0  0
   10.8276   12.1640   22.2717 N   0  0  0  0  0  0  0  0  0  0  0  0
   11.5053   12.0468   20.0530 O   0  0  0  0  0  0  0  0  0  0  0  0
   10.0714    9.4106   23.1700 O   0  0  0  0  0  0  0  0  0  0  0  0
   12.1667   10.4724   21.5888 O   0  0  0  0  0  0  0  0  0  0  0  0
    7.3029   12.9009   25.7871 H   0  0  0  0  0  0  0  0  0  0  0  0
    7.9235   13.3824   23.2841 H   0  0  0  0  0  0  0  0  0  0  0  0
    7.5453    9.1160   23.7525 H   0  0  0  0  0  0  0  0  0  0  0  0
    6.2966   10.3856   23.6711 H   0  0  0  0  0  0  0  0  0  0  0  0
    9.8439   11.0472   25.9502 H   0  0  0  0  0  0  0  0  0  0  0  0
    9.4908    9.3502   25.5397 H   0  0  0  0  0  0  0  0  0  0  0  0
    7.2273   10.2840   26.1242 H   0  0  0  0  0  0  0  0  0  0  0  0
    8.2379   11.0377   22.0659 H   0  0  0  0  0  0  0  0  0  0  0  0
   13.4831   11.6255   19.5474 H   0  0  0  0  0  0  0  0  0  0  0  0
   14.6400   11.1005   20.7916 H   0  0  0  0  0  0  0  0  0  0  0  0
   14.5489   10.2694   19.2236 H   0  0  0  0  0  0  0  0  0  0  0  0
   12.8204    7.8892   21.6103 H   0  0  0  0  0  0  0  0  0  0  0  0
   14.1976    8.8807   22.0570 H   0  0  0  0  0  0  0  0  0  0  0  0
   14.1957    8.0350   20.4935 H   0  0  0  0  0  0  0  0  0  0  0  0
   11.1780    8.6697   19.8714 H   0  0  0  0  0  0  0  0  0  0  0  0
   11.4178   10.2134   19.0247 H   0  0  0  0  0  0  0  0  0  0  0  0
   12.4577    8.8129   18.6788 H   0  0  0  0  0  0  0  0  0  0  0  0
   10.6951   12.4277   24.3258 H   0  0  0  0  0  0  0  0  0  0  0  0
   11.7580   11.0860   23.7811 H   0  0  0  0  0  0  0  0  0  0  0  0
   10.2890   13.0193   22.1030 H   0  0  0  0  0  0  0  0  0  0  0  0
   10.8330    9.0929   23.6774 H   0  0  0  0  0  0  0  0  0  0  0  0
  1  2  2  0  0  0  0
  1  6  1  0  0  0  0
  2  7  1  0  0  0  0
  3 14  1  0  0  0  0
  3 15  2  0  0  0  0
  3 17  1  0  0  0  0
  4  6  1  1  0  0  0
  4  7  1  1  0  0  0
  5  6  1  0  0  0  0
  5  8  1  0  0  0  0
  7  8  1  0  0  0  0
  8 12  1  6  0  0  0
  8 16  1  1  0  0  0
  9 13  1  0  0  0  0
 10 13  1  0  0  0  0
 11 13  1  0  0  0  0
 12 14  1  0  0  0  0
 13 17  1  0  0  0  0
  1 18  1  0  0  0  0
  2 19  1  0  0  0  0
  4 20  1  0  0  0  0
  4 21  1  0  0  0  0
  5 22  1  0  0  0  0
  5 23  1  0  0  0  0
  6 24  1  0  0  0  0
  7 25  1  0  0  0  0
  9 26  1  0  0  0  0
  9 27  1  0  0  0  0
  9 28  1  0  0  0  0
 10 29  1  0  0  0  0
 10 30  1  0  0  0  0
 10 31  1  0  0  0  0
 11 32  1  0  0  0  0
 11 33  1  0  0  0  0
 11 34  1  0  0  0  0
 12 35  1  0  0  0  0
 12 36  1  0  0  0  0
 14 37  1  0  0  0  0
 16 38  1  0  0  0  0
M  END
> <id>
EN300-7548347

> <smiles>
CC(C)(C)OC(=O)NC[C@@]1(O)C[C@@H]2C[C@H]1C=C2 |&1:9,12,14,r|

> <IUPAC Name>
rac-tert-butyl N-{[(1R,2S,4R)-2-hydroxybicyclo[2.2.1]hept-5-en-2-yl]methyl}carbamate

> <CAS>
2408938-73-6

> <URL>
https://www.enaminestore.com/catalog/EN300-7548347

> <ROCS_ShapeQuery>
x0812_0A_x1140_0A_x1097_0A_x0365_0A_x1097_0A_x0310_0A

> <ROCS_TanimotoCombo>
0.693 

> <ROCS_ShapeTanimoto>
0.207 

> <ROCS_ColorTanimoto>
0.486 

> <ROCS_RefTversky>
0.192 

> <ROCS_RefColorTversky>
0.580 

> <ROCS_RefTverskyCombo>
0.772 

> <ROCS_FitTversky>
1.560 

> <ROCS_FitColorTversky>
0.750 

> <ROCS_FitTverskyCombo>
2.310 

> <ROCS_ColorScore>
-8.662

> <ROCS_Overlap>
1947.104

> <ROCS_Rank>
480                 

$$$$
untitled-dbase-390747_0
  -OEChem-02092408543D

 27 29  0     1  0  0  0  0  0999 V2000
    9.5557   11.5729   21.9970 C   0  0  0  0  0  0  0  0  0  0  0  0
    9.4987   10.5101   25.2200 C   0  0  0  0  0  0  0  0  0  0  0  0
    9.1299    9.5670   24.0669 C   0  0  0  0  0  0  0  0  0  0  0  0
    7.1850   10.7158   24.7369 C   0  0  0  0  0  0  0  0  0  0  0  0
    9.8449   13.1810   23.7198 C   0  0  0  0  0  0  0  0  0  0  0  0
    8.3803   11.5674   25.1800 C   0  0  2  0  0  0  0  0  0  0  0  0
    7.8846   10.2387   23.4546 C   0  0  1  0  0  0  0  0  0  0  0  0
    8.5016   12.5239   23.9703 C   0  0  2  0  0  0  0  0  0  0  0  0
    8.2430   11.5824   22.7625 C   0  0  1  0  0  0  0  0  0  0  0  0
    7.1303   12.0969   21.8508 C   0  0  0  0  0  0  0  0  0  0  0  0
   10.4169   12.4716   22.6091 N   0  0  0  0  0  0  0  0  0  0  0  0
    9.7954   10.8869   21.0136 O   0  0  0  0  0  0  0  0  0  0  0  0
    9.4734    9.9606   26.1684 H   0  0  0  0  0  0  0  0  0  0  0  0
   10.5022   10.9281   25.1098 H   0  0  0  0  0  0  0  0  0  0  0  0
    9.9531    9.4255   23.3620 H   0  0  0  0  0  0  0  0  0  0  0  0
    8.8712    8.5782   24.4649 H   0  0  0  0  0  0  0  0  0  0  0  0
    6.9538    9.9013   25.4323 H   0  0  0  0  0  0  0  0  0  0  0  0
    6.2772   11.2992   24.5545 H   0  0  0  0  0  0  0  0  0  0  0  0
    9.7216   14.2224   23.4053 H   0  0  0  0  0  0  0  0  0  0  0  0
   10.5253   13.1550   24.5744 H   0  0  0  0  0  0  0  0  0  0  0  0
    8.2484   12.0918   26.1290 H   0  0  0  0  0  0  0  0  0  0  0  0
    7.2945    9.5597   22.8345 H   0  0  0  0  0  0  0  0  0  0  0  0
    7.7209   13.2919   24.0521 H   0  0  0  0  0  0  0  0  0  0  0  0
    6.1857   12.1070   22.3917 H   0  0  0  0  0  0  0  0  0  0  0  0
    7.0369   11.4486   20.9813 H   0  0  0  0  0  0  0  0  0  0  0  0
    7.3630   13.1075   21.5195 H   0  0  0  0  0  0  0  0  0  0  0  0
   11.3722   12.6161   22.2981 H   0  0  0  0  0  0  0  0  0  0  0  0
  1  9  1  0  0  0  0
  1 11  1  0  0  0  0
  1 12  2  0  0  0  0
  2  3  1  0  0  0  0
  2  6  1  0  0  0  0
  3  7  1  0  0  0  0
  4  6  1  1  0  0  0
  4  7  1  1  0  0  0
  5  8  1  6  0  0  0
  5 11  1  0  0  0  0
  6  8  1  0  0  0  0
  7  9  1  0  0  0  0
  8  9  1  0  0  0  0
  9 10  1  1  0  0  0
  2 13  1  0  0  0  0
  2 14  1  0  0  0  0
  3 15  1  0  0  0  0
  3 16  1  0  0  0  0
  4 17  1  0  0  0  0
  4 18  1  0  0  0  0
  5 19  1  0  0  0  0
  5 20  1  0  0  0  0
  6 21  1  0  0  0  0
  7 22  1  0  0  0  0
  8 23  1  0  0  0  0
 10 24  1  0  0  0  0
 10 25  1  0  0  0  0
 10 26  1  0  0  0  0
 11 27  1  0  0  0  0
M  END
> <id>
EN300-734972

> <smiles>
C[C@@]12[C@H]3CC[C@H](C3)[C@H]2CNC1=O |&1:1,2,5,7,r|

> <IUPAC Name>
rac-(1R,2R,6S,7S)-2-methyl-4-azatricyclo[5.2.1.0,2,6]decan-3-one

> <CAS>
2137729-15-6

> <Purity>
95

> <URL>
https://www.enaminestore.com/catalog/EN300-734972

> <ROCS_ShapeQuery>
x0812_0A_x1140_0A_x1097_0A_x0365_0A_x1097_0A_x0310_0A

> <ROCS_TanimotoCombo>
0.693 

> <ROCS_ShapeTanimoto>
0.203 

> <ROCS_ColorTanimoto>
0.489 

> <ROCS_RefTversky>
0.187 

> <ROCS_RefColorTversky>
0.543 

> <ROCS_RefTverskyCombo>
0.730 

> <ROCS_FitTversky>
1.789 

> <ROCS_FitColorTversky>
0.832 

> <ROCS_FitTverskyCombo>
2.621 

> <ROCS_ColorScore>
-8.064

> <ROCS_Overlap>
1886.295

> <ROCS_Rank>
481                 

$$$$
untitled-dbase-15135_1
  -OEChem-02092408543D

 29 31  0     1  0  0  0  0  0999 V2000
    8.1661   11.3702   22.6156 C   0  0  0  0  0  0  0  0  0  0  0  0
    9.3442   12.0695   23.3147 C   0  0  0  0  0  0  0  0  0  0  0  0
    5.1246   12.7941   26.3465 C   0  0  0  0  0  0  0  0  0  0  0  0
    5.1172   11.3435   26.7313 C   0  0  0  0  0  0  0  0  0  0  0  0
    6.8376   10.5734   24.6403 C   0  0  0  0  0  0  0  0  0  0  0  0
    8.7174   11.6904   25.7569 C   0  0  0  0  0  0  0  0  0  0  0  0
    7.8221   10.1704   23.5208 C   0  0  2  0  0  0  0  0  0  0  0  0
    9.6084   11.2322   24.5818 C   0  0  1  0  0  0  0  0  0  0  0  0
    6.4241   12.0639   26.5450 C   0  0  0  0  0  0  0  0  0  0  0  0
    9.1688    9.8312   24.1579 C   0  0  0  0  0  0  0  0  0  0  0  0
    7.2952   11.7554   25.3868 N   0  0  0  0  0  0  0  0  0  0  0  0
   10.0531    9.2772   23.1951 O   0  0  0  0  0  0  0  0  0  0  0  0
    7.3161   12.0445   22.4675 H   0  0  0  0  0  0  0  0  0  0  0  0
    8.4841   11.0214   21.6257 H   0  0  0  0  0  0  0  0  0  0  0  0
   10.2216   12.0526   22.6572 H   0  0  0  0  0  0  0  0  0  0  0  0
    9.1245   13.1182   23.5406 H   0  0  0  0  0  0  0  0  0  0  0  0
    4.8181   13.0482   25.3390 H   0  0  0  0  0  0  0  0  0  0  0  0
    4.8325   13.5174   27.0981 H   0  0  0  0  0  0  0  0  0  0  0  0
    4.8201   11.0912   27.7419 H   0  0  0  0  0  0  0  0  0  0  0  0
    4.8066   10.6263   25.9813 H   0  0  0  0  0  0  0  0  0  0  0  0
    5.8617   10.7925   24.1901 H   0  0  0  0  0  0  0  0  0  0  0  0
    6.6987    9.7213   25.3187 H   0  0  0  0  0  0  0  0  0  0  0  0
    8.8623   11.0068   26.6037 H   0  0  0  0  0  0  0  0  0  0  0  0
    9.0463   12.6847   26.0825 H   0  0  0  0  0  0  0  0  0  0  0  0
    7.4170    9.3429   22.9293 H   0  0  0  0  0  0  0  0  0  0  0  0
   10.6663   11.2752   24.8604 H   0  0  0  0  0  0  0  0  0  0  0  0
    6.9768   12.3023   27.4482 H   0  0  0  0  0  0  0  0  0  0  0  0
    9.0815    9.1296   24.9942 H   0  0  0  0  0  0  0  0  0  0  0  0
   10.8858    9.0835   23.6561 H   0  0  0  0  0  0  0  0  0  0  0  0
  1  2  1  0  0  0  0
  1  7  1  0  0  0  0
  2  8  1  0  0  0  0
  3  4  1  0  0  0  0
  3  9  1  0  0  0  0
  4  9  1  0  0  0  0
  5  7  1  0  0  0  0
  5 11  1  0  0  0  0
  6  8  1  0  0  0  0
  6 11  1  0  0  0  0
  7 10  1  0  0  0  0
  8 10  1  0  0  0  0
  9 11  1  0  0  0  0
 10 12  1  0  0  0  0
  1 13  1  0  0  0  0
  1 14  1  0  0  0  0
  2 15  1  0  0  0  0
  2 16  1  0  0  0  0
  3 17  1  0  0  0  0
  3 18  1  0  0  0  0
  4 19  1  0  0  0  0
  4 20  1  0  0  0  0
  5 21  1  0  0  0  0
  5 22  1  0  0  0  0
  6 23  1  0  0  0  0
  6 24  1  0  0  0  0
  7 25  1  0  0  0  0
  8 26  1  0  0  0  0
  9 27  1  0  0  0  0
 10 28  1  0  0  0  0
 12 29  1  0  0  0  0
M  END
> <id>
EN300-88580

> <smiles>
OC1C2CCC1CN(C2)C3CC3

> <MDLNUMBER>
MFCD13806429

> <IUPAC Name>
3-cyclopropyl-3-azabicyclo[3.2.1]octan-8-ol

> <CAS>
1170293-12-5

> <URL>
https://www.enaminestore.com/catalog/EN300-88580

> <ROCS_ShapeQuery>
x0812_0A_x1140_0A_x1097_0A_x0365_0A_x1097_0A_x0310_0A

> <ROCS_TanimotoCombo>
0.692 

> <ROCS_ShapeTanimoto>
0.215 

> <ROCS_ColorTanimoto>
0.477 

> <ROCS_RefTversky>
0.195 

> <ROCS_RefColorTversky>
0.522 

> <ROCS_RefTverskyCombo>
0.717 

> <ROCS_FitTversky>
1.916 

> <ROCS_FitColorTversky>
0.847 

> <ROCS_FitTverskyCombo>
2.763 

> <ROCS_ColorScore>
-7.736

> <ROCS_Overlap>
1974.406

> <ROCS_Rank>
482                 

$$$$
untitled-dbase-78329_9
  -OEChem-02092408543D

 35 37  0     1  0  0  0  0  0999 V2000
    5.0865   12.5595   28.3603 C   0  0  0  0  0  0  0  0  0  0  0  0
    6.4325   12.4603   28.7126 C   0  0  0  0  0  0  0  0  0  0  0  0
    4.5334   11.6524   27.4565 C   0  0  0  0  0  0  0  0  0  0  0  0
    7.2254   11.4540   28.1609 C   0  0  0  0  0  0  0  0  0  0  0  0
    5.3263   10.6461   26.9048 C   0  0  0  0  0  0  0  0  0  0  0  0
    6.6724   10.5469   27.2570 C   0  0  0  0  0  0  0  0  0  0  0  0
    8.1069   12.3127   23.6418 C   0  0  0  0  0  0  0  0  0  0  0  0
    9.0379   11.0574   25.6201 C   0  0  0  0  0  0  0  0  0  0  0  0
    7.1945   10.0651   24.3296 C   0  0  0  0  0  0  0  0  0  0  0  0
    9.3949   11.7032   24.2664 C   0  0  1  0  0  0  0  0  0  0  0  0
    7.8246   10.8584   23.1675 C   0  0  2  0  0  0  0  0  0  0  0  0
    9.3949   10.7119   23.0326 C   0  0  0  0  0  0  0  0  0  0  0  0
    7.5253    9.4637   26.6626 C   0  0  0  0  0  0  0  0  0  0  0  0
   10.0372   11.2190   21.7441 C   0  0  0  0  0  0  0  0  0  0  0  0
    8.1627    9.8897   25.4247 N   0  0  0  0  0  0  0  0  0  0  0  0
    9.9290    9.3935   23.2962 O   0  0  0  0  0  0  0  0  0  0  0  0
   11.3274   11.5186   21.9594 F   0  0  0  0  0  0  0  0  0  0  0  0
    9.9635   10.2772   20.7911 F   0  0  0  0  0  0  0  0  0  0  0  0
    9.4019   12.3206   21.3155 F   0  0  0  0  0  0  0  0  0  0  0  0
    4.4689   13.3422   28.7910 H   0  0  0  0  0  0  0  0  0  0  0  0
    6.8630   13.1658   29.4172 H   0  0  0  0  0  0  0  0  0  0  0  0
    3.4852   11.7287   27.1828 H   0  0  0  0  0  0  0  0  0  0  0  0
    8.2732   11.3845   28.4410 H   0  0  0  0  0  0  0  0  0  0  0  0
    4.8869    9.9439   26.2013 H   0  0  0  0  0  0  0  0  0  0  0  0
    7.3840   12.7548   24.3352 H   0  0  0  0  0  0  0  0  0  0  0  0
    8.2732   13.0426   22.8423 H   0  0  0  0  0  0  0  0  0  0  0  0
    9.9587   10.7257   26.1136 H   0  0  0  0  0  0  0  0  0  0  0  0
    8.5699   11.8091   26.2685 H   0  0  0  0  0  0  0  0  0  0  0  0
    6.2874   10.5803   24.6706 H   0  0  0  0  0  0  0  0  0  0  0  0
    6.8936    9.0756   23.9669 H   0  0  0  0  0  0  0  0  0  0  0  0
   10.2374   12.3986   24.3311 H   0  0  0  0  0  0  0  0  0  0  0  0
    7.2499   10.7900   22.2388 H   0  0  0  0  0  0  0  0  0  0  0  0
    8.3135    9.1652   27.3624 H   0  0  0  0  0  0  0  0  0  0  0  0
    6.9303    8.5711   26.4428 H   0  0  0  0  0  0  0  0  0  0  0  0
    9.8601    8.9190   22.4601 H   0  0  0  0  0  0  0  0  0  0  0  0
  1  2  1  0  0  0  0
  1  3  2  0  0  0  0
  2  4  2  0  0  0  0
  3  5  1  0  0  0  0
  4  6  1  0  0  0  0
  5  6  2  0  0  0  0
  6 13  1  0  0  0  0
  7 10  1  0  0  0  0
  7 11  1  0  0  0  0
  8 10  1  0  0  0  0
  8 15  1  0  0  0  0
  9 11  1  0  0  0  0
  9 15  1  0  0  0  0
 10 12  1  0  0  0  0
 11 12  1  0  0  0  0
 12 14  1  0  0  0  0
 12 16  1  0  0  0  0
 13 15  1  0  0  0  0
 14 17  1  0  0  0  0
 14 18  1  0  0  0  0
 14 19  1  0  0  0  0
  1 20  1  0  0  0  0
  2 21  1  0  0  0  0
  3 22  1  0  0  0  0
  4 23  1  0  0  0  0
  5 24  1  0  0  0  0
  7 25  1  0  0  0  0
  7 26  1  0  0  0  0
  8 27  1  0  0  0  0
  8 28  1  0  0  0  0
  9 29  1  0  0  0  0
  9 30  1  0  0  0  0
 10 31  1  0  0  0  0
 11 32  1  0  0  0  0
 13 33  1  0  0  0  0
 13 34  1  0  0  0  0
 16 35  1  0  0  0  0
M  END
> <id>
EN300-89446

> <smiles>
OC1(C2CC1CN(CC=3C=CC=CC3)C2)C(F)(F)F

> <MDLNUMBER>
MFCD19442705

> <IUPAC Name>
3-benzyl-6-(trifluoromethyl)-3-azabicyclo[3.1.1]heptan-6-ol

> <CAS>
1240525-80-7

> <URL>
https://www.enaminestore.com/catalog/EN300-89446

> <ROCS_ShapeQuery>
x0812_0A_x1140_0A_x1097_0A_x0365_0A_x1097_0A_x0310_0A

> <ROCS_TanimotoCombo>
0.692 

> <ROCS_ShapeTanimoto>
0.225 

> <ROCS_ColorTanimoto>
0.468 

> <ROCS_RefTversky>
0.208 

> <ROCS_RefColorTversky>
0.540 

> <ROCS_RefTverskyCombo>
0.748 

> <ROCS_FitTversky>
1.556 

> <ROCS_FitColorTversky>
0.777 

> <ROCS_FitTverskyCombo>
2.333 

> <ROCS_ColorScore>
-8.035

> <ROCS_Overlap>
2108.372

> <ROCS_Rank>
483                 

$$$$
untitled-dbase-199357_1
  -OEChem-02092408543D

 25 26  0     1  0  0  0  0  0999 V2000
    9.1842    9.8243   23.7665 C   0  0  0  0  0  0  0  0  0  0  0  0
    9.6423   12.3720   22.0100 C   0  0  0  0  0  0  0  0  0  0  0  0
    8.9897    9.8084   25.2671 C   0  0  0  0  0  0  0  0  0  0  0  0
    7.0275   10.5683   24.1407 C   0  0  0  0  0  0  0  0  0  0  0  0
    8.3313   12.2614   25.4196 C   0  0  0  0  0  0  0  0  0  0  0  0
    8.1309   10.6853   23.0873 C   0  0  1  0  0  0  0  0  0  0  0  0
    8.5921   12.1445   23.0486 C   0  0  1  0  0  0  0  0  0  0  0  0
    7.8285   10.8049   25.4221 C   0  0  2  0  0  0  0  0  0  0  0  0
   11.0571   14.0315   21.0999 C   0  0  0  0  0  0  0  0  0  0  0  0
   10.0867    9.2400   23.1832 O   0  0  0  0  0  0  0  0  0  0  0  0
   10.0578   11.5041   21.2542 O   0  0  0  0  0  0  0  0  0  0  0  0
    9.1676   12.5497   24.2908 O   0  0  0  0  0  0  0  0  0  0  0  0
   10.0467   13.6735   22.0481 O   0  0  0  0  0  0  0  0  0  0  0  0
    8.6920    8.8012   25.5729 H   0  0  0  0  0  0  0  0  0  0  0  0
    9.8946   10.1258   25.7896 H   0  0  0  0  0  0  0  0  0  0  0  0
    6.2266   11.3016   23.9992 H   0  0  0  0  0  0  0  0  0  0  0  0
    6.5795    9.5665   24.1391 H   0  0  0  0  0  0  0  0  0  0  0  0
    7.4891   12.9630   25.4181 H   0  0  0  0  0  0  0  0  0  0  0  0
    8.9228   12.4563   26.3202 H   0  0  0  0  0  0  0  0  0  0  0  0
    7.8301   10.2799   22.1185 H   0  0  0  0  0  0  0  0  0  0  0  0
    7.7523   12.8163   22.8160 H   0  0  0  0  0  0  0  0  0  0  0  0
    7.2389   10.6073   26.3225 H   0  0  0  0  0  0  0  0  0  0  0  0
   11.3071   15.0891   21.2145 H   0  0  0  0  0  0  0  0  0  0  0  0
   10.6923   13.8400   20.0876 H   0  0  0  0  0  0  0  0  0  0  0  0
   11.9480   13.4267   21.2845 H   0  0  0  0  0  0  0  0  0  0  0  0
  1  3  1  0  0  0  0
  1  6  1  0  0  0  0
  1 10  2  0  0  0  0
  2  7  1  1  0  0  0
  2 11  2  0  0  0  0
  2 13  1  0  0  0  0
  3  8  1  0  0  0  0
  4  6  1  6  0  0  0
  4  8  1  6  0  0  0
  5  8  1  0  0  0  0
  5 12  1  0  0  0  0
  6  7  1  0  0  0  0
  7 12  1  0  0  0  0
  9 13  1  0  0  0  0
  3 14  1  0  0  0  0
  3 15  1  0  0  0  0
  4 16  1  0  0  0  0
  4 17  1  0  0  0  0
  5 18  1  0  0  0  0
  5 19  1  0  0  0  0
  6 20  1  0  0  0  0
  7 21  1  0  0  0  0
  8 22  1  0  0  0  0
  9 23  1  0  0  0  0
  9 24  1  0  0  0  0
  9 25  1  0  0  0  0
M  END
> <id>
EN300-33039515

> <smiles>
COC(=O)[C@@H]1OC[C@H]2C[C@@H]1C(=O)C2 |&1:4,7,9,r|

> <IUPAC Name>
rac-methyl (1R,2S,5R)-7-oxo-3-oxabicyclo[3.2.1]octane-2-carboxylate

> <CAS>
2763588-76-5

> <Purity>
95

> <URL>
https://www.enaminestore.com/catalog/EN300-33039515

> <ROCS_ShapeQuery>
x0812_0A_x1140_0A_x1097_0A_x0365_0A_x1097_0A_x0310_0A

> <ROCS_TanimotoCombo>
0.692 

> <ROCS_ShapeTanimoto>
0.222 

> <ROCS_ColorTanimoto>
0.471 

> <ROCS_RefTversky>
0.201 

> <ROCS_RefColorTversky>
0.518 

> <ROCS_RefTverskyCombo>
0.719 

> <ROCS_FitTversky>
1.873 

> <ROCS_FitColorTversky>
0.836 

> <ROCS_FitTverskyCombo>
2.709 

> <ROCS_ColorScore>
-7.685

> <ROCS_Overlap>
2031.369

> <ROCS_Rank>
484                 

$$$$
untitled-dbase-479298_7
  -OEChem-02092408543D

 30 31  0     0  0  0  0  0  0999 V2000
   10.1391   11.5758   22.7103 C   0  0  0  0  0  0  0  0  0  0  0  0
    9.0743   11.1857   25.2126 C   0  0  0  0  0  0  0  0  0  0  0  0
    8.3621    9.7834   23.7945 C   0  0  0  0  0  0  0  0  0  0  0  0
    9.0595   11.1780   23.6463 C   0  0  0  0  0  0  0  0  0  0  0  0
    7.6668   10.6622   24.8562 C   0  0  0  0  0  0  0  0  0  0  0  0
    7.6162   11.7709   23.7850 C   0  0  0  0  0  0  0  0  0  0  0  0
   10.5056   14.2665   23.5601 C   0  0  0  0  0  0  0  0  0  0  0  0
   12.8704   13.5891   24.0683 C   0  0  0  0  0  0  0  0  0  0  0  0
   12.0162   13.4747   21.7092 C   0  0  0  0  0  0  0  0  0  0  0  0
   11.6517   13.3278   23.1858 C   0  0  0  0  0  0  0  0  0  0  0  0
    6.6496   10.2808   25.7428 N   0  0  0  0  0  0  0  0  0  0  0  0
   10.0381   11.5367   21.4915 O   0  0  0  0  0  0  0  0  0  0  0  0
   11.2312   11.9800   23.4194 O   0  0  0  0  0  0  0  0  0  0  0  0
    7.5048   13.0513   24.2007 F   0  0  0  0  0  0  0  0  0  0  0  0
    6.7723   11.6089   22.7428 F   0  0  0  0  0  0  0  0  0  0  0  0
    9.7581   10.4883   25.7085 H   0  0  0  0  0  0  0  0  0  0  0  0
    9.1378   12.1603   25.7082 H   0  0  0  0  0  0  0  0  0  0  0  0
    7.7539    9.4356   22.9527 H   0  0  0  0  0  0  0  0  0  0  0  0
    8.9788    8.9533   24.1559 H   0  0  0  0  0  0  0  0  0  0  0  0
    9.6290   14.0821   22.9288 H   0  0  0  0  0  0  0  0  0  0  0  0
   10.2113   14.1460   24.6077 H   0  0  0  0  0  0  0  0  0  0  0  0
   10.7885   15.3130   23.3982 H   0  0  0  0  0  0  0  0  0  0  0  0
   13.6952   12.9178   23.8033 H   0  0  0  0  0  0  0  0  0  0  0  0
   12.6389   13.3928   25.1215 H   0  0  0  0  0  0  0  0  0  0  0  0
   13.2212   14.6221   23.9772 H   0  0  0  0  0  0  0  0  0  0  0  0
   12.8383   12.8015   21.4405 H   0  0  0  0  0  0  0  0  0  0  0  0
   11.1630   13.2548   21.0593 H   0  0  0  0  0  0  0  0  0  0  0  0
   12.3656   14.4909   21.4933 H   0  0  0  0  0  0  0  0  0  0  0  0
    5.8173   10.8419   25.6126 H   0  0  0  0  0  0  0  0  0  0  0  0
    6.3884    9.3121   25.6088 H   0  0  0  0  0  0  0  0  0  0  0  0
  1  4  1  0  0  0  0
  1 12  2  0  0  0  0
  1 13  1  0  0  0  0
  2  4  1  0  0  0  0
  2  5  1  0  0  0  0
  3  4  1  0  0  0  0
  3  5  1  0  0  0  0
  4  6  1  0  0  0  0
  5  6  1  0  0  0  0
  5 11  1  0  0  0  0
  6 14  1  0  0  0  0
  6 15  1  0  0  0  0
  7 10  1  0  0  0  0
  8 10  1  0  0  0  0
  9 10  1  0  0  0  0
 10 13  1  0  0  0  0
  2 16  1  0  0  0  0
  2 17  1  0  0  0  0
  3 18  1  0  0  0  0
  3 19  1  0  0  0  0
  7 20  1  0  0  0  0
  7 21  1  0  0  0  0
  7 22  1  0  0  0  0
  8 23  1  0  0  0  0
  8 24  1  0  0  0  0
  8 25  1  0  0  0  0
  9 26  1  0  0  0  0
  9 27  1  0  0  0  0
  9 28  1  0  0  0  0
 11 29  1  0  0  0  0
 11 30  1  0  0  0  0
M  END
> <id>
EN300-27727014

> <smiles>
CC(C)(C)OC(=O)C1(CC2(N)C1)C2(F)F

> <IUPAC Name>
tert-butyl 3-amino-2,2-difluorobicyclo[1.1.1]pentane-1-carboxylate

> <CAS>
2460495-14-9

> <URL>
https://www.enaminestore.com/catalog/EN300-27727014

> <ROCS_ShapeQuery>
x0812_0A_x1140_0A_x1097_0A_x0365_0A_x1097_0A_x0310_0A

> <ROCS_TanimotoCombo>
0.692 

> <ROCS_ShapeTanimoto>
0.240 

> <ROCS_ColorTanimoto>
0.452 

> <ROCS_RefTversky>
0.216 

> <ROCS_RefColorTversky>
0.555 

> <ROCS_RefTverskyCombo>
0.771 

> <ROCS_FitTversky>
1.868 

> <ROCS_FitColorTversky>
0.709 

> <ROCS_FitTverskyCombo>
2.577 

> <ROCS_ColorScore>
-8.301

> <ROCS_Overlap>
2187.330

> <ROCS_Rank>
485                 

$$$$
untitled-dbase-328915_5
  -OEChem-02092408543D

 40 41  0     1  0  0  0  0  0999 V2000
    6.7997   12.1207   26.0154 C   0  0  0  0  0  0  0  0  0  0  0  0
    8.9227   12.2242   23.0977 C   0  0  0  0  0  0  0  0  0  0  0  0
    7.7427   11.3441   22.6385 C   0  0  0  0  0  0  0  0  0  0  0  0
    9.7934   10.9272   25.1254 C   0  0  0  0  0  0  0  0  0  0  0  0
    7.8158    9.4412   24.3497 C   0  0  0  0  0  0  0  0  0  0  0  0
    8.9317   12.1066   24.6260 C   0  0  2  0  0  0  0  0  0  0  0  0
    7.1525   10.7711   23.9309 C   0  0  1  0  0  0  0  0  0  0  0  0
    9.3532    9.5539   24.5440 C   0  0  0  0  0  0  0  0  0  0  0  0
    4.9436   12.4214   28.1679 C   0  0  0  0  0  0  0  0  0  0  0  0
    4.4336    9.9861   27.8239 C   0  0  0  0  0  0  0  0  0  0  0  0
    6.7460   10.6963   28.4998 C   0  0  0  0  0  0  0  0  0  0  0  0
    9.8623    8.4086   25.4241 C   0  0  0  0  0  0  0  0  0  0  0  0
    5.4976   11.0750   27.7042 C   0  0  0  0  0  0  0  0  0  0  0  0
    7.5495   11.7612   24.9128 N   0  0  0  0  0  0  0  0  0  0  0  0
    6.9584   13.1615   26.6490 O   0  0  0  0  0  0  0  0  0  0  0  0
    9.9644    9.3800   23.2589 O   0  0  0  0  0  0  0  0  0  0  0  0
    5.8531   11.1806   26.3212 O   0  0  0  0  0  0  0  0  0  0  0  0
    9.3417    6.8508   24.7315 Cl  0  0  0  0  0  0  0  0  0  0  0  0
   11.6427    8.4612   25.4973 Cl  0  0  0  0  0  0  0  0  0  0  0  0
    9.1950    8.5803   27.0681 Cl  0  0  0  0  0  0  0  0  0  0  0  0
    9.8686   11.9249   22.6367 H   0  0  0  0  0  0  0  0  0  0  0  0
    8.7288   13.2624   22.8019 H   0  0  0  0  0  0  0  0  0  0  0  0
    7.0017   11.9755   22.1335 H   0  0  0  0  0  0  0  0  0  0  0  0
    8.0534   10.5720   21.9282 H   0  0  0  0  0  0  0  0  0  0  0  0
   10.8435   11.1211   24.8733 H   0  0  0  0  0  0  0  0  0  0  0  0
    9.7234   10.9010   26.2210 H   0  0  0  0  0  0  0  0  0  0  0  0
    7.3518    9.1178   25.2911 H   0  0  0  0  0  0  0  0  0  0  0  0
    7.5840    8.6764   23.5982 H   0  0  0  0  0  0  0  0  0  0  0  0
    9.2363   13.0380   25.1121 H   0  0  0  0  0  0  0  0  0  0  0  0
    6.0648   10.6592   23.8834 H   0  0  0  0  0  0  0  0  0  0  0  0
    5.7044   13.2057   28.0835 H   0  0  0  0  0  0  0  0  0  0  0  0
    4.0687   12.7211   27.5818 H   0  0  0  0  0  0  0  0  0  0  0  0
    4.6556   12.3827   29.2247 H   0  0  0  0  0  0  0  0  0  0  0  0
    4.8268    9.0183   27.4922 H   0  0  0  0  0  0  0  0  0  0  0  0
    3.5746   10.2073   27.1802 H   0  0  0  0  0  0  0  0  0  0  0  0
    4.0772    9.8810   28.8537 H   0  0  0  0  0  0  0  0  0  0  0  0
    7.1435    9.7305   28.1673 H   0  0  0  0  0  0  0  0  0  0  0  0
    7.5343   11.4488   28.3957 H   0  0  0  0  0  0  0  0  0  0  0  0
    6.5103   10.5837   29.5643 H   0  0  0  0  0  0  0  0  0  0  0  0
    9.6660    8.5187   22.9348 H   0  0  0  0  0  0  0  0  0  0  0  0
  1 14  1  0  0  0  0
  1 15  2  0  0  0  0
  1 17  1  0  0  0  0
  2  3  1  0  0  0  0
  2  6  1  0  0  0  0
  3  7  1  0  0  0  0
  4  6  1  0  0  0  0
  4  8  1  0  0  0  0
  5  7  1  0  0  0  0
  5  8  1  0  0  0  0
  6 14  1  0  0  0  0
  7 14  1  0  0  0  0
  8 12  1  0  0  0  0
  8 16  1  0  0  0  0
  9 13  1  0  0  0  0
 10 13  1  0  0  0  0
 11 13  1  0  0  0  0
 12 18  1  0  0  0  0
 12 19  1  0  0  0  0
 12 20  1  0  0  0  0
 13 17  1  0  0  0  0
  2 21  1  0  0  0  0
  2 22  1  0  0  0  0
  3 23  1  0  0  0  0
  3 24  1  0  0  0  0
  4 25  1  0  0  0  0
  4 26  1  0  0  0  0
  5 27  1  0  0  0  0
  5 28  1  0  0  0  0
  6 29  1  0  0  0  0
  7 30  1  0  0  0  0
  9 31  1  0  0  0  0
  9 32  1  0  0  0  0
  9 33  1  0  0  0  0
 10 34  1  0  0  0  0
 10 35  1  0  0  0  0
 10 36  1  0  0  0  0
 11 37  1  0  0  0  0
 11 38  1  0  0  0  0
 11 39  1  0  0  0  0
 16 40  1  0  0  0  0
M  END
> <id>
EN300-7472961

> <smiles>
CC(C)(C)OC(=O)N1C2CCC1CC(O)(C2)C(Cl)(Cl)Cl

> <IUPAC Name>
tert-butyl 3-hydroxy-3-(trichloromethyl)-8-azabicyclo[3.2.1]octane-8-carboxylate

> <URL>
https://www.enaminestore.com/catalog/EN300-7472961

> <ROCS_ShapeQuery>
x0812_0A_x1140_0A_x1097_0A_x0365_0A_x1097_0A_x0310_0A

> <ROCS_TanimotoCombo>
0.692 

> <ROCS_ShapeTanimoto>
0.225 

> <ROCS_ColorTanimoto>
0.467 

> <ROCS_RefTversky>
0.208 

> <ROCS_RefColorTversky>
0.534 

> <ROCS_RefTverskyCombo>
0.742 

> <ROCS_FitTversky>
1.566 

> <ROCS_FitColorTversky>
0.788 

> <ROCS_FitTverskyCombo>
2.354 

> <ROCS_ColorScore>
-7.944

> <ROCS_Overlap>
2109.214

> <ROCS_Rank>
486                 

$$$$
untitled-dbase-274481_3
  -OEChem-02092408543D

 47 50  0     1  0  0  0  0  0999 V2000
    8.7377   14.1245   22.2697 C   0  0  0  0  0  0  0  0  0  0  0  0
    8.3139   11.6606   25.9714 C   0  0  0  0  0  0  0  0  0  0  0  0
    8.6579   14.8065   23.6271 C   0  0  0  0  0  0  0  0  0  0  0  0
    9.1903   10.4214   25.7779 C   0  0  0  0  0  0  0  0  0  0  0  0
    7.8464   12.8743   22.2141 C   0  0  1  0  0  0  0  0  0  0  0  0
    8.1089   12.5819   24.7413 C   0  0  1  0  0  0  0  0  0  0  0  0
    8.9887   13.8696   24.7991 C   0  0  2  0  0  0  0  0  0  0  0  0
    7.8490   12.1448   20.8386 C   0  0  2  0  0  0  0  0  0  0  0  0
    9.5917   11.2422   23.0525 C   0  0  2  0  0  0  0  0  0  0  0  0
    9.0210   11.1503   20.7101 C   0  0  1  0  0  0  0  0  0  0  0  0
    8.2066   11.8685   23.3451 C   0  0  2  0  0  0  0  0  0  0  0  0
    8.7732    9.5963   24.5504 C   0  0  2  0  0  0  0  0  0  0  0  0
    8.8165   14.6733   26.0978 C   0  0  0  0  0  0  0  0  0  0  0  0
    7.8153   13.1045   19.6444 C   0  0  0  0  0  0  0  0  0  0  0  0
    8.9298    8.1030   24.8302 C   0  0  0  0  0  0  0  0  0  0  0  0
    9.5332    8.9262   20.1472 C   0  0  0  0  0  0  0  0  0  0  0  0
   10.0237   11.3794   21.6928 O   0  0  0  0  0  0  0  0  0  0  0  0
    9.6163    9.8711   23.4357 O   0  0  0  0  0  0  0  0  0  0  0  0
    7.2309   10.8067   23.2239 O   0  0  0  0  0  0  0  0  0  0  0  0
    7.3819    9.8324   24.3057 O   0  0  0  0  0  0  0  0  0  0  0  0
    8.5643    9.7979   20.7088 O   0  0  0  0  0  0  0  0  0  0  0  0
    8.4249   14.8378   21.5110 H   0  0  0  0  0  0  0  0  0  0  0  0
    9.7752   13.8776   22.0676 H   0  0  0  0  0  0  0  0  0  0  0  0
    7.3225   11.2956   26.2657 H   0  0  0  0  0  0  0  0  0  0  0  0
    8.6641   12.2203   26.8384 H   0  0  0  0  0  0  0  0  0  0  0  0
    9.3334   15.6676   23.6362 H   0  0  0  0  0  0  0  0  0  0  0  0
    7.6445   15.2033   23.7558 H   0  0  0  0  0  0  0  0  0  0  0  0
   10.2188   10.7414   25.6723 H   0  0  0  0  0  0  0  0  0  0  0  0
    9.0967    9.8258   26.6774 H   0  0  0  0  0  0  0  0  0  0  0  0
    6.7958   13.2023   22.3793 H   0  0  0  0  0  0  0  0  0  0  0  0
    7.0998   12.9219   24.8864 H   0  0  0  0  0  0  0  0  0  0  0  0
   10.0550   13.5937   24.7549 H   0  0  0  0  0  0  0  0  0  0  0  0
    6.9177   11.5587   20.7810 H   0  0  0  0  0  0  0  0  0  0  0  0
   10.3904   11.6988   23.6862 H   0  0  0  0  0  0  0  0  0  0  0  0
    9.5171   11.2983   19.6922 H   0  0  0  0  0  0  0  0  0  0  0  0
    7.7780   14.9791   26.2039 H   0  0  0  0  0  0  0  0  0  0  0  0
    9.4497   15.5571   26.0677 H   0  0  0  0  0  0  0  0  0  0  0  0
    9.0986   14.0579   26.9491 H   0  0  0  0  0  0  0  0  0  0  0  0
    8.7138   13.7170   19.6428 H   0  0  0  0  0  0  0  0  0  0  0  0
    6.9415   13.7477   19.7175 H   0  0  0  0  0  0  0  0  0  0  0  0
    7.7664   12.5347   18.7194 H   0  0  0  0  0  0  0  0  0  0  0  0
    8.6309    7.5356   23.9528 H   0  0  0  0  0  0  0  0  0  0  0  0
    8.3021    7.8234   25.6722 H   0  0  0  0  0  0  0  0  0  0  0  0
    9.9682    7.8844   25.0653 H   0  0  0  0  0  0  0  0  0  0  0  0
    9.1540    7.9015   20.1609 H   0  0  0  0  0  0  0  0  0  0  0  0
   10.4600    8.9909   20.7227 H   0  0  0  0  0  0  0  0  0  0  0  0
    9.7261    9.2271   19.1147 H   0  0  0  0  0  0  0  0  0  0  0  0
  1  3  1  0  0  0  0
  1  5  1  1  0  0  0
  2  4  1  0  0  0  0
  2  6  1  1  0  0  0
  3  7  1  0  0  0  0
  4 12  1  0  0  0  0
  5  8  1  0  0  0  0
  5 11  1  0  0  0  0
  6  7  1  0  0  0  0
  6 11  1  0  0  0  0
  7 13  1  6  0  0  0
  8 10  1  0  0  0  0
  8 14  1  1  0  0  0
  9 11  1  0  0  0  0
  9 17  1  6  0  0  0
  9 18  1  0  0  0  0
 10 17  1  0  0  0  0
 10 21  1  6  0  0  0
 11 19  1  6  0  0  0
 12 15  1  1  0  0  0
 12 18  1  0  0  0  0
 12 20  1  0  0  0  0
 16 21  1  0  0  0  0
 19 20  1  0  0  0  0
  1 22  1  0  0  0  0
  1 23  1  0  0  0  0
  2 24  1  0  0  0  0
  2 25  1  0  0  0  0
  3 26  1  0  0  0  0
  3 27  1  0  0  0  0
  4 28  1  0  0  0  0
  4 29  1  0  0  0  0
  5 30  1  0  0  0  0
  6 31  1  0  0  0  0
  7 32  1  0  0  0  0
  8 33  1  0  0  0  0
  9 34  1  0  0  0  0
 10 35  1  0  0  0  0
 13 36  1  0  0  0  0
 13 37  1  0  0  0  0
 13 38  1  0  0  0  0
 14 39  1  0  0  0  0
 14 40  1  0  0  0  0
 14 41  1  0  0  0  0
 15 42  1  0  0  0  0
 15 43  1  0  0  0  0
 15 44  1  0  0  0  0
 16 45  1  0  0  0  0
 16 46  1  0  0  0  0
 16 47  1  0  0  0  0
M  END
> <id>
EN300-25047224

> <smiles>
CO[C@@H]1O[C@@H]2O[C@@]3(C)CC[C@H]4[C@H](C)CC[C@@H]([C@H]1C)[C@@]24OO3

> <MDLNUMBER>
MFCD28657024

> <IUPAC Name>
(1R,4S,5R,8S,9R,10R,12R,13R)-10-methoxy-1,5,9-trimethyl-11,14,15,16-tetraoxatetracyclo[10.3.1.0^{4,13}.0^{8,13}]hexadecane

> <CAS>
71939-51-0

> <URL>
https://www.enaminestore.com/catalog/EN300-25047224

> <ROCS_ShapeQuery>
x0812_0A_x1140_0A_x1097_0A_x0365_0A_x1097_0A_x0310_0A

> <ROCS_TanimotoCombo>
0.692 

> <ROCS_ShapeTanimoto>
0.217 

> <ROCS_ColorTanimoto>
0.475 

> <ROCS_RefTversky>
0.204 

> <ROCS_RefColorTversky>
0.559 

> <ROCS_RefTverskyCombo>
0.763 

> <ROCS_FitTversky>
1.432 

> <ROCS_FitColorTversky>
0.760 

> <ROCS_FitTverskyCombo>
2.193 

> <ROCS_ColorScore>
-8.340

> <ROCS_Overlap>
2062.913

> <ROCS_Rank>
487                 

$$$$
untitled-dbase-14649_8
  -OEChem-02092408543D

 38 40  0     1  0  0  0  0  0999 V2000
    7.8220   14.1654   29.1866 C   0  0  0  0  0  0  0  0  0  0  0  0
    7.5272   12.8073   29.0677 C   0  0  0  0  0  0  0  0  0  0  0  0
    7.7215   15.0010   28.0742 C   0  0  0  0  0  0  0  0  0  0  0  0
    7.1320   12.2846   27.8363 C   0  0  0  0  0  0  0  0  0  0  0  0
    7.3264   14.4783   26.8428 C   0  0  0  0  0  0  0  0  0  0  0  0
    7.0316   13.1202   26.7238 C   0  0  0  0  0  0  0  0  0  0  0  0
    7.2008    9.8080   24.2817 C   0  0  0  0  0  0  0  0  0  0  0  0
    8.1002    9.9295   25.5126 C   0  0  0  0  0  0  0  0  0  0  0  0
    8.5284   11.1334   22.5366 C   0  0  0  0  0  0  0  0  0  0  0  0
   10.0382   11.3341   24.5963 C   0  0  0  0  0  0  0  0  0  0  0  0
    7.3640   11.1446   23.5524 C   0  0  2  0  0  0  0  0  0  0  0  0
    8.7186   11.3260   25.4009 C   0  0  1  0  0  0  0  0  0  0  0  0
    9.8952   10.7705   23.1637 C   0  0  0  0  0  0  0  0  0  0  0  0
    6.6066   12.5582   25.3980 C   0  0  0  0  0  0  0  0  0  0  0  0
   11.0472   11.2536   22.2784 C   0  0  0  0  0  0  0  0  0  0  0  0
    7.7464   12.0996   24.6079 N   0  0  0  0  0  0  0  0  0  0  0  0
   10.0107    9.3446   23.2396 O   0  0  0  0  0  0  0  0  0  0  0  0
   10.9843   12.5847   22.1342 F   0  0  0  0  0  0  0  0  0  0  0  0
   12.2204   10.9291   22.8393 F   0  0  0  0  0  0  0  0  0  0  0  0
   10.9658   10.6785   21.0704 F   0  0  0  0  0  0  0  0  0  0  0  0
    8.1283   14.5725   30.1458 H   0  0  0  0  0  0  0  0  0  0  0  0
    7.6043   12.1567   29.9340 H   0  0  0  0  0  0  0  0  0  0  0  0
    7.9499   16.0586   28.1667 H   0  0  0  0  0  0  0  0  0  0  0  0
    6.9045   11.2252   27.7529 H   0  0  0  0  0  0  0  0  0  0  0  0
    7.2510   15.1368   25.9815 H   0  0  0  0  0  0  0  0  0  0  0  0
    7.4612    8.9461   23.6600 H   0  0  0  0  0  0  0  0  0  0  0  0
    6.1616    9.6714   24.6045 H   0  0  0  0  0  0  0  0  0  0  0  0
    7.4874    9.8515   26.4188 H   0  0  0  0  0  0  0  0  0  0  0  0
    8.8489    9.1329   25.5592 H   0  0  0  0  0  0  0  0  0  0  0  0
    8.2886   10.4281   21.7307 H   0  0  0  0  0  0  0  0  0  0  0  0
    8.5874   12.1321   22.0824 H   0  0  0  0  0  0  0  0  0  0  0  0
   10.3937   12.3723   24.5456 H   0  0  0  0  0  0  0  0  0  0  0  0
   10.7940   10.7647   25.1520 H   0  0  0  0  0  0  0  0  0  0  0  0
    6.4459   11.4369   23.0296 H   0  0  0  0  0  0  0  0  0  0  0  0
    8.9064   11.7667   26.3866 H   0  0  0  0  0  0  0  0  0  0  0  0
    5.9295   11.7085   25.5380 H   0  0  0  0  0  0  0  0  0  0  0  0
    6.0698   13.3080   24.8073 H   0  0  0  0  0  0  0  0  0  0  0  0
   10.8754    9.1655   23.6355 H   0  0  0  0  0  0  0  0  0  0  0  0
  1  2  1  0  0  0  0
  1  3  2  0  0  0  0
  2  4  2  0  0  0  0
  3  5  1  0  0  0  0
  4  6  1  0  0  0  0
  5  6  2  0  0  0  0
  6 14  1  0  0  0  0
  7  8  1  0  0  0  0
  7 11  1  0  0  0  0
  8 12  1  0  0  0  0
  9 11  1  0  0  0  0
  9 13  1  0  0  0  0
 10 12  1  0  0  0  0
 10 13  1  0  0  0  0
 11 16  1  0  0  0  0
 12 16  1  0  0  0  0
 13 15  1  0  0  0  0
 13 17  1  0  0  0  0
 14 16  1  0  0  0  0
 15 18  1  0  0  0  0
 15 19  1  0  0  0  0
 15 20  1  0  0  0  0
  1 21  1  0  0  0  0
  2 22  1  0  0  0  0
  3 23  1  0  0  0  0
  4 24  1  0  0  0  0
  5 25  1  0  0  0  0
  7 26  1  0  0  0  0
  7 27  1  0  0  0  0
  8 28  1  0  0  0  0
  8 29  1  0  0  0  0
  9 30  1  0  0  0  0
  9 31  1  0  0  0  0
 10 32  1  0  0  0  0
 10 33  1  0  0  0  0
 11 34  1  0  0  0  0
 12 35  1  0  0  0  0
 14 36  1  0  0  0  0
 14 37  1  0  0  0  0
 17 38  1  0  0  0  0
M  END
> <id>
EN300-89633

> <smiles>
OC1(CC2CCC(C1)N2CC=3C=CC=CC3)C(F)(F)F

> <MDLNUMBER>
MFCD19442737

> <IUPAC Name>
8-benzyl-3-(trifluoromethyl)-8-azabicyclo[3.2.1]octan-3-ol

> <CAS>
1251925-32-2

> <URL>
https://www.enaminestore.com/catalog/EN300-89633

> <ROCS_ShapeQuery>
x0812_0A_x1140_0A_x1097_0A_x0365_0A_x1097_0A_x0310_0A

> <ROCS_TanimotoCombo>
0.692 

> <ROCS_ShapeTanimoto>
0.242 

> <ROCS_ColorTanimoto>
0.450 

> <ROCS_RefTversky>
0.222 

> <ROCS_RefColorTversky>
0.521 

> <ROCS_RefTverskyCombo>
0.742 

> <ROCS_FitTversky>
1.604 

> <ROCS_FitColorTversky>
0.769 

> <ROCS_FitTverskyCombo>
2.374 

> <ROCS_ColorScore>
-7.741

> <ROCS_Overlap>
2246.070

> <ROCS_Rank>
488                 

$$$$
untitled-dbase-473171_3
  -OEChem-02092408543D

 37 38  0     0  0  0  0  0  0999 V2000
   10.3461   11.7055   22.4770 C   0  0  0  0  0  0  0  0  0  0  0  0
    7.9136   11.8761   22.9757 C   0  0  0  0  0  0  0  0  0  0  0  0
    9.5935   11.8350   24.8607 C   0  0  0  0  0  0  0  0  0  0  0  0
    6.8212   11.4333   23.9570 C   0  0  0  0  0  0  0  0  0  0  0  0
    8.4844   11.3916   25.8228 C   0  0  0  0  0  0  0  0  0  0  0  0
    8.2029    9.4012   24.3538 C   0  0  0  0  0  0  0  0  0  0  0  0
    9.2683   11.3368   23.4482 C   0  0  0  0  0  0  0  0  0  0  0  0
    7.4485   10.5474   25.0519 C   0  0  0  0  0  0  0  0  0  0  0  0
   11.8357   13.7279   21.1400 C   0  0  0  0  0  0  0  0  0  0  0  0
   13.3178   13.7178   23.1680 C   0  0  0  0  0  0  0  0  0  0  0  0
   13.1063   11.6466   21.7631 C   0  0  0  0  0  0  0  0  0  0  0  0
   12.3848   12.8858   22.2908 C   0  0  0  0  0  0  0  0  0  0  0  0
    6.4191   10.0309   25.9449 N   0  0  0  0  0  0  0  0  0  0  0  0
   10.3547   11.3660   21.3015 O   0  0  0  0  0  0  0  0  0  0  0  0
    9.2152    9.9046   23.4644 O   0  0  0  0  0  0  0  0  0  0  0  0
   11.2890   12.4617   23.1079 O   0  0  0  0  0  0  0  0  0  0  0  0
    7.6751   11.4850   21.9783 H   0  0  0  0  0  0  0  0  0  0  0  0
    7.9290   12.9695   22.8919 H   0  0  0  0  0  0  0  0  0  0  0  0
    9.7004   12.9261   24.8830 H   0  0  0  0  0  0  0  0  0  0  0  0
   10.5490   11.4154   25.2006 H   0  0  0  0  0  0  0  0  0  0  0  0
    6.3366   12.3150   24.3954 H   0  0  0  0  0  0  0  0  0  0  0  0
    6.0407   10.8878   23.4108 H   0  0  0  0  0  0  0  0  0  0  0  0
    8.9253   10.8148   26.6460 H   0  0  0  0  0  0  0  0  0  0  0  0
    8.0127   12.2723   26.2769 H   0  0  0  0  0  0  0  0  0  0  0  0
    8.6996    8.7458   25.0789 H   0  0  0  0  0  0  0  0  0  0  0  0
    7.5246    8.7769   23.7605 H   0  0  0  0  0  0  0  0  0  0  0  0
   11.1655   13.1343   20.5080 H   0  0  0  0  0  0  0  0  0  0  0  0
   11.2859   14.6012   21.5058 H   0  0  0  0  0  0  0  0  0  0  0  0
   12.6459   14.0766   20.4894 H   0  0  0  0  0  0  0  0  0  0  0  0
   13.7141   13.1175   23.9950 H   0  0  0  0  0  0  0  0  0  0  0  0
   12.7795   14.5559   23.6252 H   0  0  0  0  0  0  0  0  0  0  0  0
   14.1606   14.1181   22.5952 H   0  0  0  0  0  0  0  0  0  0  0  0
   13.5002   11.0424   22.5883 H   0  0  0  0  0  0  0  0  0  0  0  0
   12.4415   11.0183   21.1615 H   0  0  0  0  0  0  0  0  0  0  0  0
   13.9683   11.9298   21.1484 H   0  0  0  0  0  0  0  0  0  0  0  0
    6.4401    9.0384   25.9070 H   0  0  0  0  0  0  0  0  0  0  0  0
    6.6150   10.3487   26.8655 H   0  0  0  0  0  0  0  0  0  0  0  0
  1  7  1  0  0  0  0
  1 14  2  0  0  0  0
  1 16  1  0  0  0  0
  2  4  1  0  0  0  0
  2  7  1  0  0  0  0
  3  5  1  0  0  0  0
  3  7  1  0  0  0  0
  4  8  1  0  0  0  0
  5  8  1  0  0  0  0
  6  8  1  0  0  0  0
  6 15  1  0  0  0  0
  7 15  1  0  0  0  0
  8 13  1  0  0  0  0
  9 12  1  0  0  0  0
 10 12  1  0  0  0  0
 11 12  1  0  0  0  0
 12 16  1  0  0  0  0
  2 17  1  0  0  0  0
  2 18  1  0  0  0  0
  3 19  1  0  0  0  0
  3 20  1  0  0  0  0
  4 21  1  0  0  0  0
  4 22  1  0  0  0  0
  5 23  1  0  0  0  0
  5 24  1  0  0  0  0
  6 25  1  0  0  0  0
  6 26  1  0  0  0  0
  9 27  1  0  0  0  0
  9 28  1  0  0  0  0
  9 29  1  0  0  0  0
 10 30  1  0  0  0  0
 10 31  1  0  0  0  0
 10 32  1  0  0  0  0
 11 33  1  0  0  0  0
 11 34  1  0  0  0  0
 11 35  1  0  0  0  0
 13 36  1  0  0  0  0
 13 37  1  0  0  0  0
M  END
> <id>
EN300-27729770

> <smiles>
CC(C)(C)OC(=O)C1(CCC2(N)CC1)OC2

> <MDLNUMBER>
MFCD34603213

> <IUPAC Name>
tert-butyl 4-amino-2-oxabicyclo[2.2.2]octane-1-carboxylate

> <CAS>
2580252-21-5

> <URL>
https://www.enaminestore.com/catalog/EN300-27729770

> <ROCS_ShapeQuery>
x0812_0A_x1140_0A_x1097_0A_x0365_0A_x1097_0A_x0310_0A

> <ROCS_TanimotoCombo>
0.692 

> <ROCS_ShapeTanimoto>
0.240 

> <ROCS_ColorTanimoto>
0.453 

> <ROCS_RefTversky>
0.216 

> <ROCS_RefColorTversky>
0.546 

> <ROCS_RefTverskyCombo>
0.763 

> <ROCS_FitTversky>
1.813 

> <ROCS_FitColorTversky>
0.725 

> <ROCS_FitTverskyCombo>
2.538 

> <ROCS_ColorScore>
-8.158

> <ROCS_Overlap>
2189.631

> <ROCS_Rank>
489                 

$$$$
untitled-dbase-410906_2
  -OEChem-02092408543D

 19 20  0     0  0  0  0  0  0999 V2000
    9.1069   11.8079   25.0549 C   0  0  0  0  0  0  0  0  0  0  0  0
    7.7297   11.8720   23.4829 C   0  0  0  0  0  0  0  0  0  0  0  0
    9.1527    9.8638   23.5448 C   0  0  0  0  0  0  0  0  0  0  0  0
    9.2117   11.3927   23.5562 C   0  0  0  0  0  0  0  0  0  0  0  0
    7.7378   11.0440   24.8323 C   0  0  0  0  0  0  0  0  0  0  0  0
    6.6155   11.1448   25.8196 C   0  0  0  0  0  0  0  0  0  0  0  0
   10.1412   12.1550   22.7756 N   0  0  0  0  0  0  0  0  0  0  0  0
    8.0747    9.6688   24.4807 O   0  0  0  0  0  0  0  0  0  0  0  0
    6.2469   12.4506   25.9500 F   0  0  0  0  0  0  0  0  0  0  0  0
    9.8144   11.3325   25.7410 H   0  0  0  0  0  0  0  0  0  0  0  0
    9.0393   12.8770   25.2875 H   0  0  0  0  0  0  0  0  0  0  0  0
    7.5349   12.9474   23.5672 H   0  0  0  0  0  0  0  0  0  0  0  0
    7.1246   11.4578   22.6710 H   0  0  0  0  0  0  0  0  0  0  0  0
    8.8755    9.4516   22.5705 H   0  0  0  0  0  0  0  0  0  0  0  0
   10.0638    9.3955   23.9275 H   0  0  0  0  0  0  0  0  0  0  0  0
    6.9110   10.7829   26.8130 H   0  0  0  0  0  0  0  0  0  0  0  0
    5.7316   10.5820   25.4920 H   0  0  0  0  0  0  0  0  0  0  0  0
   10.8434   11.5485   22.3993 H   0  0  0  0  0  0  0  0  0  0  0  0
    9.6587   12.6077   22.0241 H   0  0  0  0  0  0  0  0  0  0  0  0
  1  4  1  0  0  0  0
  1  5  1  0  0  0  0
  2  4  1  0  0  0  0
  2  5  1  0  0  0  0
  3  4  1  0  0  0  0
  3  8  1  0  0  0  0
  4  7  1  0  0  0  0
  5  6  1  0  0  0  0
  5  8  1  0  0  0  0
  6  9  1  0  0  0  0
  1 10  1  0  0  0  0
  1 11  1  0  0  0  0
  2 12  1  0  0  0  0
  2 13  1  0  0  0  0
  3 14  1  0  0  0  0
  3 15  1  0  0  0  0
  6 16  1  0  0  0  0
  6 17  1  0  0  0  0
  7 18  1  0  0  0  0
  7 19  1  0  0  0  0
M  END
> <id>
EN300-26863024

> <smiles>
Cl.NC1(CC2(CF)C1)CO2

> <MDLNUMBER>
MFCD32679249

> <IUPAC Name>
1-(fluoromethyl)-2-oxabicyclo[2.1.1]hexan-4-amine hydrochloride

> <CAS>
2418692-76-7

> <Purity>
95

> <URL>
https://www.enaminestore.com/catalog/EN300-26863024

> <Saltdate>
Cl

> <ROCS_ShapeQuery>
x0812_0A_x1140_0A_x1097_0A_x0365_0A_x1097_0A_x0310_0A

> <ROCS_TanimotoCombo>
0.692 

> <ROCS_ShapeTanimoto>
0.199 

> <ROCS_ColorTanimoto>
0.493 

> <ROCS_RefTversky>
0.181 

> <ROCS_RefColorTversky>
0.553 

> <ROCS_RefTverskyCombo>
0.734 

> <ROCS_FitTversky>
2.018 

> <ROCS_FitColorTversky>
0.819 

> <ROCS_FitTverskyCombo>
2.837 

> <ROCS_ColorScore>
-8.222

> <ROCS_Overlap>
1830.858

> <ROCS_Rank>
490                 

$$$$
untitled-dbase-411155_2
  -OEChem-02092408543D

 19 20  0     0  0  0  0  0  0999 V2000
    9.1069   11.8079   25.0549 C   0  0  0  0  0  0  0  0  0  0  0  0
    7.7297   11.8720   23.4829 C   0  0  0  0  0  0  0  0  0  0  0  0
    9.1527    9.8638   23.5448 C   0  0  0  0  0  0  0  0  0  0  0  0
    9.2117   11.3927   23.5562 C   0  0  0  0  0  0  0  0  0  0  0  0
    7.7378   11.0440   24.8323 C   0  0  0  0  0  0  0  0  0  0  0  0
    6.6155   11.1448   25.8196 C   0  0  0  0  0  0  0  0  0  0  0  0
   10.1412   12.1550   22.7756 N   0  0  0  0  0  0  0  0  0  0  0  0
    8.0747    9.6688   24.4807 O   0  0  0  0  0  0  0  0  0  0  0  0
    6.2469   12.4506   25.9500 F   0  0  0  0  0  0  0  0  0  0  0  0
    9.8144   11.3325   25.7410 H   0  0  0  0  0  0  0  0  0  0  0  0
    9.0393   12.8770   25.2875 H   0  0  0  0  0  0  0  0  0  0  0  0
    7.5349   12.9474   23.5672 H   0  0  0  0  0  0  0  0  0  0  0  0
    7.1246   11.4578   22.6710 H   0  0  0  0  0  0  0  0  0  0  0  0
    8.8755    9.4516   22.5705 H   0  0  0  0  0  0  0  0  0  0  0  0
   10.0638    9.3955   23.9275 H   0  0  0  0  0  0  0  0  0  0  0  0
    6.9110   10.7829   26.8130 H   0  0  0  0  0  0  0  0  0  0  0  0
    5.7316   10.5820   25.4920 H   0  0  0  0  0  0  0  0  0  0  0  0
   10.8434   11.5485   22.3993 H   0  0  0  0  0  0  0  0  0  0  0  0
    9.6587   12.6077   22.0241 H   0  0  0  0  0  0  0  0  0  0  0  0
  1  4  1  0  0  0  0
  1  5  1  0  0  0  0
  2  4  1  0  0  0  0
  2  5  1  0  0  0  0
  3  4  1  0  0  0  0
  3  8  1  0  0  0  0
  4  7  1  0  0  0  0
  5  6  1  0  0  0  0
  5  8  1  0  0  0  0
  6  9  1  0  0  0  0
  1 10  1  0  0  0  0
  1 11  1  0  0  0  0
  2 12  1  0  0  0  0
  2 13  1  0  0  0  0
  3 14  1  0  0  0  0
  3 15  1  0  0  0  0
  6 16  1  0  0  0  0
  6 17  1  0  0  0  0
  7 18  1  0  0  0  0
  7 19  1  0  0  0  0
M  END
> <id>
EN300-26678493

> <smiles>
NC1(CC2(CF)C1)CO2

> <MDLNUMBER>
MFCD32679570

> <IUPAC Name>
1-(fluoromethyl)-2-oxabicyclo[2.1.1]hexan-4-amine

> <CAS>
2418673-49-9

> <URL>
https://www.enaminestore.com/catalog/EN300-26678493

> <ROCS_ShapeQuery>
x0812_0A_x1140_0A_x1097_0A_x0365_0A_x1097_0A_x0310_0A

> <ROCS_TanimotoCombo>
0.692 

> <ROCS_ShapeTanimoto>
0.199 

> <ROCS_ColorTanimoto>
0.493 

> <ROCS_RefTversky>
0.181 

> <ROCS_RefColorTversky>
0.553 

> <ROCS_RefTverskyCombo>
0.734 

> <ROCS_FitTversky>
2.018 

> <ROCS_FitColorTversky>
0.819 

> <ROCS_FitTverskyCombo>
2.837 

> <ROCS_ColorScore>
-8.222

> <ROCS_Overlap>
1830.858

> <ROCS_Rank>
491                 

$$$$
untitled-dbase-349204_8
  -OEChem-02092408543D

 37 38  0     1  0  0  0  0  0999 V2000
    9.9001   12.1045   22.3114 C   0  0  0  0  0  0  0  0  0  0  0  0
    6.7872   11.5064   24.6800 C   0  0  0  0  0  0  0  0  0  0  0  0
    7.0735   10.6911   23.3990 C   0  0  0  0  0  0  0  0  0  0  0  0
    8.6247   10.0528   25.0809 C   0  0  0  0  0  0  0  0  0  0  0  0
    9.1614   12.3205   24.7116 C   0  0  0  0  0  0  0  0  0  0  0  0
    8.1284   11.4518   25.4448 C   0  0  1  0  0  0  0  0  0  0  0  0
    8.5610   10.3221   23.5664 C   0  0  1  0  0  0  0  0  0  0  0  0
   12.0777   13.2840   20.8799 C   0  0  0  0  0  0  0  0  0  0  0  0
   11.9178   15.1568   22.5461 C   0  0  0  0  0  0  0  0  0  0  0  0
   12.4805   12.8357   23.3236 C   0  0  0  0  0  0  0  0  0  0  0  0
    9.0375    9.1555   22.7260 C   0  0  0  0  0  0  0  0  0  0  0  0
   11.6941   13.6648   22.3091 C   0  0  0  0  0  0  0  0  0  0  0  0
    9.3284   11.5813   23.4590 N   0  0  0  0  0  0  0  0  0  0  0  0
   10.0452   11.4941   21.2560 O   0  0  0  0  0  0  0  0  0  0  0  0
   10.4182    8.9406   22.9753 O   0  0  0  0  0  0  0  0  0  0  0  0
   10.2979   13.4036   22.4912 O   0  0  0  0  0  0  0  0  0  0  0  0
    6.4794   12.5320   24.4524 H   0  0  0  0  0  0  0  0  0  0  0  0
    5.9891   11.0272   25.2578 H   0  0  0  0  0  0  0  0  0  0  0  0
    6.4372    9.7988   23.3713 H   0  0  0  0  0  0  0  0  0  0  0  0
    6.8811   11.2716   22.4906 H   0  0  0  0  0  0  0  0  0  0  0  0
    9.6388    9.8452   25.4406 H   0  0  0  0  0  0  0  0  0  0  0  0
    7.9496    9.2563   25.4133 H   0  0  0  0  0  0  0  0  0  0  0  0
    8.8164   13.3413   24.5211 H   0  0  0  0  0  0  0  0  0  0  0  0
   10.1270   12.3451   25.2273 H   0  0  0  0  0  0  0  0  0  0  0  0
    8.0448   11.6638   26.5119 H   0  0  0  0  0  0  0  0  0  0  0  0
   11.9186   12.2138   20.7058 H   0  0  0  0  0  0  0  0  0  0  0  0
   11.4958   13.8465   20.1426 H   0  0  0  0  0  0  0  0  0  0  0  0
   13.1419   13.4719   20.6974 H   0  0  0  0  0  0  0  0  0  0  0  0
   11.6439   15.4345   23.5704 H   0  0  0  0  0  0  0  0  0  0  0  0
   11.2835   15.7566   21.8836 H   0  0  0  0  0  0  0  0  0  0  0  0
   12.9616   15.4406   22.3774 H   0  0  0  0  0  0  0  0  0  0  0  0
   12.2055   13.1087   24.3488 H   0  0  0  0  0  0  0  0  0  0  0  0
   12.3031   11.7634   23.1922 H   0  0  0  0  0  0  0  0  0  0  0  0
   13.5561   13.0247   23.2312 H   0  0  0  0  0  0  0  0  0  0  0  0
    8.8999    9.3686   21.6620 H   0  0  0  0  0  0  0  0  0  0  0  0
    8.4864    8.2467   22.9844 H   0  0  0  0  0  0  0  0  0  0  0  0
   10.6909    8.1892   22.4232 H   0  0  0  0  0  0  0  0  0  0  0  0
  1 13  1  0  0  0  0
  1 14  2  0  0  0  0
  1 16  1  0  0  0  0
  2  3  1  0  0  0  0
  2  6  1  0  0  0  0
  3  7  1  0  0  0  0
  4  6  1  0  0  0  0
  4  7  1  0  0  0  0
  5  6  1  0  0  0  0
  5 13  1  0  0  0  0
  7 11  1  0  0  0  0
  7 13  1  0  0  0  0
  8 12  1  0  0  0  0
  9 12  1  0  0  0  0
 10 12  1  0  0  0  0
 11 15  1  0  0  0  0
 12 16  1  0  0  0  0
  2 17  1  0  0  0  0
  2 18  1  0  0  0  0
  3 19  1  0  0  0  0
  3 20  1  0  0  0  0
  4 21  1  0  0  0  0
  4 22  1  0  0  0  0
  5 23  1  0  0  0  0
  5 24  1  0  0  0  0
  6 25  1  0  0  0  0
  8 26  1  0  0  0  0
  8 27  1  0  0  0  0
  8 28  1  0  0  0  0
  9 29  1  0  0  0  0
  9 30  1  0  0  0  0
  9 31  1  0  0  0  0
 10 32  1  0  0  0  0
 10 33  1  0  0  0  0
 10 34  1  0  0  0  0
 11 35  1  0  0  0  0
 11 36  1  0  0  0  0
 15 37  1  0  0  0  0
M  END
> <id>
EN300-7112779

> <smiles>
CC(C)(C)OC(=O)N1CC2CCC1(CO)C2

> <MDLNUMBER>
MFCD32756725

> <IUPAC Name>
tert-butyl 1-(hydroxymethyl)-2-azabicyclo[2.2.1]heptane-2-carboxylate

> <CAS>
1780679-52-8

> <URL>
https://www.enaminestore.com/catalog/EN300-7112779

> <ROCS_ShapeQuery>
x0812_0A_x1140_0A_x1097_0A_x0365_0A_x1097_0A_x0310_0A

> <ROCS_TanimotoCombo>
0.692 

> <ROCS_ShapeTanimoto>
0.250 

> <ROCS_ColorTanimoto>
0.442 

> <ROCS_RefTversky>
0.224 

> <ROCS_RefColorTversky>
0.524 

> <ROCS_RefTverskyCombo>
0.749 

> <ROCS_FitTversky>
1.878 

> <ROCS_FitColorTversky>
0.737 

> <ROCS_FitTverskyCombo>
2.615 

> <ROCS_ColorScore>
-7.812

> <ROCS_Overlap>
2268.829

> <ROCS_Rank>
492                 

$$$$
untitled-dbase-349872_5
  -OEChem-02092408543D

 34 35  0     1  0  0  0  0  0999 V2000
    9.2714   13.7391   23.7097 C   0  0  0  0  0  0  0  0  0  0  0  0
    7.4265   10.6551   23.4033 C   0  0  0  0  0  0  0  0  0  0  0  0
    8.8337    9.9815   25.1980 C   0  0  0  0  0  0  0  0  0  0  0  0
    7.7640   12.2563   25.1180 C   0  0  0  0  0  0  0  0  0  0  0  0
    7.5177   10.7480   24.9307 C   0  0  1  0  0  0  0  0  0  0  0  0
    8.7913   11.3190   23.1962 C   0  0  2  0  0  0  0  0  0  0  0  0
    9.7181   10.3873   23.9976 C   0  0  2  0  0  0  0  0  0  0  0  0
   11.8454   13.4776   24.1170 C   0  0  0  0  0  0  0  0  0  0  0  0
   12.1517   13.1019   21.6524 C   0  0  0  0  0  0  0  0  0  0  0  0
   11.6725   15.4114   22.5155 C   0  0  0  0  0  0  0  0  0  0  0  0
   11.4210   13.9178   22.7167 C   0  0  0  0  0  0  0  0  0  0  0  0
    8.6395   12.5447   23.9832 N   0  0  0  0  0  0  0  0  0  0  0  0
    9.1775   14.7469   24.4060 O   0  0  0  0  0  0  0  0  0  0  0  0
   10.0552    9.2530   23.2129 O   0  0  0  0  0  0  0  0  0  0  0  0
   10.0193   13.6671   22.5655 O   0  0  0  0  0  0  0  0  0  0  0  0
    7.3760    9.6258   23.0333 H   0  0  0  0  0  0  0  0  0  0  0  0
    6.5986   11.2368   22.9838 H   0  0  0  0  0  0  0  0  0  0  0  0
    9.2822   10.2842   26.1497 H   0  0  0  0  0  0  0  0  0  0  0  0
    8.6592    8.8999   25.2210 H   0  0  0  0  0  0  0  0  0  0  0  0
    6.8483   12.8464   25.0068 H   0  0  0  0  0  0  0  0  0  0  0  0
    8.2586   12.5125   26.0596 H   0  0  0  0  0  0  0  0  0  0  0  0
    6.6575   10.3648   25.4821 H   0  0  0  0  0  0  0  0  0  0  0  0
    9.0844   11.4924   22.1587 H   0  0  0  0  0  0  0  0  0  0  0  0
   10.6453   10.8784   24.3121 H   0  0  0  0  0  0  0  0  0  0  0  0
   11.3230   14.0608   24.8838 H   0  0  0  0  0  0  0  0  0  0  0  0
   11.6380   12.4159   24.2863 H   0  0  0  0  0  0  0  0  0  0  0  0
   12.9163   13.6502   24.2734 H   0  0  0  0  0  0  0  0  0  0  0  0
   11.8503   13.4144   20.6461 H   0  0  0  0  0  0  0  0  0  0  0  0
   11.8991   12.0386   21.7340 H   0  0  0  0  0  0  0  0  0  0  0  0
   13.2381   13.2078   21.7375 H   0  0  0  0  0  0  0  0  0  0  0  0
   11.3682   15.7274   21.5111 H   0  0  0  0  0  0  0  0  0  0  0  0
   11.1263   16.0147   23.2479 H   0  0  0  0  0  0  0  0  0  0  0  0
   12.7406   15.6418   22.6018 H   0  0  0  0  0  0  0  0  0  0  0  0
   10.5388    8.6427   23.7934 H   0  0  0  0  0  0  0  0  0  0  0  0
  1 12  1  0  0  0  0
  1 13  2  0  0  0  0
  1 15  1  0  0  0  0
  2  5  1  6  0  0  0
  2  6  1  6  0  0  0
  3  5  1  0  0  0  0
  3  7  1  0  0  0  0
  4  5  1  0  0  0  0
  4 12  1  0  0  0  0
  6  7  1  0  0  0  0
  6 12  1  0  0  0  0
  7 14  1  6  0  0  0
  8 11  1  0  0  0  0
  9 11  1  0  0  0  0
 10 11  1  0  0  0  0
 11 15  1  0  0  0  0
  2 16  1  0  0  0  0
  2 17  1  0  0  0  0
  3 18  1  0  0  0  0
  3 19  1  0  0  0  0
  4 20  1  0  0  0  0
  4 21  1  0  0  0  0
  5 22  1  0  0  0  0
  6 23  1  0  0  0  0
  7 24  1  0  0  0  0
  8 25  1  0  0  0  0
  8 26  1  0  0  0  0
  8 27  1  0  0  0  0
  9 28  1  0  0  0  0
  9 29  1  0  0  0  0
  9 30  1  0  0  0  0
 10 31  1  0  0  0  0
 10 32  1  0  0  0  0
 10 33  1  0  0  0  0
 14 34  1  0  0  0  0
M  END
> <id>
EN300-7445491

> <smiles>
CC(C)(C)OC(=O)N1C[C@@H]2C[C@@H](O)[C@H]1C2 |&1:9,11,13,r|

> <IUPAC Name>
rac-tert-butyl (1R,4S,6R)-6-hydroxy-2-azabicyclo[2.2.1]heptane-2-carboxylate

> <CAS>
1932398-86-1

> <URL>
https://www.enaminestore.com/catalog/EN300-7445491

> <ROCS_ShapeQuery>
x0812_0A_x1140_0A_x1097_0A_x0365_0A_x1097_0A_x0310_0A

> <ROCS_TanimotoCombo>
0.692 

> <ROCS_ShapeTanimoto>
0.230 

> <ROCS_ColorTanimoto>
0.462 

> <ROCS_RefTversky>
0.208 

> <ROCS_RefColorTversky>
0.541 

> <ROCS_RefTverskyCombo>
0.750 

> <ROCS_FitTversky>
1.806 

> <ROCS_FitColorTversky>
0.760 

> <ROCS_FitTverskyCombo>
2.567 

> <ROCS_ColorScore>
-8.065

> <ROCS_Overlap>
2106.953

> <ROCS_Rank>
493                 

$$$$
untitled-dbase-409005_4
  -OEChem-02092408543D

 37 39  0     0  0  0  0  0  0999 V2000
   11.7090   15.0449   22.3555 C   0  0  0  0  0  0  0  0  0  0  0  0
    6.7292   11.0146   24.5173 C   0  0  0  0  0  0  0  0  0  0  0  0
    8.8911   10.6724   25.7409 C   0  0  0  0  0  0  0  0  0  0  0  0
    8.4733    9.4787   23.5757 C   0  0  0  0  0  0  0  0  0  0  0  0
    8.4157   12.8678   24.6256 C   0  0  0  0  0  0  0  0  0  0  0  0
    7.9969   11.6714   22.4555 C   0  0  0  0  0  0  0  0  0  0  0  0
   10.1636   11.3283   23.6817 C   0  0  0  0  0  0  0  0  0  0  0  0
    7.7923   11.6920   25.3980 C   0  0  0  0  0  0  0  0  0  0  0  0
    7.3725   10.4924   23.2220 C   0  0  0  0  0  0  0  0  0  0  0  0
    9.5451   10.1484   24.4517 C   0  0  0  0  0  0  0  0  0  0  0  0
    9.0757   12.3669   23.3192 C   0  0  0  0  0  0  0  0  0  0  0  0
   11.0655   13.8956   23.1103 C   0  0  0  0  0  0  0  0  0  0  0  0
    9.6947   13.5392   22.5534 C   0  0  0  0  0  0  0  0  0  0  0  0
   11.9166   14.8365   20.8822 C   0  0  0  0  0  0  0  0  0  0  0  0
   12.0482   16.0940   22.9006 O   0  0  0  0  0  0  0  0  0  0  0  0
   11.4769   13.6183   20.4789 F   0  0  0  0  0  0  0  0  0  0  0  0
   13.2273   14.9175   20.5416 F   0  0  0  0  0  0  0  0  0  0  0  0
   11.2582   15.7594   20.1366 F   0  0  0  0  0  0  0  0  0  0  0  0
    6.2628   10.1859   25.0642 H   0  0  0  0  0  0  0  0  0  0  0  0
    5.9306   11.7276   24.2782 H   0  0  0  0  0  0  0  0  0  0  0  0
    9.6484   11.1393   26.3826 H   0  0  0  0  0  0  0  0  0  0  0  0
    8.4629    9.8377   26.3096 H   0  0  0  0  0  0  0  0  0  0  0  0
    8.0377    8.6228   24.1059 H   0  0  0  0  0  0  0  0  0  0  0  0
    8.9303    9.0862   22.6590 H   0  0  0  0  0  0  0  0  0  0  0  0
    7.6407   13.6113   24.3984 H   0  0  0  0  0  0  0  0  0  0  0  0
    9.1588   13.3709   25.2576 H   0  0  0  0  0  0  0  0  0  0  0  0
    8.4372   11.3091   21.5175 H   0  0  0  0  0  0  0  0  0  0  0  0
    7.2125   12.3876   22.1789 H   0  0  0  0  0  0  0  0  0  0  0  0
   10.9469   11.7963   24.2920 H   0  0  0  0  0  0  0  0  0  0  0  0
   10.6529   10.9580   22.7716 H   0  0  0  0  0  0  0  0  0  0  0  0
    7.3286   12.0602   26.3200 H   0  0  0  0  0  0  0  0  0  0  0  0
    6.6111   10.0091   22.5996 H   0  0  0  0  0  0  0  0  0  0  0  0
   10.3254    9.4211   24.7023 H   0  0  0  0  0  0  0  0  0  0  0  0
   10.9795   14.1899   24.1622 H   0  0  0  0  0  0  0  0  0  0  0  0
   11.7354   13.0311   23.0434 H   0  0  0  0  0  0  0  0  0  0  0  0
    9.0206   14.3971   22.6205 H   0  0  0  0  0  0  0  0  0  0  0  0
    9.7704   13.2676   21.4973 H   0  0  0  0  0  0  0  0  0  0  0  0
  1 12  1  0  0  0  0
  1 14  1  0  0  0  0
  1 15  2  0  0  0  0
  2  8  1  0  0  0  0
  2  9  1  0  0  0  0
  3  8  1  0  0  0  0
  3 10  1  0  0  0  0
  4  9  1  0  0  0  0
  4 10  1  0  0  0  0
  5  8  1  0  0  0  0
  5 11  1  0  0  0  0
  6  9  1  0  0  0  0
  6 11  1  0  0  0  0
  7 10  1  0  0  0  0
  7 11  1  0  0  0  0
 11 13  1  0  0  0  0
 12 13  1  0  0  0  0
 14 16  1  0  0  0  0
 14 17  1  0  0  0  0
 14 18  1  0  0  0  0
  2 19  1  0  0  0  0
  2 20  1  0  0  0  0
  3 21  1  0  0  0  0
  3 22  1  0  0  0  0
  4 23  1  0  0  0  0
  4 24  1  0  0  0  0
  5 25  1  0  0  0  0
  5 26  1  0  0  0  0
  6 27  1  0  0  0  0
  6 28  1  0  0  0  0
  7 29  1  0  0  0  0
  7 30  1  0  0  0  0
  8 31  1  0  0  0  0
  9 32  1  0  0  0  0
 10 33  1  0  0  0  0
 12 34  1  0  0  0  0
 12 35  1  0  0  0  0
 13 36  1  0  0  0  0
 13 37  1  0  0  0  0
M  END
> <id>
EN300-1962806

> <smiles>
FC(F)(F)C(=O)CCC1(CC2CC3CC(C2)C1)C3

> <IUPAC Name>
4-(adamantan-1-yl)-1,1,1-trifluorobutan-2-one

> <CAS>
2229159-06-0

> <URL>
https://www.enaminestore.com/catalog/EN300-1962806

> <ROCS_ShapeQuery>
x0812_0A_x1140_0A_x1097_0A_x0365_0A_x1097_0A_x0310_0A

> <ROCS_TanimotoCombo>
0.692 

> <ROCS_ShapeTanimoto>
0.230 

> <ROCS_ColorTanimoto>
0.462 

> <ROCS_RefTversky>
0.211 

> <ROCS_RefColorTversky>
0.484 

> <ROCS_RefTverskyCombo>
0.695 

> <ROCS_FitTversky>
1.650 

> <ROCS_FitColorTversky>
0.909 

> <ROCS_FitTverskyCombo>
2.559 

> <ROCS_ColorScore>
-7.139

> <ROCS_Overlap>
2138.271

> <ROCS_Rank>
494                 

$$$$
untitled-dbase-513411_3
  -OEChem-02092408543D

 24 25  0     0  0  0  0  0  0999 V2000
    6.4418   10.9540   25.7517 C   0  0  0  0  0  0  0  0  0  0  0  0
   10.4823   12.0920   21.6729 C   0  0  0  0  0  0  0  0  0  0  0  0
    8.9456   11.7812   25.2283 C   0  0  0  0  0  0  0  0  0  0  0  0
    7.6939   11.8882   23.5647 C   0  0  0  0  0  0  0  0  0  0  0  0
    9.2466    9.9813   23.5794 C   0  0  0  0  0  0  0  0  0  0  0  0
    7.6562   10.9525   24.8389 C   0  0  0  0  0  0  0  0  0  0  0  0
    9.1948   11.5039   23.7172 C   0  0  0  0  0  0  0  0  0  0  0  0
   11.5506   12.9956   21.1528 C   0  0  0  0  0  0  0  0  0  0  0  0
   10.1884   12.2660   23.0183 N   0  0  0  0  0  0  0  0  0  0  0  0
    6.1128   11.8781   26.4805 O   0  0  0  0  0  0  0  0  0  0  0  0
    9.9504   11.2875   20.9168 O   0  0  0  0  0  0  0  0  0  0  0  0
    8.1181    9.6379   24.4066 O   0  0  0  0  0  0  0  0  0  0  0  0
    5.7665    9.7829   25.6520 O   0  0  0  0  0  0  0  0  0  0  0  0
    8.7969   12.8232   25.5330 H   0  0  0  0  0  0  0  0  0  0  0  0
    9.6323   11.2936   25.9265 H   0  0  0  0  0  0  0  0  0  0  0  0
    7.1864   11.5025   22.6756 H   0  0  0  0  0  0  0  0  0  0  0  0
    7.4236   12.9401   23.7096 H   0  0  0  0  0  0  0  0  0  0  0  0
    9.0730    9.6352   22.5564 H   0  0  0  0  0  0  0  0  0  0  0  0
   10.1569    9.5414   23.9962 H   0  0  0  0  0  0  0  0  0  0  0  0
   12.5567   12.5568   21.2500 H   0  0  0  0  0  0  0  0  0  0  0  0
   11.4308   13.2141   20.0795 H   0  0  0  0  0  0  0  0  0  0  0  0
   11.6153   13.9800   21.6433 H   0  0  0  0  0  0  0  0  0  0  0  0
   10.7076   12.9747   23.5382 H   0  0  0  0  0  0  0  0  0  0  0  0
    4.9787    9.7634   26.2362 H   0  0  0  0  0  0  0  0  0  0  0  0
  1  6  1  0  0  0  0
  1 10  2  0  0  0  0
  1 13  1  0  0  0  0
  2  8  1  0  0  0  0
  2  9  1  0  0  0  0
  2 11  2  0  0  0  0
  3  6  1  0  0  0  0
  3  7  1  0  0  0  0
  4  6  1  0  0  0  0
  4  7  1  0  0  0  0
  5  7  1  0  0  0  0
  5 12  1  0  0  0  0
  6 12  1  0  0  0  0
  7  9  1  0  0  0  0
  3 14  1  0  0  0  0
  3 15  1  0  0  0  0
  4 16  1  0  0  0  0
  4 17  1  0  0  0  0
  5 18  1  0  0  0  0
  5 19  1  0  0  0  0
  8 20  1  0  0  0  0
  8 21  1  0  0  0  0
  8 22  1  0  0  0  0
  9 23  1  0  0  0  0
 13 24  1  0  0  0  0
M  END
> <id>
EN300-28271498

> <smiles>
CC(=O)NC1(CC2(C1)C(=O)O)CO2

> <IUPAC Name>
4-acetamido-2-oxabicyclo[2.1.1]hexane-1-carboxylic acid

> <CAS>
2680823-63-4

> <URL>
https://www.enaminestore.com/catalog/EN300-28271498

> <ROCS_ShapeQuery>
x0812_0A_x1140_0A_x1097_0A_x0365_0A_x1097_0A_x0310_0A

> <ROCS_TanimotoCombo>
0.692 

> <ROCS_ShapeTanimoto>
0.235 

> <ROCS_ColorTanimoto>
0.457 

> <ROCS_RefTversky>
0.210 

> <ROCS_RefColorTversky>
0.583 

> <ROCS_RefTverskyCombo>
0.794 

> <ROCS_FitTversky>
1.967 

> <ROCS_FitColorTversky>
0.679 

> <ROCS_FitTverskyCombo>
2.646 

> <ROCS_ColorScore>
-8.763

> <ROCS_Overlap>
2127.439

> <ROCS_Rank>
495                 

$$$$
untitled-dbase-97034_8
  -OEChem-02092408543D

 25 27  0     1  0  0  0  0  0999 V2000
   10.3739   13.9988   23.6908 C   0  0  0  0  0  0  0  0  0  0  0  0
   11.1099   12.5631   22.0177 C   0  0  0  0  0  0  0  0  0  0  0  0
   10.2614   12.7104   23.0928 C   0  0  0  0  0  0  0  0  0  0  0  0
   11.3044   14.7872   23.0500 C   0  0  0  0  0  0  0  0  0  0  0  0
   11.7026   16.1245   23.3490 C   0  0  0  0  0  0  0  0  0  0  0  0
    7.5273   11.6975   24.8595 C   0  0  0  0  0  0  0  0  0  0  0  0
    8.3649   11.1639   22.6946 C   0  0  0  0  0  0  0  0  0  0  0  0
    9.1544   10.0665   25.2183 C   0  0  0  0  0  0  0  0  0  0  0  0
    9.0455   11.5641   24.9340 C   0  0  1  0  0  0  0  0  0  0  0  0
    7.4281   10.6238   23.7911 C   0  0  1  0  0  0  0  0  0  0  0  0
    9.4254   11.7485   23.5256 N   0  0  2  0  0  0  0  0  0  0  0  0
   12.5629   16.7607   22.7041 O   0  0  0  0  0  0  0  0  0  0  0  0
    8.0968    9.4907   24.4038 O   0  0  0  0  0  0  0  0  0  0  0  0
   12.0372   13.9743   21.7330 S   0  0  0  0  0  0  0  0  0  0  0  0
    9.8024   14.3316   24.5491 H   0  0  0  0  0  0  0  0  0  0  0  0
   11.2354   11.6972   21.3821 H   0  0  0  0  0  0  0  0  0  0  0  0
   11.2188   16.6491   24.2181 H   0  0  0  0  0  0  0  0  0  0  0  0
    7.0383   11.4179   25.7985 H   0  0  0  0  0  0  0  0  0  0  0  0
    7.1841   12.6837   24.5319 H   0  0  0  0  0  0  0  0  0  0  0  0
    8.7474   10.3594   22.0573 H   0  0  0  0  0  0  0  0  0  0  0  0
    7.8842   11.9407   22.0916 H   0  0  0  0  0  0  0  0  0  0  0  0
   10.1166    9.6247   24.9423 H   0  0  0  0  0  0  0  0  0  0  0  0
    8.9369    9.8303   26.2651 H   0  0  0  0  0  0  0  0  0  0  0  0
    9.5587   12.2253   25.6356 H   0  0  0  0  0  0  0  0  0  0  0  0
    6.4247   10.3589   23.4533 H   0  0  0  0  0  0  0  0  0  0  0  0
  1  3  1  0  0  0  0
  1  4  2  0  0  0  0
  2  3  2  0  0  0  0
  2 14  1  0  0  0  0
  3 11  1  0  0  0  0
  4  5  1  0  0  0  0
  4 14  1  0  0  0  0
  5 12  2  0  0  0  0
  6  9  1  1  0  0  0
  6 10  1  1  0  0  0
  7 10  1  0  0  0  0
  7 11  1  0  0  0  0
  8  9  1  0  0  0  0
  8 13  1  0  0  0  0
  9 11  1  0  0  0  0
 10 13  1  0  0  0  0
  1 15  1  0  0  0  0
  2 16  1  0  0  0  0
  5 17  1  0  0  0  0
  6 18  1  0  0  0  0
  6 19  1  0  0  0  0
  7 20  1  0  0  0  0
  7 21  1  0  0  0  0
  8 22  1  0  0  0  0
  8 23  1  0  0  0  0
  9 24  1  0  0  0  0
 10 25  1  0  0  0  0
M  END
> <id>
EN300-726281

> <smiles>
O=CC1=CC(=CS1)N2C[C@@H]3C[C@H]2CO3 |&1:9,11,r|

> <IUPAC Name>
rac-4-[(1R,4R)-2-oxa-5-azabicyclo[2.2.1]heptan-5-yl]thiophene-2-carbaldehyde

> <CAS>
2137573-35-2

> <URL>
https://www.enaminestore.com/catalog/EN300-726281

> <ROCS_ShapeQuery>
x0812_0A_x1140_0A_x1097_0A_x0365_0A_x1097_0A_x0310_0A

> <ROCS_TanimotoCombo>
0.692 

> <ROCS_ShapeTanimoto>
0.205 

> <ROCS_ColorTanimoto>
0.487 

> <ROCS_RefTversky>
0.189 

> <ROCS_RefColorTversky>
0.541 

> <ROCS_RefTverskyCombo>
0.731 

> <ROCS_FitTversky>
1.692 

> <ROCS_FitColorTversky>
0.827 

> <ROCS_FitTverskyCombo>
2.519 

> <ROCS_ColorScore>
-8.042

> <ROCS_Overlap>
1915.241

> <ROCS_Rank>
496                 

$$$$
untitled-dbase-412886_0
  -OEChem-02092408543D

 21 22  0     1  0  0  0  0  0999 V2000
    7.8860   10.2895   25.6742 C   0  0  0  0  0  0  0  0  0  0  0  0
    7.3531    9.7270   24.3461 C   0  0  0  0  0  0  0  0  0  0  0  0
    7.3807   12.0763   23.3345 C   0  0  0  0  0  0  0  0  0  0  0  0
    9.3151   10.8460   25.6152 C   0  0  0  0  0  0  0  0  0  0  0  0
    8.5145   12.7076   24.1760 C   0  0  0  0  0  0  0  0  0  0  0  0
    7.7064   10.5837   23.1191 C   0  0  1  0  0  0  0  0  0  0  0  0
    9.5684   11.6334   24.3512 N   0  0  2  0  0  0  0  0  0  0  0  0
   10.0616    9.3002   23.1562 O   0  0  0  0  0  0  0  0  0  0  0  0
    9.8098   11.3758   21.7271 O   0  0  0  0  0  0  0  0  0  0  0  0
    9.4795   10.6006   22.9058 S   0  0  0  0  0  0  0  0  0  0  0  0
    7.2082   11.0859   26.0079 H   0  0  0  0  0  0  0  0  0  0  0  0
    7.8285    9.5163   26.4495 H   0  0  0  0  0  0  0  0  0  0  0  0
    7.7407    8.7102   24.2099 H   0  0  0  0  0  0  0  0  0  0  0  0
    6.2630    9.6335   24.4209 H   0  0  0  0  0  0  0  0  0  0  0  0
    6.4027   12.2206   23.8055 H   0  0  0  0  0  0  0  0  0  0  0  0
    7.3399   12.5882   22.3648 H   0  0  0  0  0  0  0  0  0  0  0  0
    9.5032   11.4955   26.4778 H   0  0  0  0  0  0  0  0  0  0  0  0
   10.0484   10.0342   25.6747 H   0  0  0  0  0  0  0  0  0  0  0  0
    8.9631   13.5567   23.6493 H   0  0  0  0  0  0  0  0  0  0  0  0
    8.1458   13.0703   25.1405 H   0  0  0  0  0  0  0  0  0  0  0  0
    7.2425   10.1875   22.2120 H   0  0  0  0  0  0  0  0  0  0  0  0
  1  2  1  0  0  0  0
  1  4  1  0  0  0  0
  2  6  1  0  0  0  0
  3  5  1  0  0  0  0
  3  6  1  0  0  0  0
  4  7  1  0  0  0  0
  5  7  1  0  0  0  0
  6 10  1  0  0  0  0
  7 10  1  0  0  0  0
  8 10  2  0  0  0  0
  9 10  2  0  0  0  0
  1 11  1  0  0  0  0
  1 12  1  0  0  0  0
  2 13  1  0  0  0  0
  2 14  1  0  0  0  0
  3 15  1  0  0  0  0
  3 16  1  0  0  0  0
  4 17  1  0  0  0  0
  4 18  1  0  0  0  0
  5 19  1  0  0  0  0
  5 20  1  0  0  0  0
  6 21  1  0  0  0  0
M  END
> <id>
EN300-6498648

> <smiles>
O=S1(=O)C2CCN1CCC2

> <MDLNUMBER>
MFCD31719120

> <IUPAC Name>
8lambda6-thia-1-azabicyclo[3.2.1]octane-8,8-dione

> <CAS>
2248401-44-5

> <Purity>
95

> <URL>
https://www.enaminestore.com/catalog/EN300-6498648

> <ROCS_ShapeQuery>
x0812_0A_x1140_0A_x1097_0A_x0365_0A_x1097_0A_x0310_0A

> <ROCS_TanimotoCombo>
0.692 

> <ROCS_ShapeTanimoto>
0.177 

> <ROCS_ColorTanimoto>
0.515 

> <ROCS_RefTversky>
0.164 

> <ROCS_RefColorTversky>
0.526 

> <ROCS_RefTverskyCombo>
0.690 

> <ROCS_FitTversky>
1.797 

> <ROCS_FitColorTversky>
0.959 

> <ROCS_FitTverskyCombo>
2.756 

> <ROCS_ColorScore>
-7.771

> <ROCS_Overlap>
1659.400

> <ROCS_Rank>
497                 

$$$$
untitled-dbase-480817_5
  -OEChem-02092408543D

 36 37  0     1  0  0  0  0  0999 V2000
   10.3899   11.8982   22.4696 C   0  0  0  0  0  0  0  0  0  0  0  0
    7.7893   12.1194   25.2617 C   0  0  0  0  0  0  0  0  0  0  0  0
    7.6856   10.6344   25.6398 C   0  0  0  0  0  0  0  0  0  0  0  0
    7.5179   10.8399   23.2797 C   0  0  0  0  0  0  0  0  0  0  0  0
    9.7433   11.5967   23.7910 C   0  0  1  0  0  0  0  0  0  0  0  0
    8.2706   12.0675   23.8015 C   0  0  2  0  0  0  0  0  0  0  0  0
    8.1053    9.9122   24.3437 C   0  0  1  0  0  0  0  0  0  0  0  0
    9.6327   10.0887   24.1451 C   0  0  1  0  0  0  0  0  0  0  0  0
    9.9611   14.4013   21.8852 C   0  0  0  0  0  0  0  0  0  0  0  0
   12.2074   14.9665   22.8567 C   0  0  0  0  0  0  0  0  0  0  0  0
   12.0616   13.8263   20.6235 C   0  0  0  0  0  0  0  0  0  0  0  0
   11.4227   13.9719   22.0039 C   0  0  0  0  0  0  0  0  0  0  0  0
   10.1523    9.1875   23.1196 N   0  0  0  0  0  0  0  0  0  0  0  0
    9.9860   11.4722   21.3960 O   0  0  0  0  0  0  0  0  0  0  0  0
   11.4725   12.7036   22.6650 O   0  0  0  0  0  0  0  0  0  0  0  0
    6.8043   12.5949   25.3306 H   0  0  0  0  0  0  0  0  0  0  0  0
    8.4772   12.6648   25.9154 H   0  0  0  0  0  0  0  0  0  0  0  0
    8.3269   10.3800   26.4895 H   0  0  0  0  0  0  0  0  0  0  0  0
    6.6520   10.3859   25.9063 H   0  0  0  0  0  0  0  0  0  0  0  0
    6.4296   10.9420   23.3525 H   0  0  0  0  0  0  0  0  0  0  0  0
    7.7838   10.5650   22.2550 H   0  0  0  0  0  0  0  0  0  0  0  0
   10.3383   12.1211   24.5486 H   0  0  0  0  0  0  0  0  0  0  0  0
    8.0840   12.9898   23.2463 H   0  0  0  0  0  0  0  0  0  0  0  0
    7.7616    8.8755   24.3045 H   0  0  0  0  0  0  0  0  0  0  0  0
   10.1679    9.8818   25.0790 H   0  0  0  0  0  0  0  0  0  0  0  0
    9.3944   13.6899   21.2737 H   0  0  0  0  0  0  0  0  0  0  0  0
    9.4815   14.4755   22.8666 H   0  0  0  0  0  0  0  0  0  0  0  0
    9.8784   15.3731   21.3852 H   0  0  0  0  0  0  0  0  0  0  0  0
   13.2567   14.6623   22.9445 H   0  0  0  0  0  0  0  0  0  0  0  0
   11.8104   15.0037   23.8775 H   0  0  0  0  0  0  0  0  0  0  0  0
   12.1733   15.9759   22.4343 H   0  0  0  0  0  0  0  0  0  0  0  0
   13.1101   13.5183   20.7084 H   0  0  0  0  0  0  0  0  0  0  0  0
   11.5334   13.0890   20.0103 H   0  0  0  0  0  0  0  0  0  0  0  0
   12.0630   14.7847   20.0917 H   0  0  0  0  0  0  0  0  0  0  0  0
    9.4016    8.6298   22.7873 H   0  0  0  0  0  0  0  0  0  0  0  0
   10.5316    9.7384   22.3865 H   0  0  0  0  0  0  0  0  0  0  0  0
  1  5  1  1  0  0  0
  1 14  2  0  0  0  0
  1 15  1  0  0  0  0
  2  3  1  0  0  0  0
  2  6  1  0  0  0  0
  3  7  1  0  0  0  0
  4  6  1  1  0  0  0
  4  7  1  1  0  0  0
  5  6  1  0  0  0  0
  5  8  1  0  0  0  0
  7  8  1  0  0  0  0
  8 13  1  1  0  0  0
  9 12  1  0  0  0  0
 10 12  1  0  0  0  0
 11 12  1  0  0  0  0
 12 15  1  0  0  0  0
  2 16  1  0  0  0  0
  2 17  1  0  0  0  0
  3 18  1  0  0  0  0
  3 19  1  0  0  0  0
  4 20  1  0  0  0  0
  4 21  1  0  0  0  0
  5 22  1  0  0  0  0
  6 23  1  0  0  0  0
  7 24  1  0  0  0  0
  8 25  1  0  0  0  0
  9 26  1  0  0  0  0
  9 27  1  0  0  0  0
  9 28  1  0  0  0  0
 10 29  1  0  0  0  0
 10 30  1  0  0  0  0
 10 31  1  0  0  0  0
 11 32  1  0  0  0  0
 11 33  1  0  0  0  0
 11 34  1  0  0  0  0
 13 35  1  0  0  0  0
 13 36  1  0  0  0  0
M  END
> <id>
EN300-27732268

> <smiles>
CC(C)(C)OC(=O)[C@@H]1[C@H](N)[C@H]2CC[C@@H]1C2 |o1:7,8,10,13,r|

> <IUPAC Name>
rel-tert-butyl (1R,2S,3R,4S)-3-aminobicyclo[2.2.1]heptane-2-carboxylate

> <CAS>
2580099-39-2

> <URL>
https://www.enaminestore.com/catalog/EN300-27732268

> <ROCS_ShapeQuery>
x0812_0A_x1140_0A_x1097_0A_x0365_0A_x1097_0A_x0310_0A

> <ROCS_TanimotoCombo>
0.692 

> <ROCS_ShapeTanimoto>
0.246 

> <ROCS_ColorTanimoto>
0.446 

> <ROCS_RefTversky>
0.220 

> <ROCS_RefColorTversky>
0.527 

> <ROCS_RefTverskyCombo>
0.747 

> <ROCS_FitTversky>
1.920 

> <ROCS_FitColorTversky>
0.744 

> <ROCS_FitTverskyCombo>
2.664 

> <ROCS_ColorScore>
-7.850

> <ROCS_Overlap>
2222.182

> <ROCS_Rank>
498                 

$$$$
untitled-dbase-587784_5
  -OEChem-02092408543D

 36 37  0     1  0  0  0  0  0999 V2000
   10.3899   11.8982   22.4696 C   0  0  0  0  0  0  0  0  0  0  0  0
    7.7893   12.1194   25.2617 C   0  0  0  0  0  0  0  0  0  0  0  0
    7.6856   10.6344   25.6398 C   0  0  0  0  0  0  0  0  0  0  0  0
    7.5179   10.8399   23.2797 C   0  0  0  0  0  0  0  0  0  0  0  0
    9.7433   11.5967   23.7910 C   0  0  1  0  0  0  0  0  0  0  0  0
    8.2706   12.0675   23.8015 C   0  0  2  0  0  0  0  0  0  0  0  0
    8.1053    9.9122   24.3437 C   0  0  1  0  0  0  0  0  0  0  0  0
    9.6327   10.0887   24.1451 C   0  0  1  0  0  0  0  0  0  0  0  0
    9.9611   14.4013   21.8852 C   0  0  0  0  0  0  0  0  0  0  0  0
   12.2074   14.9665   22.8567 C   0  0  0  0  0  0  0  0  0  0  0  0
   12.0616   13.8263   20.6235 C   0  0  0  0  0  0  0  0  0  0  0  0
   11.4227   13.9719   22.0039 C   0  0  0  0  0  0  0  0  0  0  0  0
   10.1523    9.1875   23.1196 N   0  0  0  0  0  0  0  0  0  0  0  0
    9.9860   11.4722   21.3960 O   0  0  0  0  0  0  0  0  0  0  0  0
   11.4725   12.7036   22.6650 O   0  0  0  0  0  0  0  0  0  0  0  0
    6.8043   12.5949   25.3306 H   0  0  0  0  0  0  0  0  0  0  0  0
    8.4772   12.6648   25.9154 H   0  0  0  0  0  0  0  0  0  0  0  0
    8.3269   10.3800   26.4895 H   0  0  0  0  0  0  0  0  0  0  0  0
    6.6520   10.3859   25.9063 H   0  0  0  0  0  0  0  0  0  0  0  0
    6.4296   10.9420   23.3525 H   0  0  0  0  0  0  0  0  0  0  0  0
    7.7838   10.5650   22.2550 H   0  0  0  0  0  0  0  0  0  0  0  0
   10.3383   12.1211   24.5486 H   0  0  0  0  0  0  0  0  0  0  0  0
    8.0840   12.9898   23.2463 H   0  0  0  0  0  0  0  0  0  0  0  0
    7.7616    8.8755   24.3045 H   0  0  0  0  0  0  0  0  0  0  0  0
   10.1679    9.8818   25.0790 H   0  0  0  0  0  0  0  0  0  0  0  0
    9.3944   13.6899   21.2737 H   0  0  0  0  0  0  0  0  0  0  0  0
    9.4815   14.4755   22.8666 H   0  0  0  0  0  0  0  0  0  0  0  0
    9.8784   15.3731   21.3852 H   0  0  0  0  0  0  0  0  0  0  0  0
   13.2567   14.6623   22.9445 H   0  0  0  0  0  0  0  0  0  0  0  0
   11.8104   15.0037   23.8775 H   0  0  0  0  0  0  0  0  0  0  0  0
   12.1733   15.9759   22.4343 H   0  0  0  0  0  0  0  0  0  0  0  0
   13.1101   13.5183   20.7084 H   0  0  0  0  0  0  0  0  0  0  0  0
   11.5334   13.0890   20.0103 H   0  0  0  0  0  0  0  0  0  0  0  0
   12.0630   14.7847   20.0917 H   0  0  0  0  0  0  0  0  0  0  0  0
    9.4016    8.6298   22.7873 H   0  0  0  0  0  0  0  0  0  0  0  0
   10.5316    9.7384   22.3865 H   0  0  0  0  0  0  0  0  0  0  0  0
  1  5  1  1  0  0  0
  1 14  2  0  0  0  0
  1 15  1  0  0  0  0
  2  3  1  0  0  0  0
  2  6  1  0  0  0  0
  3  7  1  0  0  0  0
  4  6  1  1  0  0  0
  4  7  1  1  0  0  0
  5  6  1  0  0  0  0
  5  8  1  0  0  0  0
  7  8  1  0  0  0  0
  8 13  1  1  0  0  0
  9 12  1  0  0  0  0
 10 12  1  0  0  0  0
 11 12  1  0  0  0  0
 12 15  1  0  0  0  0
  2 16  1  0  0  0  0
  2 17  1  0  0  0  0
  3 18  1  0  0  0  0
  3 19  1  0  0  0  0
  4 20  1  0  0  0  0
  4 21  1  0  0  0  0
  5 22  1  0  0  0  0
  6 23  1  0  0  0  0
  7 24  1  0  0  0  0
  8 25  1  0  0  0  0
  9 26  1  0  0  0  0
  9 27  1  0  0  0  0
  9 28  1  0  0  0  0
 10 29  1  0  0  0  0
 10 30  1  0  0  0  0
 10 31  1  0  0  0  0
 11 32  1  0  0  0  0
 11 33  1  0  0  0  0
 11 34  1  0  0  0  0
 13 35  1  0  0  0  0
 13 36  1  0  0  0  0
M  END
> <id>
EN300-44832701

> <smiles>
CC(C)(C)OC(=O)[C@@H]1[C@H](N)[C@H]2CC[C@@H]1C2

> <IUPAC Name>
tert-butyl (1R,2S,3R,4S)-3-aminobicyclo[2.2.1]heptane-2-carboxylate

> <URL>
https://www.enaminestore.com/catalog/EN300-44832701

> <ROCS_ShapeQuery>
x0812_0A_x1140_0A_x1097_0A_x0365_0A_x1097_0A_x0310_0A

> <ROCS_TanimotoCombo>
0.692 

> <ROCS_ShapeTanimoto>
0.246 

> <ROCS_ColorTanimoto>
0.446 

> <ROCS_RefTversky>
0.220 

> <ROCS_RefColorTversky>
0.527 

> <ROCS_RefTverskyCombo>
0.747 

> <ROCS_FitTversky>
1.920 

> <ROCS_FitColorTversky>
0.744 

> <ROCS_FitTverskyCombo>
2.664 

> <ROCS_ColorScore>
-7.850

> <ROCS_Overlap>
2222.182

> <ROCS_Rank>
499                 

$$$$
untitled-dbase-292232_5
  -OEChem-02092408543D

 36 37  0     1  0  0  0  0  0999 V2000
   10.3899   11.8982   22.4696 C   0  0  0  0  0  0  0  0  0  0  0  0
    7.7893   12.1194   25.2617 C   0  0  0  0  0  0  0  0  0  0  0  0
    7.6856   10.6344   25.6398 C   0  0  0  0  0  0  0  0  0  0  0  0
    7.5179   10.8399   23.2797 C   0  0  0  0  0  0  0  0  0  0  0  0
    9.7433   11.5967   23.7910 C   0  0  1  0  0  0  0  0  0  0  0  0
    8.2706   12.0675   23.8015 C   0  0  2  0  0  0  0  0  0  0  0  0
    8.1053    9.9122   24.3437 C   0  0  1  0  0  0  0  0  0  0  0  0
    9.6327   10.0887   24.1451 C   0  0  1  0  0  0  0  0  0  0  0  0
    9.9611   14.4013   21.8852 C   0  0  0  0  0  0  0  0  0  0  0  0
   12.2074   14.9665   22.8567 C   0  0  0  0  0  0  0  0  0  0  0  0
   12.0616   13.8263   20.6235 C   0  0  0  0  0  0  0  0  0  0  0  0
   11.4227   13.9719   22.0039 C   0  0  0  0  0  0  0  0  0  0  0  0
   10.1523    9.1875   23.1196 N   0  0  0  0  0  0  0  0  0  0  0  0
    9.9860   11.4722   21.3960 O   0  0  0  0  0  0  0  0  0  0  0  0
   11.4725   12.7036   22.6650 O   0  0  0  0  0  0  0  0  0  0  0  0
    6.8043   12.5949   25.3306 H   0  0  0  0  0  0  0  0  0  0  0  0
    8.4772   12.6648   25.9154 H   0  0  0  0  0  0  0  0  0  0  0  0
    8.3269   10.3800   26.4895 H   0  0  0  0  0  0  0  0  0  0  0  0
    6.6520   10.3859   25.9063 H   0  0  0  0  0  0  0  0  0  0  0  0
    6.4296   10.9420   23.3525 H   0  0  0  0  0  0  0  0  0  0  0  0
    7.7838   10.5650   22.2550 H   0  0  0  0  0  0  0  0  0  0  0  0
   10.3383   12.1211   24.5486 H   0  0  0  0  0  0  0  0  0  0  0  0
    8.0840   12.9898   23.2463 H   0  0  0  0  0  0  0  0  0  0  0  0
    7.7616    8.8755   24.3045 H   0  0  0  0  0  0  0  0  0  0  0  0
   10.1679    9.8818   25.0790 H   0  0  0  0  0  0  0  0  0  0  0  0
    9.3944   13.6899   21.2737 H   0  0  0  0  0  0  0  0  0  0  0  0
    9.4815   14.4755   22.8666 H   0  0  0  0  0  0  0  0  0  0  0  0
    9.8784   15.3731   21.3852 H   0  0  0  0  0  0  0  0  0  0  0  0
   13.2567   14.6623   22.9445 H   0  0  0  0  0  0  0  0  0  0  0  0
   11.8104   15.0037   23.8775 H   0  0  0  0  0  0  0  0  0  0  0  0
   12.1733   15.9759   22.4343 H   0  0  0  0  0  0  0  0  0  0  0  0
   13.1101   13.5183   20.7084 H   0  0  0  0  0  0  0  0  0  0  0  0
   11.5334   13.0890   20.0103 H   0  0  0  0  0  0  0  0  0  0  0  0
   12.0630   14.7847   20.0917 H   0  0  0  0  0  0  0  0  0  0  0  0
    9.4016    8.6298   22.7873 H   0  0  0  0  0  0  0  0  0  0  0  0
   10.5316    9.7384   22.3865 H   0  0  0  0  0  0  0  0  0  0  0  0
  1  5  1  1  0  0  0
  1 14  2  0  0  0  0
  1 15  1  0  0  0  0
  2  3  1  0  0  0  0
  2  6  1  0  0  0  0
  3  7  1  0  0  0  0
  4  6  1  1  0  0  0
  4  7  1  1  0  0  0
  5  6  1  0  0  0  0
  5  8  1  0  0  0  0
  7  8  1  0  0  0  0
  8 13  1  1  0  0  0
  9 12  1  0  0  0  0
 10 12  1  0  0  0  0
 11 12  1  0  0  0  0
 12 15  1  0  0  0  0
  2 16  1  0  0  0  0
  2 17  1  0  0  0  0
  3 18  1  0  0  0  0
  3 19  1  0  0  0  0
  4 20  1  0  0  0  0
  4 21  1  0  0  0  0
  5 22  1  0  0  0  0
  6 23  1  0  0  0  0
  7 24  1  0  0  0  0
  8 25  1  0  0  0  0
  9 26  1  0  0  0  0
  9 27  1  0  0  0  0
  9 28  1  0  0  0  0
 10 29  1  0  0  0  0
 10 30  1  0  0  0  0
 10 31  1  0  0  0  0
 11 32  1  0  0  0  0
 11 33  1  0  0  0  0
 11 34  1  0  0  0  0
 13 35  1  0  0  0  0
 13 36  1  0  0  0  0
M  END
> <id>
EN300-6508642

> <smiles>
CC(C)(C)OC(=O)[C@@H]1[C@H](N)[C@H]2CC[C@@H]1C2 |&1:7,8,10,13,r|

> <IUPAC Name>
rac-tert-butyl (1R,2S,3R,4S)-3-aminobicyclo[2.2.1]heptane-2-carboxylate

> <CAS>
2248322-61-2

> <URL>
https://www.enaminestore.com/catalog/EN300-6508642

> <ROCS_ShapeQuery>
x0812_0A_x1140_0A_x1097_0A_x0365_0A_x1097_0A_x0310_0A

> <ROCS_TanimotoCombo>
0.692 

> <ROCS_ShapeTanimoto>
0.246 

> <ROCS_ColorTanimoto>
0.446 

> <ROCS_RefTversky>
0.220 

> <ROCS_RefColorTversky>
0.527 

> <ROCS_RefTverskyCombo>
0.747 

> <ROCS_FitTversky>
1.920 

> <ROCS_FitColorTversky>
0.744 

> <ROCS_FitTverskyCombo>
2.664 

> <ROCS_ColorScore>
-7.850

> <ROCS_Overlap>
2222.182

> <ROCS_Rank>
500                 

$$$$
