untitled-dbase-1782_8
  -OEChem-02082415043D

 32 34  0     1  0  0  0  0  0999 V2000
    7.3273   10.5742   24.7252 C   0  0  0  0  0  0  0  0  0  0  0  0
    9.1043    9.6631   23.2038 C   0  0  0  0  0  0  0  0  0  0  0  0
    9.7309   11.1999   25.0919 C   0  0  0  0  0  0  0  0  0  0  0  0
    7.5154   11.3588   22.3479 C   0  0  0  0  0  0  0  0  0  0  0  0
    8.1431   12.8984   24.2396 C   0  0  0  0  0  0  0  0  0  0  0  0
    7.6500   10.1470   23.2807 C   0  0  2  0  0  0  0  0  0  0  0  0
    8.2810   11.6946   25.1823 C   0  0  1  0  0  0  0  0  0  0  0  0
   10.0293   10.8021   23.6433 C   0  0  0  0  0  0  0  0  0  0  0  0
    8.4907   12.4592   22.8052 C   0  0  0  0  0  0  0  0  0  0  0  0
    8.4441   13.6501   21.8513 C   0  0  0  0  0  0  0  0  0  0  0  0
   10.9840   13.7318   21.0811 N   0  0  0  0  0  0  0  0  0  0  0  0
    9.6454   15.9132   21.3389 O   0  0  0  0  0  0  0  0  0  0  0  0
   10.3128   14.6154   23.4018 O   0  0  0  0  0  0  0  0  0  0  0  0
    9.8364   11.9387   22.7824 O   0  0  0  0  0  0  0  0  0  0  0  0
    9.8844   14.6457   22.0118 S   0  0  0  0  0  0  0  0  0  0  0  0
    6.2888   10.9219   24.7869 H   0  0  0  0  0  0  0  0  0  0  0  0
    7.4169    9.7119   25.3974 H   0  0  0  0  0  0  0  0  0  0  0  0
    9.2502    8.7812   23.8383 H   0  0  0  0  0  0  0  0  0  0  0  0
    9.3376    9.3728   22.1722 H   0  0  0  0  0  0  0  0  0  0  0  0
   10.4099   12.0028   25.4035 H   0  0  0  0  0  0  0  0  0  0  0  0
    9.8899   10.3501   25.7658 H   0  0  0  0  0  0  0  0  0  0  0  0
    7.7508   11.0479   21.3220 H   0  0  0  0  0  0  0  0  0  0  0  0
    6.4826   11.7280   22.3501 H   0  0  0  0  0  0  0  0  0  0  0  0
    7.1252   13.3043   24.2870 H   0  0  0  0  0  0  0  0  0  0  0  0
    8.8281   13.6903   24.5688 H   0  0  0  0  0  0  0  0  0  0  0  0
    6.9692    9.3495   22.9642 H   0  0  0  0  0  0  0  0  0  0  0  0
    8.0463   11.9912   26.2102 H   0  0  0  0  0  0  0  0  0  0  0  0
   11.0747   10.4903   23.5502 H   0  0  0  0  0  0  0  0  0  0  0  0
    7.5817   14.2766   22.0719 H   0  0  0  0  0  0  0  0  0  0  0  0
    8.3922   13.3057   20.8202 H   0  0  0  0  0  0  0  0  0  0  0  0
   11.3065   12.8360   21.4671 H   0  0  0  0  0  0  0  0  0  0  0  0
   10.8519   13.7201   20.0622 H   0  0  0  0  0  0  0  0  0  0  0  0
  1  6  1  0  0  0  0
  1  7  1  0  0  0  0
  2  6  1  0  0  0  0
  2  8  1  0  0  0  0
  3  7  1  0  0  0  0
  3  8  1  0  0  0  0
  4  6  1  0  0  0  0
  4  9  1  0  0  0  0
  5  7  1  0  0  0  0
  5  9  1  0  0  0  0
  8 14  1  0  0  0  0
  9 10  1  0  0  0  0
  9 14  1  0  0  0  0
 10 15  1  0  0  0  0
 11 15  1  0  0  0  0
 12 15  2  0  0  0  0
 13 15  2  0  0  0  0
  1 16  1  0  0  0  0
  1 17  1  0  0  0  0
  2 18  1  0  0  0  0
  2 19  1  0  0  0  0
  3 20  1  0  0  0  0
  3 21  1  0  0  0  0
  4 22  1  0  0  0  0
  4 23  1  0  0  0  0
  5 24  1  0  0  0  0
  5 25  1  0  0  0  0
  6 26  1  0  0  0  0
  7 27  1  0  0  0  0
  8 28  1  0  0  0  0
 10 29  1  0  0  0  0
 10 30  1  0  0  0  0
 11 31  1  0  0  0  0
 11 32  1  0  0  0  0
M  END
> <Mol Weight>
231,31

> <Formula>
C10H17NO3S

> <ID>
EN300-6729883

> <name>
Sulfonamides

> <LogP>
-0,02

> <ROCS_ShapeQuery>
x0446_0A_x1080_0A_x0929_0A_x0812_0A_x0719_0A_x1140_0A_x0528_0A_x0310_0A

> <ROCS_TanimotoCombo>
0.432 

> <ROCS_ShapeTanimoto>
0.209 

> <ROCS_ColorTanimoto>
0.223 

> <ROCS_RefTversky>
0.191 

> <ROCS_RefColorTversky>
0.243 

> <ROCS_RefTverskyCombo>
0.434 

> <ROCS_FitTversky>
1.809 

> <ROCS_FitColorTversky>
0.732 

> <ROCS_FitTverskyCombo>
2.540 

> <ROCS_ColorScore>
-8.713

> <ROCS_Overlap>
2254.759

> <ROCS_Rank>
1                   

$$$$
untitled-dbase-1736_5
  -OEChem-02082415043D

 34 36  0     0  0  0  0  0  0999 V2000
    7.3664   10.5465   24.4834 C   0  0  0  0  0  0  0  0  0  0  0  0
    9.6391   11.4023   25.1007 C   0  0  0  0  0  0  0  0  0  0  0  0
    7.8431   13.0042   24.3786 C   0  0  0  0  0  0  0  0  0  0  0  0
    9.3278   10.1005   22.9876 C   0  0  0  0  0  0  0  0  0  0  0  0
    7.5316   11.7026   22.2654 C   0  0  0  0  0  0  0  0  0  0  0  0
    8.1315   11.7040   25.1482 C   0  0  0  0  0  0  0  0  0  0  0  0
    7.8165   10.3919   23.0208 C   0  0  0  0  0  0  0  0  0  0  0  0
   10.1078   11.2612   23.6395 C   0  0  0  0  0  0  0  0  0  0  0  0
    8.3046   12.8695   22.9145 C   0  0  0  0  0  0  0  0  0  0  0  0
    9.8193   12.5548   22.8378 C   0  0  0  0  0  0  0  0  0  0  0  0
   10.6914   13.7319   23.2801 C   0  0  0  0  0  0  0  0  0  0  0  0
   11.4604   14.0471   20.7582 N   0  0  0  0  0  0  0  0  0  0  0  0
    9.4168   15.3288   21.6514 O   0  0  0  0  0  0  0  0  0  0  0  0
   11.7293   15.9770   22.4375 O   0  0  0  0  0  0  0  0  0  0  0  0
   10.7737   14.9595   22.0260 S   0  0  0  0  0  0  0  0  0  0  0  0
    7.5464    9.6137   25.0318 H   0  0  0  0  0  0  0  0  0  0  0  0
    6.2869   10.7370   24.5254 H   0  0  0  0  0  0  0  0  0  0  0  0
   10.1979   12.1933   25.6127 H   0  0  0  0  0  0  0  0  0  0  0  0
    9.8485   10.4739   25.6473 H   0  0  0  0  0  0  0  0  0  0  0  0
    6.7678   13.2217   24.4087 H   0  0  0  0  0  0  0  0  0  0  0  0
    8.3415   13.8492   24.8663 H   0  0  0  0  0  0  0  0  0  0  0  0
    9.5398    9.1632   23.5168 H   0  0  0  0  0  0  0  0  0  0  0  0
    9.6595    9.9612   21.9513 H   0  0  0  0  0  0  0  0  0  0  0  0
    7.8231   11.5991   21.2130 H   0  0  0  0  0  0  0  0  0  0  0  0
    6.4552   11.9144   22.2766 H   0  0  0  0  0  0  0  0  0  0  0  0
    7.8070   11.8096   26.1895 H   0  0  0  0  0  0  0  0  0  0  0  0
    7.2701    9.5671   22.5503 H   0  0  0  0  0  0  0  0  0  0  0  0
   11.1802   11.0350   23.6161 H   0  0  0  0  0  0  0  0  0  0  0  0
    8.0847   13.7960   22.3715 H   0  0  0  0  0  0  0  0  0  0  0  0
   10.0760   12.3679   21.7852 H   0  0  0  0  0  0  0  0  0  0  0  0
   11.7042   13.3915   23.4812 H   0  0  0  0  0  0  0  0  0  0  0  0
   10.2729   14.1924   24.1715 H   0  0  0  0  0  0  0  0  0  0  0  0
   10.8577   13.8099   19.9606 H   0  0  0  0  0  0  0  0  0  0  0  0
   12.4326   14.2512   20.4961 H   0  0  0  0  0  0  0  0  0  0  0  0
  1  6  1  0  0  0  0
  1  7  1  0  0  0  0
  2  6  1  0  0  0  0
  2  8  1  0  0  0  0
  3  6  1  0  0  0  0
  3  9  1  0  0  0  0
  4  7  1  0  0  0  0
  4  8  1  0  0  0  0
  5  7  1  0  0  0  0
  5  9  1  0  0  0  0
  8 10  1  0  0  0  0
  9 10  1  0  0  0  0
 10 11  1  0  0  0  0
 11 15  1  0  0  0  0
 12 15  1  0  0  0  0
 13 15  2  0  0  0  0
 14 15  2  0  0  0  0
  1 16  1  0  0  0  0
  1 17  1  0  0  0  0
  2 18  1  0  0  0  0
  2 19  1  0  0  0  0
  3 20  1  0  0  0  0
  3 21  1  0  0  0  0
  4 22  1  0  0  0  0
  4 23  1  0  0  0  0
  5 24  1  0  0  0  0
  5 25  1  0  0  0  0
  6 26  1  0  0  0  0
  7 27  1  0  0  0  0
  8 28  1  0  0  0  0
  9 29  1  0  0  0  0
 10 30  1  0  0  0  0
 11 31  1  0  0  0  0
 11 32  1  0  0  0  0
 12 33  1  0  0  0  0
 12 34  1  0  0  0  0
M  END
> <Mol Weight>
229,34

> <Formula>
C11H19NO2S

> <ID>
EN300-283841

> <name>
Sulfonamides

> <LogP>
0,95

> <ROCS_ShapeQuery>
x0446_0A_x1080_0A_x0929_0A_x0812_0A_x0719_0A_x1140_0A_x0528_0A_x0310_0A

> <ROCS_TanimotoCombo>
0.428 

> <ROCS_ShapeTanimoto>
0.215 

> <ROCS_ColorTanimoto>
0.212 

> <ROCS_RefTversky>
0.196 

> <ROCS_RefColorTversky>
0.228 

> <ROCS_RefTverskyCombo>
0.424 

> <ROCS_FitTversky>
1.876 

> <ROCS_FitColorTversky>
0.753 

> <ROCS_FitTverskyCombo>
2.629 

> <ROCS_ColorScore>
-8.176

> <ROCS_Overlap>
2306.248

> <ROCS_Rank>
2                   

$$$$
untitled-dbase-1735_3
  -OEChem-02082415043D

 34 36  0     0  0  0  0  0  0999 V2000
    7.2170   10.6346   24.6788 C   0  0  0  0  0  0  0  0  0  0  0  0
    9.6234   11.1386   25.1717 C   0  0  0  0  0  0  0  0  0  0  0  0
    9.0252    9.6122   23.2743 C   0  0  0  0  0  0  0  0  0  0  0  0
    8.1410   12.9187   24.2108 C   0  0  0  0  0  0  0  0  0  0  0  0
    7.5414   11.3890   22.3092 C   0  0  0  0  0  0  0  0  0  0  0  0
    9.9532   11.8938   22.8029 C   0  0  0  0  0  0  0  0  0  0  0  0
    8.1975   11.7141   25.1665 C   0  0  0  0  0  0  0  0  0  0  0  0
    7.5963   10.1802   23.2596 C   0  0  0  0  0  0  0  0  0  0  0  0
   10.0148   10.6865   23.7550 C   0  0  0  0  0  0  0  0  0  0  0  0
    8.5251   12.4883   22.7753 C   0  0  0  0  0  0  0  0  0  0  0  0
    8.4677   13.6891   21.8274 C   0  0  0  0  0  0  0  0  0  0  0  0
   11.0020   13.7785   21.0398 N   0  0  0  0  0  0  0  0  0  0  0  0
    9.6640   15.9569   21.3245 O   0  0  0  0  0  0  0  0  0  0  0  0
   10.3468   14.6431   23.3722 O   0  0  0  0  0  0  0  0  0  0  0  0
    9.9072   14.6834   21.9855 S   0  0  0  0  0  0  0  0  0  0  0  0
    7.2332    9.7775   25.3632 H   0  0  0  0  0  0  0  0  0  0  0  0
    6.1929   11.0278   24.6854 H   0  0  0  0  0  0  0  0  0  0  0  0
   10.3314   11.8946   25.5329 H   0  0  0  0  0  0  0  0  0  0  0  0
    9.6823   10.2904   25.8649 H   0  0  0  0  0  0  0  0  0  0  0  0
    9.0733    8.7370   23.9338 H   0  0  0  0  0  0  0  0  0  0  0  0
    9.3028    9.2696   22.2699 H   0  0  0  0  0  0  0  0  0  0  0  0
    7.1315   13.3495   24.2206 H   0  0  0  0  0  0  0  0  0  0  0  0
    8.8214   13.7032   24.5666 H   0  0  0  0  0  0  0  0  0  0  0  0
    7.7878   11.0669   21.2892 H   0  0  0  0  0  0  0  0  0  0  0  0
    6.5181   11.7848   22.2756 H   0  0  0  0  0  0  0  0  0  0  0  0
   10.6750   12.6551   23.1263 H   0  0  0  0  0  0  0  0  0  0  0  0
   10.2543   11.5830   21.7943 H   0  0  0  0  0  0  0  0  0  0  0  0
    7.9235   12.0324   26.1786 H   0  0  0  0  0  0  0  0  0  0  0  0
    6.8958    9.4099   22.9183 H   0  0  0  0  0  0  0  0  0  0  0  0
   11.0305   10.2757   23.7653 H   0  0  0  0  0  0  0  0  0  0  0  0
    7.6060   14.3086   22.0623 H   0  0  0  0  0  0  0  0  0  0  0  0
    8.4081   13.3482   20.7971 H   0  0  0  0  0  0  0  0  0  0  0  0
   11.2882   14.1715   20.1347 H   0  0  0  0  0  0  0  0  0  0  0  0
   11.7531   13.2766   21.5293 H   0  0  0  0  0  0  0  0  0  0  0  0
  1  7  1  0  0  0  0
  1  8  1  0  0  0  0
  2  7  1  0  0  0  0
  2  9  1  0  0  0  0
  3  8  1  0  0  0  0
  3  9  1  0  0  0  0
  4  7  1  0  0  0  0
  4 10  1  0  0  0  0
  5  8  1  0  0  0  0
  5 10  1  0  0  0  0
  6  9  1  0  0  0  0
  6 10  1  0  0  0  0
 10 11  1  0  0  0  0
 11 15  1  0  0  0  0
 12 15  1  0  0  0  0
 13 15  2  0  0  0  0
 14 15  2  0  0  0  0
  1 16  1  0  0  0  0
  1 17  1  0  0  0  0
  2 18  1  0  0  0  0
  2 19  1  0  0  0  0
  3 20  1  0  0  0  0
  3 21  1  0  0  0  0
  4 22  1  0  0  0  0
  4 23  1  0  0  0  0
  5 24  1  0  0  0  0
  5 25  1  0  0  0  0
  6 26  1  0  0  0  0
  6 27  1  0  0  0  0
  7 28  1  0  0  0  0
  8 29  1  0  0  0  0
  9 30  1  0  0  0  0
 11 31  1  0  0  0  0
 11 32  1  0  0  0  0
 12 33  1  0  0  0  0
 12 34  1  0  0  0  0
M  END
> <Mol Weight>
229,34

> <Formula>
C11H19NO2S

> <ID>
EN300-281490

> <name>
Sulfonamides

> <LogP>
1,04

> <ROCS_ShapeQuery>
x0446_0A_x1080_0A_x0929_0A_x0812_0A_x0719_0A_x1140_0A_x0528_0A_x0310_0A

> <ROCS_TanimotoCombo>
0.419 

> <ROCS_ShapeTanimoto>
0.206 

> <ROCS_ColorTanimoto>
0.214 

> <ROCS_RefTversky>
0.188 

> <ROCS_RefColorTversky>
0.230 

> <ROCS_RefTverskyCombo>
0.418 

> <ROCS_FitTversky>
1.799 

> <ROCS_FitColorTversky>
0.757 

> <ROCS_FitTverskyCombo>
2.556 

> <ROCS_ColorScore>
-8.221

> <ROCS_Overlap>
2222.281

> <ROCS_Rank>
3                   

$$$$
untitled-dbase-299_3
  -OEChem-02082415043D

 22 24  0     1  0  0  0  0  0999 V2000
    7.4990   10.7843   23.7220 C   0  0  0  0  0  0  0  0  0  0  0  0
    8.9326   12.2048   25.0372 C   0  0  0  0  0  0  0  0  0  0  0  0
    7.9377   12.2836   23.8315 C   0  0  0  0  0  0  0  0  0  0  0  0
    8.9056   10.2264   23.6415 C   0  0  2  0  0  0  0  0  0  0  0  0
    9.7924   11.1098   24.4499 C   0  0  1  0  0  0  0  0  0  0  0  0
    9.7676   11.2411   22.9604 C   0  0  0  0  0  0  0  0  0  0  0  0
    8.8674   12.3903   22.5868 C   0  0  2  0  0  0  0  0  0  0  0  0
   11.0624   13.2666   21.3765 N   0  0  0  0  0  0  0  0  0  0  0  0
    9.1075   14.8776   21.8236 O   0  0  0  0  0  0  0  0  0  0  0  0
   10.5049   14.0538   23.7612 O   0  0  0  0  0  0  0  0  0  0  0  0
    9.8694   13.8143   22.4699 S   0  0  0  0  0  0  0  0  0  0  0  0
    6.9649   10.4344   24.6103 H   0  0  0  0  0  0  0  0  0  0  0  0
    6.9199   10.5782   22.8170 H   0  0  0  0  0  0  0  0  0  0  0  0
    9.4840   13.1319   25.2084 H   0  0  0  0  0  0  0  0  0  0  0  0
    8.4408   11.8878   25.9621 H   0  0  0  0  0  0  0  0  0  0  0  0
    7.1396   13.0208   23.9165 H   0  0  0  0  0  0  0  0  0  0  0  0
    9.0612    9.1700   23.5493 H   0  0  0  0  0  0  0  0  0  0  0  0
   10.6426   10.7449   24.9909 H   0  0  0  0  0  0  0  0  0  0  0  0
   10.5791   10.9511   22.3217 H   0  0  0  0  0  0  0  0  0  0  0  0
    8.3441   12.2350   21.6394 H   0  0  0  0  0  0  0  0  0  0  0  0
   11.7338   12.5675   21.7172 H   0  0  0  0  0  0  0  0  0  0  0  0
   10.7820   13.1288   20.3977 H   0  0  0  0  0  0  0  0  0  0  0  0
  1  3  1  0  0  0  0
  1  4  1  0  0  0  0
  2  3  1  0  0  0  0
  2  5  1  0  0  0  0
  3  7  1  0  0  0  0
  4  5  1  0  0  0  0
  4  6  1  0  0  0  0
  5  6  1  0  0  0  0
  6  7  1  0  0  0  0
  7 11  1  0  0  0  0
  8 11  1  0  0  0  0
  9 11  2  0  0  0  0
 10 11  2  0  0  0  0
  1 12  1  0  0  0  0
  1 13  1  0  0  0  0
  2 14  1  0  0  0  0
  2 15  1  0  0  0  0
  3 16  1  0  0  0  0
  4 17  1  0  0  0  0
  5 18  1  0  0  0  0
  6 19  1  0  0  0  0
  7 20  1  0  0  0  0
  8 21  1  0  0  0  0
  8 22  1  0  0  0  0
M  END
> <Mol Weight>
173,23

> <Formula>
C7H11NO2S

> <ID>
EN300-6861220

> <name>
Sulfonamides

> <LogP>
-0,39

> <ROCS_ShapeQuery>
x0446_0A_x1080_0A_x0929_0A_x0812_0A_x0719_0A_x1140_0A_x0528_0A_x0310_0A

> <ROCS_TanimotoCombo>
0.406 

> <ROCS_ShapeTanimoto>
0.177 

> <ROCS_ColorTanimoto>
0.228 

> <ROCS_RefTversky>
0.164 

> <ROCS_RefColorTversky>
0.344 

> <ROCS_RefTverskyCombo>
0.508 

> <ROCS_FitTversky>
1.796 

> <ROCS_FitColorTversky>
0.405 

> <ROCS_FitTverskyCombo>
2.201 

> <ROCS_ColorScore>
-12.689

> <ROCS_Overlap>
1937.742

> <ROCS_Rank>
4                   

$$$$
untitled-dbase-1551_10
  -OEChem-02082415043D

 24 25  0     0  0  0  0  0  0999 V2000
    5.5998   12.2850   25.1508 C   0  0  0  0  0  0  0  0  0  0  0  0
    6.1765   13.4712   24.7221 C   0  0  0  0  0  0  0  0  0  0  0  0
    6.2948   11.0869   24.9951 C   0  0  0  0  0  0  0  0  0  0  0  0
    9.4316    9.9115   23.7103 C   0  0  0  0  0  0  0  0  0  0  0  0
   10.0010   11.0828   23.2867 C   0  0  0  0  0  0  0  0  0  0  0  0
    7.4432   13.4491   24.1410 C   0  0  0  0  0  0  0  0  0  0  0  0
    7.5611   11.0539   24.4157 C   0  0  0  0  0  0  0  0  0  0  0  0
    8.1461   12.2573   23.9807 C   0  0  0  0  0  0  0  0  0  0  0  0
    8.0386   14.7465   23.6901 C   0  0  0  0  0  0  0  0  0  0  0  0
    8.2116    9.8855   24.2764 N   0  0  0  0  0  0  0  0  0  0  0  0
    9.3668   12.2619   23.4171 N   0  0  0  0  0  0  0  0  0  0  0  0
    6.3355   15.2441   21.7145 N   0  0  0  0  0  0  0  0  0  0  0  0
    8.8183   15.8682   21.4627 O   0  0  0  0  0  0  0  0  0  0  0  0
    8.1412   13.4338   21.4330 O   0  0  0  0  0  0  0  0  0  0  0  0
    7.9647   14.7883   21.9301 S   0  0  0  0  0  0  0  0  0  0  0  0
    4.6136   12.2877   25.6051 H   0  0  0  0  0  0  0  0  0  0  0  0
    5.6364   14.4062   24.8432 H   0  0  0  0  0  0  0  0  0  0  0  0
    5.8303   10.1638   25.3365 H   0  0  0  0  0  0  0  0  0  0  0  0
    9.9334    8.9573   23.6103 H   0  0  0  0  0  0  0  0  0  0  0  0
   10.9822   11.1151   22.8304 H   0  0  0  0  0  0  0  0  0  0  0  0
    9.0863   14.8433   23.9892 H   0  0  0  0  0  0  0  0  0  0  0  0
    7.4847   15.6079   24.0745 H   0  0  0  0  0  0  0  0  0  0  0  0
    5.6117   14.5496   21.9364 H   0  0  0  0  0  0  0  0  0  0  0  0
    6.0730   16.2075   21.9565 H   0  0  0  0  0  0  0  0  0  0  0  0
  1  2  2  0  0  0  0
  1  3  1  0  0  0  0
  2  6  1  0  0  0  0
  3  7  2  0  0  0  0
  4  5  1  0  0  0  0
  4 10  2  0  0  0  0
  5 11  2  0  0  0  0
  6  8  2  0  0  0  0
  6  9  1  0  0  0  0
  7  8  1  0  0  0  0
  7 10  1  0  0  0  0
  8 11  1  0  0  0  0
  9 15  1  0  0  0  0
 12 15  1  0  0  0  0
 13 15  2  0  0  0  0
 14 15  2  0  0  0  0
  1 16  1  0  0  0  0
  2 17  1  0  0  0  0
  3 18  1  0  0  0  0
  4 19  1  0  0  0  0
  5 20  1  0  0  0  0
  9 21  1  0  0  0  0
  9 22  1  0  0  0  0
 12 23  1  0  0  0  0
 12 24  1  0  0  0  0
M  END
> <Mol Weight>
223,25

> <Formula>
C9H9N3O2S

> <ID>
EN300-263007

> <name>
Sulfonamides

> <LogP>
-0,33

> <ROCS_ShapeQuery>
x0446_0A_x1080_0A_x0929_0A_x0812_0A_x0719_0A_x1140_0A_x0528_0A_x0310_0A

> <ROCS_TanimotoCombo>
0.405 

> <ROCS_ShapeTanimoto>
0.210 

> <ROCS_ColorTanimoto>
0.195 

> <ROCS_RefTversky>
0.192 

> <ROCS_RefColorTversky>
0.202 

> <ROCS_RefTverskyCombo>
0.394 

> <ROCS_FitTversky>
1.813 

> <ROCS_FitColorTversky>
0.846 

> <ROCS_FitTverskyCombo>
2.659 

> <ROCS_ColorScore>
-7.209

> <ROCS_Overlap>
2268.312

> <ROCS_Rank>
5                   

$$$$
untitled-dbase-1353_2
  -OEChem-02082415043D

 31 33  0     0  0  0  0  0  0999 V2000
    9.2060   10.7059   24.9976 C   0  0  0  0  0  0  0  0  0  0  0  0
    8.6295    9.9909   22.6637 C   0  0  0  0  0  0  0  0  0  0  0  0
    7.0121   11.3792   23.9856 C   0  0  0  0  0  0  0  0  0  0  0  0
   10.4167   11.7084   23.0437 C   0  0  0  0  0  0  0  0  0  0  0  0
    8.7973   13.0984   24.3672 C   0  0  0  0  0  0  0  0  0  0  0  0
    8.2200   12.3825   22.0304 C   0  0  0  0  0  0  0  0  0  0  0  0
    9.7739   10.4243   23.5959 C   0  0  0  0  0  0  0  0  0  0  0  0
    8.1478   11.8202   24.9249 C   0  0  0  0  0  0  0  0  0  0  0  0
    7.5681   11.1013   22.5784 C   0  0  0  0  0  0  0  0  0  0  0  0
    9.3663   12.8346   22.9581 C   0  0  0  0  0  0  0  0  0  0  0  0
   11.1134   13.6287   21.1228 N   0  0  0  0  0  0  0  0  0  0  0  0
    9.0750   15.0952   21.6805 O   0  0  0  0  0  0  0  0  0  0  0  0
   10.9450   14.8765   23.3660 O   0  0  0  0  0  0  0  0  0  0  0  0
   10.1152   14.3151   22.3195 S   0  0  0  0  0  0  0  0  0  0  0  0
    8.7602    9.7929   25.4113 H   0  0  0  0  0  0  0  0  0  0  0  0
   10.0149   11.0015   25.6770 H   0  0  0  0  0  0  0  0  0  0  0  0
    9.0234    9.7723   21.6637 H   0  0  0  0  0  0  0  0  0  0  0  0
    8.1734    9.0654   23.0361 H   0  0  0  0  0  0  0  0  0  0  0  0
    6.5276   10.4781   24.3814 H   0  0  0  0  0  0  0  0  0  0  0  0
    6.2423   12.1592   23.9369 H   0  0  0  0  0  0  0  0  0  0  0  0
   11.2515   12.0134   23.6880 H   0  0  0  0  0  0  0  0  0  0  0  0
   10.8476   11.5125   22.0531 H   0  0  0  0  0  0  0  0  0  0  0  0
    8.0568   13.9080   24.3338 H   0  0  0  0  0  0  0  0  0  0  0  0
    9.5938   13.4363   25.0428 H   0  0  0  0  0  0  0  0  0  0  0  0
    8.5989   12.2027   21.0159 H   0  0  0  0  0  0  0  0  0  0  0  0
    7.4660   13.1753   21.9420 H   0  0  0  0  0  0  0  0  0  0  0  0
   10.5258    9.6294   23.6536 H   0  0  0  0  0  0  0  0  0  0  0  0
    7.7461   12.0153   25.9254 H   0  0  0  0  0  0  0  0  0  0  0  0
    6.7552   10.7866   21.9146 H   0  0  0  0  0  0  0  0  0  0  0  0
   11.9360   13.0959   21.4310 H   0  0  0  0  0  0  0  0  0  0  0  0
   10.6624   13.2451   20.2832 H   0  0  0  0  0  0  0  0  0  0  0  0
  1  7  1  0  0  0  0
  1  8  1  0  0  0  0
  2  7  1  0  0  0  0
  2  9  1  0  0  0  0
  3  8  1  0  0  0  0
  3  9  1  0  0  0  0
  4  7  1  0  0  0  0
  4 10  1  0  0  0  0
  5  8  1  0  0  0  0
  5 10  1  0  0  0  0
  6  9  1  0  0  0  0
  6 10  1  0  0  0  0
 10 14  1  0  0  0  0
 11 14  1  0  0  0  0
 12 14  2  0  0  0  0
 13 14  2  0  0  0  0
  1 15  1  0  0  0  0
  1 16  1  0  0  0  0
  2 17  1  0  0  0  0
  2 18  1  0  0  0  0
  3 19  1  0  0  0  0
  3 20  1  0  0  0  0
  4 21  1  0  0  0  0
  4 22  1  0  0  0  0
  5 23  1  0  0  0  0
  5 24  1  0  0  0  0
  6 25  1  0  0  0  0
  6 26  1  0  0  0  0
  7 27  1  0  0  0  0
  8 28  1  0  0  0  0
  9 29  1  0  0  0  0
 11 30  1  0  0  0  0
 11 31  1  0  0  0  0
M  END
> <Mol Weight>
215,31

> <Formula>
C10H17NO2S

> <ID>
EN300-1618325

> <name>
Sulfonamides

> <LogP>
1,01

> <ROCS_ShapeQuery>
x0446_0A_x1080_0A_x0929_0A_x0812_0A_x0719_0A_x1140_0A_x0528_0A_x0310_0A

> <ROCS_TanimotoCombo>
0.405 

> <ROCS_ShapeTanimoto>
0.203 

> <ROCS_ColorTanimoto>
0.201 

> <ROCS_RefTversky>
0.186 

> <ROCS_RefColorTversky>
0.218 

> <ROCS_RefTverskyCombo>
0.404 

> <ROCS_FitTversky>
1.834 

> <ROCS_FitColorTversky>
0.720 

> <ROCS_FitTverskyCombo>
2.554 

> <ROCS_ColorScore>
-7.820

> <ROCS_Overlap>
2194.717

> <ROCS_Rank>
6                   

$$$$
untitled-dbase-1711_23
  -OEChem-02082415043D

 26 27  0     0  0  0  0  0  0999 V2000
    5.6133   12.2620   25.1545 C   0  0  0  0  0  0  0  0  0  0  0  0
    6.1826   13.4582   24.7168 C   0  0  0  0  0  0  0  0  0  0  0  0
    6.3061   11.0605   25.0030 C   0  0  0  0  0  0  0  0  0  0  0  0
    7.4510   13.4582   24.1358 C   0  0  0  0  0  0  0  0  0  0  0  0
    7.5690   11.0578   24.4100 C   0  0  0  0  0  0  0  0  0  0  0  0
    8.1503   12.2590   23.9963 C   0  0  0  0  0  0  0  0  0  0  0  0
    9.2919    9.9114   23.3596 C   0  0  0  0  0  0  0  0  0  0  0  0
   10.1477   11.1268   23.6584 C   0  0  0  0  0  0  0  0  0  0  0  0
    8.0416   14.7538   23.6842 C   0  0  0  0  0  0  0  0  0  0  0  0
    6.3428   15.2445   21.7032 N   0  0  0  0  0  0  0  0  0  0  0  0
    8.8242   15.8768   21.4586 O   0  0  0  0  0  0  0  0  0  0  0  0
    8.1555   13.4401   21.4284 O   0  0  0  0  0  0  0  0  0  0  0  0
    8.1910    9.8446   24.2704 O   0  0  0  0  0  0  0  0  0  0  0  0
    9.3999   12.3258   23.4375 O   0  0  0  0  0  0  0  0  0  0  0  0
    7.9729   14.7943   21.9230 S   0  0  0  0  0  0  0  0  0  0  0  0
    4.6272   12.2652   25.6098 H   0  0  0  0  0  0  0  0  0  0  0  0
    5.6301   14.3865   24.8370 H   0  0  0  0  0  0  0  0  0  0  0  0
    5.8505   10.1325   25.3377 H   0  0  0  0  0  0  0  0  0  0  0  0
    8.8986    9.9357   22.3358 H   0  0  0  0  0  0  0  0  0  0  0  0
    9.8784    8.9951   23.4789 H   0  0  0  0  0  0  0  0  0  0  0  0
   10.5064   11.1236   24.6952 H   0  0  0  0  0  0  0  0  0  0  0  0
   11.0187   11.1509   22.9959 H   0  0  0  0  0  0  0  0  0  0  0  0
    9.0896   14.8577   23.9846 H   0  0  0  0  0  0  0  0  0  0  0  0
    7.4852   15.6170   24.0645 H   0  0  0  0  0  0  0  0  0  0  0  0
    6.1513   16.1937   21.3598 H   0  0  0  0  0  0  0  0  0  0  0  0
    5.6959   14.5341   21.3394 H   0  0  0  0  0  0  0  0  0  0  0  0
  1  2  2  0  0  0  0
  1  3  1  0  0  0  0
  2  4  1  0  0  0  0
  3  5  2  0  0  0  0
  4  6  2  0  0  0  0
  4  9  1  0  0  0  0
  5  6  1  0  0  0  0
  5 13  1  0  0  0  0
  6 14  1  0  0  0  0
  7  8  1  0  0  0  0
  7 13  1  0  0  0  0
  8 14  1  0  0  0  0
  9 15  1  0  0  0  0
 10 15  1  0  0  0  0
 11 15  2  0  0  0  0
 12 15  2  0  0  0  0
  1 16  1  0  0  0  0
  2 17  1  0  0  0  0
  3 18  1  0  0  0  0
  7 19  1  0  0  0  0
  7 20  1  0  0  0  0
  8 21  1  0  0  0  0
  8 22  1  0  0  0  0
  9 23  1  0  0  0  0
  9 24  1  0  0  0  0
 10 25  1  0  0  0  0
 10 26  1  0  0  0  0
M  END
> <Mol Weight>
229,25

> <Formula>
C9H11NO4S

> <ID>
EN300-219365

> <name>
Sulfonamides

> <LogP>
-0,15

> <ROCS_ShapeQuery>
x0446_0A_x1080_0A_x0929_0A_x0812_0A_x0719_0A_x1140_0A_x0528_0A_x0310_0A

> <ROCS_TanimotoCombo>
0.404 

> <ROCS_ShapeTanimoto>
0.209 

> <ROCS_ColorTanimoto>
0.196 

> <ROCS_RefTversky>
0.191 

> <ROCS_RefColorTversky>
0.203 

> <ROCS_RefTverskyCombo>
0.394 

> <ROCS_FitTversky>
1.812 

> <ROCS_FitColorTversky>
0.849 

> <ROCS_FitTverskyCombo>
2.661 

> <ROCS_ColorScore>
-7.236

> <ROCS_Overlap>
2251.859

> <ROCS_Rank>
7                   

$$$$
untitled-dbase-2026_0
  -OEChem-02082415043D

 31 32  0     1  0  0  0  0  0999 V2000
    5.9784   13.3886   24.1815 C   0  0  0  0  0  0  0  0  0  0  0  0
    5.8299   12.3220   25.0613 C   0  0  0  0  0  0  0  0  0  0  0  0
    7.0398   13.4042   23.2741 C   0  0  0  0  0  0  0  0  0  0  0  0
    6.7290   11.2604   25.0169 C   0  0  0  0  0  0  0  0  0  0  0  0
    7.9834   12.3635   23.2424 C   0  0  0  0  0  0  0  0  0  0  0  0
    7.7842   11.2682   24.0976 C   0  0  0  0  0  0  0  0  0  0  0  0
   10.1333   11.2575   22.5899 C   0  0  0  0  0  0  0  0  0  0  0  0
    9.1331   12.3655   22.2673 C   0  0  2  0  0  0  0  0  0  0  0  0
    9.4288    9.9500   22.9673 C   0  0  0  0  0  0  0  0  0  0  0  0
   10.4839    8.9248   23.4087 C   0  0  0  0  0  0  0  0  0  0  0  0
    8.6207    9.3472   21.8082 C   0  0  0  0  0  0  0  0  0  0  0  0
   11.1761   13.6528   21.1626 N   0  0  0  0  0  0  0  0  0  0  0  0
    9.0505   14.9398   21.8278 O   0  0  0  0  0  0  0  0  0  0  0  0
   10.5829   14.0570   23.6328 O   0  0  0  0  0  0  0  0  0  0  0  0
    8.5717   10.1455   24.1058 O   0  0  0  0  0  0  0  0  0  0  0  0
    9.9649   13.9318   22.3274 S   0  0  0  0  0  0  0  0  0  0  0  0
    5.2675   14.2096   24.1978 H   0  0  0  0  0  0  0  0  0  0  0  0
    5.0065   12.3094   25.7689 H   0  0  0  0  0  0  0  0  0  0  0  0
    7.1172   14.2449   22.5899 H   0  0  0  0  0  0  0  0  0  0  0  0
    6.5926   10.4173   25.6896 H   0  0  0  0  0  0  0  0  0  0  0  0
   10.8161   11.1118   21.7434 H   0  0  0  0  0  0  0  0  0  0  0  0
   10.7558   11.5754   23.4393 H   0  0  0  0  0  0  0  0  0  0  0  0
    8.7479   12.2489   21.2484 H   0  0  0  0  0  0  0  0  0  0  0  0
    9.9922    7.9948   23.6779 H   0  0  0  0  0  0  0  0  0  0  0  0
   11.0252    9.3114   24.2669 H   0  0  0  0  0  0  0  0  0  0  0  0
   11.1768    8.7464   22.5919 H   0  0  0  0  0  0  0  0  0  0  0  0
    8.1483    8.4271   22.1387 H   0  0  0  0  0  0  0  0  0  0  0  0
    9.2862    9.1360   20.9768 H   0  0  0  0  0  0  0  0  0  0  0  0
    7.8591   10.0545   21.4940 H   0  0  0  0  0  0  0  0  0  0  0  0
   11.9354   13.0047   21.4057 H   0  0  0  0  0  0  0  0  0  0  0  0
   10.8917   13.6062   20.1765 H   0  0  0  0  0  0  0  0  0  0  0  0
  1  2  1  0  0  0  0
  1  3  2  0  0  0  0
  2  4  2  0  0  0  0
  3  5  1  0  0  0  0
  4  6  1  0  0  0  0
  5  6  2  0  0  0  0
  5  8  1  0  0  0  0
  6 15  1  0  0  0  0
  7  8  1  0  0  0  0
  7  9  1  0  0  0  0
  8 16  1  0  0  0  0
  9 10  1  0  0  0  0
  9 11  1  0  0  0  0
  9 15  1  0  0  0  0
 12 16  1  0  0  0  0
 13 16  2  0  0  0  0
 14 16  2  0  0  0  0
  1 17  1  0  0  0  0
  2 18  1  0  0  0  0
  3 19  1  0  0  0  0
  4 20  1  0  0  0  0
  7 21  1  0  0  0  0
  7 22  1  0  0  0  0
  8 23  1  0  0  0  0
 10 24  1  0  0  0  0
 10 25  1  0  0  0  0
 10 26  1  0  0  0  0
 11 27  1  0  0  0  0
 11 28  1  0  0  0  0
 11 29  1  0  0  0  0
 12 30  1  0  0  0  0
 12 31  1  0  0  0  0
M  END
> <Mol Weight>
241,31

> <Formula>
C11H15NO3S

> <ID>
EN300-679990

> <name>
Sulfonamides

> <LogP>
0,98

> <ROCS_ShapeQuery>
x0446_0A_x1080_0A_x0929_0A_x0812_0A_x0719_0A_x1140_0A_x0528_0A_x0310_0A

> <ROCS_TanimotoCombo>
0.391 

> <ROCS_ShapeTanimoto>
0.216 

> <ROCS_ColorTanimoto>
0.176 

> <ROCS_RefTversky>
0.197 

> <ROCS_RefColorTversky>
0.185 

> <ROCS_RefTverskyCombo>
0.382 

> <ROCS_FitTversky>
1.815 

> <ROCS_FitColorTversky>
0.775 

> <ROCS_FitTverskyCombo>
2.591 

> <ROCS_ColorScore>
-6.606

> <ROCS_Overlap>
2319.102

> <ROCS_Rank>
8                   

$$$$
untitled-dbase-2301_45
  -OEChem-02082415043D

 27 28  0     0  0  0  0  0  0999 V2000
    8.6297    8.5893   23.9188 C   0  0  0  0  0  0  0  0  0  0  0  0
    9.9102    9.0801   23.5914 C   0  0  0  0  0  0  0  0  0  0  0  0
    7.5886    9.4615   24.2491 C   0  0  0  0  0  0  0  0  0  0  0  0
   10.1746   10.4526   23.5874 C   0  0  0  0  0  0  0  0  0  0  0  0
    7.8723   10.8116   24.2385 C   0  0  0  0  0  0  0  0  0  0  0  0
    9.1321   11.2946   23.9160 C   0  0  0  0  0  0  0  0  0  0  0  0
    7.0107   11.9555   24.5343 C   0  0  0  0  0  0  0  0  0  0  0  0
    9.0939   12.7544   24.0010 C   0  0  0  0  0  0  0  0  0  0  0  0
    7.3326   14.4290   24.5610 C   0  0  0  0  0  0  0  0  0  0  0  0
    8.0144   15.4091   23.6257 C   0  0  0  0  0  0  0  0  0  0  0  0
    7.8037   13.0718   24.3690 N   0  0  0  0  0  0  0  0  0  0  0  0
    6.2081   15.6106   21.6898 N   0  0  0  0  0  0  0  0  0  0  0  0
    5.8402   11.8647   24.8549 O   0  0  0  0  0  0  0  0  0  0  0  0
   10.0495   13.4740   23.7773 O   0  0  0  0  0  0  0  0  0  0  0  0
    8.7147   15.7685   21.1342 O   0  0  0  0  0  0  0  0  0  0  0  0
    7.7329   13.5429   21.8186 O   0  0  0  0  0  0  0  0  0  0  0  0
    7.7784   14.9906   21.9266 S   0  0  0  0  0  0  0  0  0  0  0  0
    8.4522    7.5169   23.9138 H   0  0  0  0  0  0  0  0  0  0  0  0
   10.7016    8.3791   23.3390 H   0  0  0  0  0  0  0  0  0  0  0  0
    6.6046    9.0839   24.5011 H   0  0  0  0  0  0  0  0  0  0  0  0
   11.1589   10.8294   23.3359 H   0  0  0  0  0  0  0  0  0  0  0  0
    7.5005   14.6916   25.6101 H   0  0  0  0  0  0  0  0  0  0  0  0
    6.2542   14.4203   24.3759 H   0  0  0  0  0  0  0  0  0  0  0  0
    9.0955   15.4068   23.7939 H   0  0  0  0  0  0  0  0  0  0  0  0
    7.6383   16.4278   23.7599 H   0  0  0  0  0  0  0  0  0  0  0  0
    5.4261   15.1159   22.1363 H   0  0  0  0  0  0  0  0  0  0  0  0
    6.0949   16.6315   21.6700 H   0  0  0  0  0  0  0  0  0  0  0  0
  1  2  1  0  0  0  0
  1  3  2  0  0  0  0
  2  4  2  0  0  0  0
  3  5  1  0  0  0  0
  4  6  1  0  0  0  0
  5  6  2  0  0  0  0
  5  7  1  0  0  0  0
  6  8  1  0  0  0  0
  7 11  1  0  0  0  0
  7 13  2  0  0  0  0
  8 11  1  0  0  0  0
  8 14  2  0  0  0  0
  9 10  1  0  0  0  0
  9 11  1  0  0  0  0
 10 17  1  0  0  0  0
 12 17  1  0  0  0  0
 15 17  2  0  0  0  0
 16 17  2  0  0  0  0
  1 18  1  0  0  0  0
  2 19  1  0  0  0  0
  3 20  1  0  0  0  0
  4 21  1  0  0  0  0
  9 22  1  0  0  0  0
  9 23  1  0  0  0  0
 10 24  1  0  0  0  0
 10 25  1  0  0  0  0
 12 26  1  0  0  0  0
 12 27  1  0  0  0  0
M  END
> <Mol Weight>
254,26

> <Formula>
C10H10N2O4S

> <ID>
EN300-29863

> <name>
Sulfonamides

> <LogP>
-0,64

> <ROCS_ShapeQuery>
x0446_0A_x1080_0A_x0929_0A_x0812_0A_x0719_0A_x1140_0A_x0528_0A_x0310_0A

> <ROCS_TanimotoCombo>
0.390 

> <ROCS_ShapeTanimoto>
0.223 

> <ROCS_ColorTanimoto>
0.167 

> <ROCS_RefTversky>
0.203 

> <ROCS_RefColorTversky>
0.177 

> <ROCS_RefTverskyCombo>
0.381 

> <ROCS_FitTversky>
1.798 

> <ROCS_FitColorTversky>
0.742 

> <ROCS_FitTverskyCombo>
2.540 

> <ROCS_ColorScore>
-6.330

> <ROCS_Overlap>
2397.633

> <ROCS_Rank>
9                   

$$$$
untitled-dbase-376_1
  -OEChem-02082415043D

 22 23  0     1  0  0  0  0  0999 V2000
    7.9507   10.3142   23.9587 C   0  0  0  0  0  0  0  0  0  0  0  0
    9.1191   10.1549   22.9839 C   0  0  0  0  0  0  0  0  0  0  0  0
    7.8429   12.7779   23.4541 C   0  0  0  0  0  0  0  0  0  0  0  0
    8.1812   11.7216   24.5069 C   0  0  2  0  0  0  0  0  0  0  0  0
    9.8266   11.5033   23.1110 C   0  0  1  0  0  0  0  0  0  0  0  0
    8.9903   12.6045   22.4557 C   0  0  2  0  0  0  0  0  0  0  0  0
   11.0801   13.5639   21.1276 N   0  0  0  0  0  0  0  0  0  0  0  0
    9.0727   15.0870   21.6447 O   0  0  0  0  0  0  0  0  0  0  0  0
   10.5991   14.3644   23.5244 O   0  0  0  0  0  0  0  0  0  0  0  0
    9.6250   11.7859   24.5177 O   0  0  0  0  0  0  0  0  0  0  0  0
    9.9274   14.0919   22.2667 S   0  0  0  0  0  0  0  0  0  0  0  0
    6.9738   10.1949   23.4812 H   0  0  0  0  0  0  0  0  0  0  0  0
    8.0381    9.5696   24.7579 H   0  0  0  0  0  0  0  0  0  0  0  0
    9.7722    9.3440   23.3259 H   0  0  0  0  0  0  0  0  0  0  0  0
    8.7987    9.9325   21.9619 H   0  0  0  0  0  0  0  0  0  0  0  0
    6.8614   12.6086   23.0004 H   0  0  0  0  0  0  0  0  0  0  0  0
    7.8440   13.7766   23.9044 H   0  0  0  0  0  0  0  0  0  0  0  0
    7.7458   11.9045   25.4917 H   0  0  0  0  0  0  0  0  0  0  0  0
   10.8859   11.4865   22.8439 H   0  0  0  0  0  0  0  0  0  0  0  0
    8.6433   12.3325   21.4541 H   0  0  0  0  0  0  0  0  0  0  0  0
   11.0077   13.9274   20.1694 H   0  0  0  0  0  0  0  0  0  0  0  0
   12.0472   13.4352   21.4497 H   0  0  0  0  0  0  0  0  0  0  0  0
  1  2  1  0  0  0  0
  1  4  1  0  0  0  0
  2  5  1  0  0  0  0
  3  4  1  0  0  0  0
  3  6  1  0  0  0  0
  4 10  1  1  0  0  0
  5  6  1  0  0  0  0
  5 10  1  1  0  0  0
  6 11  1  1  0  0  0
  7 11  1  0  0  0  0
  8 11  2  0  0  0  0
  9 11  2  0  0  0  0
  1 12  1  0  0  0  0
  1 13  1  0  0  0  0
  2 14  1  0  0  0  0
  2 15  1  0  0  0  0
  3 16  1  0  0  0  0
  3 17  1  0  0  0  0
  4 18  1  0  0  0  0
  5 19  1  0  0  0  0
  6 20  1  0  0  0  0
  7 21  1  0  0  0  0
  7 22  1  0  0  0  0
M  END
> <Mol Weight>
177,22

> <Formula>
C6H11NO3S

> <ID>
EN300-251782

> <name>
Sulfonamides

> <LogP>
-0,80

> <ROCS_ShapeQuery>
x0446_0A_x1080_0A_x0929_0A_x0812_0A_x0719_0A_x1140_0A_x0528_0A_x0310_0A

> <ROCS_TanimotoCombo>
0.390 

> <ROCS_ShapeTanimoto>
0.177 

> <ROCS_ColorTanimoto>
0.214 

> <ROCS_RefTversky>
0.164 

> <ROCS_RefColorTversky>
0.233 

> <ROCS_RefTverskyCombo>
0.397 

> <ROCS_FitTversky>
1.810 

> <ROCS_FitColorTversky>
0.715 

> <ROCS_FitTverskyCombo>
2.525 

> <ROCS_ColorScore>
-8.368

> <ROCS_Overlap>
1930.154

> <ROCS_Rank>
10                  

$$$$
untitled-dbase-631_8
  -OEChem-02082415043D

 26 27  0     1  0  0  0  0  0999 V2000
    7.4290   11.4953   23.9454 C   0  0  0  0  0  0  0  0  0  0  0  0
    8.1450   10.3212   23.2606 C   0  0  0  0  0  0  0  0  0  0  0  0
    9.5975   11.2917   24.8837 C   0  0  0  0  0  0  0  0  0  0  0  0
    8.6067   12.3609   24.4343 C   0  0  1  0  0  0  0  0  0  0  0  0
    9.6285   10.6371   23.5113 C   0  0  2  0  0  0  0  0  0  0  0  0
    9.3120   12.9454   23.1968 C   0  0  1  0  0  0  0  0  0  0  0  0
   10.2807   14.0746   23.5350 C   0  0  0  0  0  0  0  0  0  0  0  0
   10.0194   11.7661   22.6344 N   0  0  0  0  0  0  0  0  0  0  0  0
   11.3069   13.8671   21.0948 N   0  0  0  0  0  0  0  0  0  0  0  0
    9.3716   15.5010   21.5435 O   0  0  0  0  0  0  0  0  0  0  0  0
   11.6678   16.0137   22.4655 O   0  0  0  0  0  0  0  0  0  0  0  0
   10.6315   15.0540   22.1172 S   0  0  0  0  0  0  0  0  0  0  0  0
    6.7643   12.0306   23.2602 H   0  0  0  0  0  0  0  0  0  0  0  0
    6.8322   11.1350   24.7909 H   0  0  0  0  0  0  0  0  0  0  0  0
    7.8598    9.3762   23.7358 H   0  0  0  0  0  0  0  0  0  0  0  0
    7.9017   10.2532   22.1947 H   0  0  0  0  0  0  0  0  0  0  0  0
   10.5662   11.6894   25.2031 H   0  0  0  0  0  0  0  0  0  0  0  0
    9.2002   10.6372   25.6672 H   0  0  0  0  0  0  0  0  0  0  0  0
    8.3276   13.0940   25.1940 H   0  0  0  0  0  0  0  0  0  0  0  0
   10.2876    9.7723   23.4106 H   0  0  0  0  0  0  0  0  0  0  0  0
    8.5849   13.3185   22.4661 H   0  0  0  0  0  0  0  0  0  0  0  0
   11.2233   13.6680   23.8979 H   0  0  0  0  0  0  0  0  0  0  0  0
    9.8497   14.7286   24.2910 H   0  0  0  0  0  0  0  0  0  0  0  0
   11.0269   11.9063   22.7131 H   0  0  0  0  0  0  0  0  0  0  0  0
   12.2386   13.5058   21.3335 H   0  0  0  0  0  0  0  0  0  0  0  0
   10.6747   13.1569   20.7056 H   0  0  0  0  0  0  0  0  0  0  0  0
  1  2  1  0  0  0  0
  1  4  1  0  0  0  0
  2  5  1  0  0  0  0
  3  4  1  6  0  0  0
  3  5  1  6  0  0  0
  4  6  1  0  0  0  0
  5  8  1  0  0  0  0
  6  7  1  6  0  0  0
  6  8  1  0  0  0  0
  7 12  1  0  0  0  0
  9 12  1  0  0  0  0
 10 12  2  0  0  0  0
 11 12  2  0  0  0  0
  1 13  1  0  0  0  0
  1 14  1  0  0  0  0
  2 15  1  0  0  0  0
  2 16  1  0  0  0  0
  3 17  1  0  0  0  0
  3 18  1  0  0  0  0
  4 19  1  0  0  0  0
  5 20  1  0  0  0  0
  6 21  1  0  0  0  0
  7 22  1  0  0  0  0
  7 23  1  0  0  0  0
  8 24  1  0  0  0  0
  9 25  1  0  0  0  0
  9 26  1  0  0  0  0
M  END
> <Mol Weight>
190,26

> <Formula>
C7H14N2O2S

> <ID>
EN300-7466438

> <name>
Sulfonamides

> <LogP>
-1,18

> <ROCS_ShapeQuery>
x0446_0A_x1080_0A_x0929_0A_x0812_0A_x0719_0A_x1140_0A_x0528_0A_x0310_0A

> <ROCS_TanimotoCombo>
0.389 

> <ROCS_ShapeTanimoto>
0.181 

> <ROCS_ColorTanimoto>
0.207 

> <ROCS_RefTversky>
0.168 

> <ROCS_RefColorTversky>
0.232 

> <ROCS_RefTverskyCombo>
0.400 

> <ROCS_FitTversky>
1.802 

> <ROCS_FitColorTversky>
0.659 

> <ROCS_FitTverskyCombo>
2.461 

> <ROCS_ColorScore>
-8.338

> <ROCS_Overlap>
1979.002

> <ROCS_Rank>
11                  

$$$$
untitled-dbase-1577_29
  -OEChem-02082415043D

 27 28  0     0  0  0  0  0  0999 V2000
   12.1568   11.7939   23.0999 C   0  0  0  0  0  0  0  0  0  0  0  0
   11.9266   10.4373   22.8802 C   0  0  0  0  0  0  0  0  0  0  0  0
   11.1200   12.6387   23.5127 C   0  0  0  0  0  0  0  0  0  0  0  0
   10.6571    9.8823   23.0653 C   0  0  0  0  0  0  0  0  0  0  0  0
    7.6608   11.6240   24.1166 C   0  0  0  0  0  0  0  0  0  0  0  0
    9.8316   12.1019   23.7057 C   0  0  0  0  0  0  0  0  0  0  0  0
    8.5804   12.6473   24.1082 C   0  0  0  0  0  0  0  0  0  0  0  0
    9.6303   10.7388   23.4780 C   0  0  0  0  0  0  0  0  0  0  0  0
    8.3058   14.0565   24.4552 C   0  0  0  0  0  0  0  0  0  0  0  0
    7.2352   14.7226   23.5765 C   0  0  0  0  0  0  0  0  0  0  0  0
    8.3035   10.4768   23.7354 N   0  0  0  0  0  0  0  0  0  0  0  0
    6.2918   15.4949   21.2175 N   0  0  0  0  0  0  0  0  0  0  0  0
    8.8232   15.5453   21.6716 O   0  0  0  0  0  0  0  0  0  0  0  0
    7.6529   13.3208   21.4113 O   0  0  0  0  0  0  0  0  0  0  0  0
    7.6562   14.7016   21.8621 S   0  0  0  0  0  0  0  0  0  0  0  0
   13.1526   12.2021   22.9498 H   0  0  0  0  0  0  0  0  0  0  0  0
   12.7464    9.7994   22.5598 H   0  0  0  0  0  0  0  0  0  0  0  0
   11.3158   13.6940   23.6806 H   0  0  0  0  0  0  0  0  0  0  0  0
   10.4787    8.8264   22.8930 H   0  0  0  0  0  0  0  0  0  0  0  0
    6.6076   11.6078   24.3609 H   0  0  0  0  0  0  0  0  0  0  0  0
    9.2314   14.6595   24.3610 H   0  0  0  0  0  0  0  0  0  0  0  0
    8.0066   14.1692   25.5173 H   0  0  0  0  0  0  0  0  0  0  0  0
    6.2791   14.1954   23.6566 H   0  0  0  0  0  0  0  0  0  0  0  0
    7.0760   15.7686   23.8558 H   0  0  0  0  0  0  0  0  0  0  0  0
    7.8677    9.5685   23.6542 H   0  0  0  0  0  0  0  0  0  0  0  0
    6.4194   16.4477   20.8549 H   0  0  0  0  0  0  0  0  0  0  0  0
    5.6223   14.9327   20.6778 H   0  0  0  0  0  0  0  0  0  0  0  0
  1  2  1  0  0  0  0
  1  3  2  0  0  0  0
  2  4  2  0  0  0  0
  3  6  1  0  0  0  0
  4  8  1  0  0  0  0
  5  7  2  0  0  0  0
  5 11  1  0  0  0  0
  6  7  1  0  0  0  0
  6  8  2  0  0  0  0
  7  9  1  0  0  0  0
  8 11  1  0  0  0  0
  9 10  1  0  0  0  0
 10 15  1  0  0  0  0
 12 15  1  0  0  0  0
 13 15  2  0  0  0  0
 14 15  2  0  0  0  0
  1 16  1  0  0  0  0
  2 17  1  0  0  0  0
  3 18  1  0  0  0  0
  4 19  1  0  0  0  0
  5 20  1  0  0  0  0
  9 21  1  0  0  0  0
  9 22  1  0  0  0  0
 10 23  1  0  0  0  0
 10 24  1  0  0  0  0
 11 25  1  0  0  0  0
 12 26  1  0  0  0  0
 12 27  1  0  0  0  0
M  END
> <Mol Weight>
224,28

> <Formula>
C10H12N2O2S

> <ID>
EN300-2004370

> <name>
Sulfonamides

> <LogP>
0,73

> <ROCS_ShapeQuery>
x0446_0A_x1080_0A_x0929_0A_x0812_0A_x0719_0A_x1140_0A_x0528_0A_x0310_0A

> <ROCS_TanimotoCombo>
0.386 

> <ROCS_ShapeTanimoto>
0.207 

> <ROCS_ColorTanimoto>
0.179 

> <ROCS_RefTversky>
0.190 

> <ROCS_RefColorTversky>
0.184 

> <ROCS_RefTverskyCombo>
0.374 

> <ROCS_FitTversky>
1.811 

> <ROCS_FitColorTversky>
0.866 

> <ROCS_FitTverskyCombo>
2.677 

> <ROCS_ColorScore>
-6.565

> <ROCS_Overlap>
2237.258

> <ROCS_Rank>
12                  

$$$$
untitled-dbase-2120_896
  -OEChem-02082415043D

 30 31  0     0  0  0  0  0  0999 V2000
    7.7109   10.8945   24.0476 C   0  0  0  0  0  0  0  0  0  0  0  0
    9.4103   12.2539   23.8929 C   0  0  0  0  0  0  0  0  0  0  0  0
    6.3143   10.4163   24.2152 C   0  0  0  0  0  0  0  0  0  0  0  0
    7.1740   13.3393   24.2658 C   0  0  0  0  0  0  0  0  0  0  0  0
    5.6854   10.9212   25.5104 C   0  0  0  0  0  0  0  0  0  0  0  0
    6.3555   13.2257   25.5465 C   0  0  0  0  0  0  0  0  0  0  0  0
   11.1228   14.4999   20.0645 C   0  0  0  0  0  0  0  0  0  0  0  0
   10.2087   13.4932   23.8581 C   0  0  0  0  0  0  0  0  0  0  0  0
    8.7946   10.1690   23.8556 N   0  0  0  0  0  0  0  0  0  0  0  0
    9.8691   11.0300   23.7582 N   0  0  0  0  0  0  0  0  0  0  0  0
    8.0644   12.2152   24.0751 N   0  0  0  0  0  0  0  0  0  0  0  0
   10.9208   13.6712   22.6106 N   0  0  0  0  0  0  0  0  0  0  0  0
   11.6580   16.0946   22.0697 O   0  0  0  0  0  0  0  0  0  0  0  0
    9.2659   15.4174   21.6506 O   0  0  0  0  0  0  0  0  0  0  0  0
    5.2856   12.2892   25.4141 O   0  0  0  0  0  0  0  0  0  0  0  0
   10.6803   15.0977   21.6797 S   0  0  0  0  0  0  0  0  0  0  0  0
    5.7202   10.7752   23.3666 H   0  0  0  0  0  0  0  0  0  0  0  0
    6.3041    9.3204   24.1883 H   0  0  0  0  0  0  0  0  0  0  0  0
    6.4995   13.3964   23.4063 H   0  0  0  0  0  0  0  0  0  0  0  0
    7.8015   14.2378   24.2748 H   0  0  0  0  0  0  0  0  0  0  0  0
    4.8459   10.2980   25.8417 H   0  0  0  0  0  0  0  0  0  0  0  0
    6.4451   10.8840   26.2989 H   0  0  0  0  0  0  0  0  0  0  0  0
    7.0042   12.8337   26.3372 H   0  0  0  0  0  0  0  0  0  0  0  0
    5.9762   14.1961   25.8884 H   0  0  0  0  0  0  0  0  0  0  0  0
   11.0148   15.3196   19.3524 H   0  0  0  0  0  0  0  0  0  0  0  0
   12.1574   14.1551   20.0965 H   0  0  0  0  0  0  0  0  0  0  0  0
   10.4533   13.6782   19.8062 H   0  0  0  0  0  0  0  0  0  0  0  0
    9.5813   14.3925   23.9964 H   0  0  0  0  0  0  0  0  0  0  0  0
   10.9671   13.5266   24.6610 H   0  0  0  0  0  0  0  0  0  0  0  0
   11.8878   13.2904   22.5934 H   0  0  0  0  0  0  0  0  0  0  0  0
  1  3  1  0  0  0  0
  1  9  2  0  0  0  0
  1 11  1  0  0  0  0
  2  8  1  0  0  0  0
  2 10  2  0  0  0  0
  2 11  1  0  0  0  0
  3  5  1  0  0  0  0
  4  6  1  0  0  0  0
  4 11  1  0  0  0  0
  5 15  1  0  0  0  0
  6 15  1  0  0  0  0
  7 16  1  0  0  0  0
  8 12  1  0  0  0  0
  9 10  1  0  0  0  0
 12 16  1  0  0  0  0
 13 16  2  0  0  0  0
 14 16  2  0  0  0  0
  3 17  1  0  0  0  0
  3 18  1  0  0  0  0
  4 19  1  0  0  0  0
  4 20  1  0  0  0  0
  5 21  1  0  0  0  0
  5 22  1  0  0  0  0
  6 23  1  0  0  0  0
  6 24  1  0  0  0  0
  7 25  1  0  0  0  0
  7 26  1  0  0  0  0
  7 27  1  0  0  0  0
  8 28  1  0  0  0  0
  8 29  1  0  0  0  0
 12 30  1  0  0  0  0
M  END
> <Mol Weight>
246,29

> <Formula>
C8H14N4O3S

> <ID>
EN300-1663909

> <name>
Sulfonamides

> <LogP>
-2,35

> <ROCS_ShapeQuery>
x0446_0A_x1080_0A_x0929_0A_x0812_0A_x0719_0A_x1140_0A_x0528_0A_x0310_0A

> <ROCS_TanimotoCombo>
0.385 

> <ROCS_ShapeTanimoto>
0.213 

> <ROCS_ColorTanimoto>
0.172 

> <ROCS_RefTversky>
0.194 

> <ROCS_RefColorTversky>
0.187 

> <ROCS_RefTverskyCombo>
0.382 

> <ROCS_FitTversky>
1.797 

> <ROCS_FitColorTversky>
0.686 

> <ROCS_FitTverskyCombo>
2.483 

> <ROCS_ColorScore>
-6.691

> <ROCS_Overlap>
2293.601

> <ROCS_Rank>
13                  

$$$$
untitled-dbase-1000_8
  -OEChem-02082415043D

 30 31  0     1  0  0  0  0  0999 V2000
    9.8638   10.4704   24.5866 C   0  0  0  0  0  0  0  0  0  0  0  0
    7.8656   10.3533   23.0863 C   0  0  0  0  0  0  0  0  0  0  0  0
    9.2405   11.6649   25.3210 C   0  0  0  0  0  0  0  0  0  0  0  0
    7.2439   11.5363   23.8417 C   0  0  0  0  0  0  0  0  0  0  0  0
    9.8401   11.7583   22.4489 C   0  0  0  0  0  0  0  0  0  0  0  0
    9.4004   10.4446   23.1203 C   0  0  0  0  0  0  0  0  0  0  0  0
    8.3506   12.4754   24.3610 C   0  0  0  0  0  0  0  0  0  0  0  0
    9.1693   12.9649   23.1404 C   0  0  1  0  0  0  0  0  0  0  0  0
   10.1916   14.0411   23.5032 C   0  0  0  0  0  0  0  0  0  0  0  0
   11.2368   13.8022   21.0739 N   0  0  0  0  0  0  0  0  0  0  0  0
    9.3819   15.5292   21.5140 O   0  0  0  0  0  0  0  0  0  0  0  0
   11.6894   15.9156   22.4688 O   0  0  0  0  0  0  0  0  0  0  0  0
   10.6097   15.0129   22.0996 S   0  0  0  0  0  0  0  0  0  0  0  0
   10.9576   10.5341   24.6371 H   0  0  0  0  0  0  0  0  0  0  0  0
    9.5813    9.5375   25.0893 H   0  0  0  0  0  0  0  0  0  0  0  0
    7.5321    9.4107   23.5366 H   0  0  0  0  0  0  0  0  0  0  0  0
    7.5107   10.3481   22.0486 H   0  0  0  0  0  0  0  0  0  0  0  0
    8.6444   11.3033   26.1680 H   0  0  0  0  0  0  0  0  0  0  0  0
   10.0279   12.2934   25.7513 H   0  0  0  0  0  0  0  0  0  0  0  0
    6.5609   12.0819   23.1794 H   0  0  0  0  0  0  0  0  0  0  0  0
    6.6376   11.1663   24.6775 H   0  0  0  0  0  0  0  0  0  0  0  0
   10.9336   11.8391   22.4769 H   0  0  0  0  0  0  0  0  0  0  0  0
    9.5584   11.7449   21.3886 H   0  0  0  0  0  0  0  0  0  0  0  0
    9.8427    9.5887   22.5993 H   0  0  0  0  0  0  0  0  0  0  0  0
    7.8993   13.3230   24.8888 H   0  0  0  0  0  0  0  0  0  0  0  0
    8.4717   13.4224   22.4254 H   0  0  0  0  0  0  0  0  0  0  0  0
   11.1055   13.5814   23.8736 H   0  0  0  0  0  0  0  0  0  0  0  0
    9.7830   14.7076   24.2596 H   0  0  0  0  0  0  0  0  0  0  0  0
   12.1457   13.3916   21.3207 H   0  0  0  0  0  0  0  0  0  0  0  0
   10.5741   13.1287   20.6705 H   0  0  0  0  0  0  0  0  0  0  0  0
  1  3  1  0  0  0  0
  1  6  1  0  0  0  0
  2  4  1  0  0  0  0
  2  6  1  0  0  0  0
  3  7  1  0  0  0  0
  4  7  1  0  0  0  0
  5  6  1  0  0  0  0
  5  8  1  0  0  0  0
  7  8  1  0  0  0  0
  8  9  1  0  0  0  0
  9 13  1  0  0  0  0
 10 13  1  0  0  0  0
 11 13  2  0  0  0  0
 12 13  2  0  0  0  0
  1 14  1  0  0  0  0
  1 15  1  0  0  0  0
  2 16  1  0  0  0  0
  2 17  1  0  0  0  0
  3 18  1  0  0  0  0
  3 19  1  0  0  0  0
  4 20  1  0  0  0  0
  4 21  1  0  0  0  0
  5 22  1  0  0  0  0
  5 23  1  0  0  0  0
  6 24  1  0  0  0  0
  7 25  1  0  0  0  0
  8 26  1  0  0  0  0
  9 27  1  0  0  0  0
  9 28  1  0  0  0  0
 10 29  1  0  0  0  0
 10 30  1  0  0  0  0
M  END
> <Mol Weight>
203,30

> <Formula>
C9H17NO2S

> <ID>
EN300-679946

> <name>
Sulfonamides

> <LogP>
0,84

> <ROCS_ShapeQuery>
x0446_0A_x1080_0A_x0929_0A_x0812_0A_x0719_0A_x1140_0A_x0528_0A_x0310_0A

> <ROCS_TanimotoCombo>
0.385 

> <ROCS_ShapeTanimoto>
0.186 

> <ROCS_ColorTanimoto>
0.198 

> <ROCS_RefTversky>
0.172 

> <ROCS_RefColorTversky>
0.214 

> <ROCS_RefTverskyCombo>
0.386 

> <ROCS_FitTversky>
1.800 

> <ROCS_FitColorTversky>
0.735 

> <ROCS_FitTverskyCombo>
2.536 

> <ROCS_ColorScore>
-7.648

> <ROCS_Overlap>
2029.934

> <ROCS_Rank>
14                  

$$$$
untitled-dbase-2003_3
  -OEChem-02082415043D

 29 30  0     0  0  0  0  0  0999 V2000
    8.2013   12.6544   24.3866 C   0  0  0  0  0  0  0  0  0  0  0  0
    7.7177   11.0183   22.5767 C   0  0  0  0  0  0  0  0  0  0  0  0
   10.0594   11.7324   23.0142 C   0  0  0  0  0  0  0  0  0  0  0  0
    8.3842   11.4712   25.3509 C   0  0  0  0  0  0  0  0  0  0  0  0
    7.9133    9.8907   23.6029 C   0  0  0  0  0  0  0  0  0  0  0  0
   10.1771   10.5785   24.0230 C   0  0  0  0  0  0  0  0  0  0  0  0
    8.5986   12.2266   22.9581 C   0  0  0  0  0  0  0  0  0  0  0  0
    8.4342   13.3736   21.9654 C   0  0  0  0  0  0  0  0  0  0  0  0
    8.8795   10.2646   24.6565 N   0  0  0  0  0  0  0  0  0  0  0  0
   10.9436   13.6409   21.1390 N   0  0  0  0  0  0  0  0  0  0  0  0
    9.4294   15.7097   21.3494 O   0  0  0  0  0  0  0  0  0  0  0  0
   10.2421   14.5485   23.4414 O   0  0  0  0  0  0  0  0  0  0  0  0
    9.7876   14.4923   22.0607 S   0  0  0  0  0  0  0  0  0  0  0  0
    7.1569   12.9894   24.4079 H   0  0  0  0  0  0  0  0  0  0  0  0
    8.8185   13.4988   24.7177 H   0  0  0  0  0  0  0  0  0  0  0  0
    7.9803   10.6559   21.5750 H   0  0  0  0  0  0  0  0  0  0  0  0
    6.6608   11.3111   22.5467 H   0  0  0  0  0  0  0  0  0  0  0  0
   10.7287   12.5505   23.3083 H   0  0  0  0  0  0  0  0  0  0  0  0
   10.3849   11.3911   22.0237 H   0  0  0  0  0  0  0  0  0  0  0  0
    9.0784   11.7476   26.1543 H   0  0  0  0  0  0  0  0  0  0  0  0
    7.4339   11.2463   25.8514 H   0  0  0  0  0  0  0  0  0  0  0  0
    6.9502    9.6293   24.0591 H   0  0  0  0  0  0  0  0  0  0  0  0
    8.2534    8.9792   23.0955 H   0  0  0  0  0  0  0  0  0  0  0  0
   10.5721    9.6845   23.5241 H   0  0  0  0  0  0  0  0  0  0  0  0
   10.9141   10.8320   24.7954 H   0  0  0  0  0  0  0  0  0  0  0  0
    7.5259   13.9335   22.1819 H   0  0  0  0  0  0  0  0  0  0  0  0
    8.3930   12.9895   20.9476 H   0  0  0  0  0  0  0  0  0  0  0  0
   11.1858   14.0156   20.2135 H   0  0  0  0  0  0  0  0  0  0  0  0
   11.7391   13.2246   21.6383 H   0  0  0  0  0  0  0  0  0  0  0  0
  1  4  1  0  0  0  0
  1  7  1  0  0  0  0
  2  5  1  0  0  0  0
  2  7  1  0  0  0  0
  3  6  1  0  0  0  0
  3  7  1  0  0  0  0
  4  9  1  0  0  0  0
  5  9  1  0  0  0  0
  6  9  1  0  0  0  0
  7  8  1  0  0  0  0
  8 13  1  0  0  0  0
 10 13  1  0  0  0  0
 11 13  2  0  0  0  0
 12 13  2  0  0  0  0
  1 14  1  0  0  0  0
  1 15  1  0  0  0  0
  2 16  1  0  0  0  0
  2 17  1  0  0  0  0
  3 18  1  0  0  0  0
  3 19  1  0  0  0  0
  4 20  1  0  0  0  0
  4 21  1  0  0  0  0
  5 22  1  0  0  0  0
  5 23  1  0  0  0  0
  6 24  1  0  0  0  0
  6 25  1  0  0  0  0
  8 26  1  0  0  0  0
  8 27  1  0  0  0  0
 10 28  1  0  0  0  0
 10 29  1  0  0  0  0
M  END
> <Mol Weight>
240,75

> <Formula>
C8H17ClN2O2S

> <ID>
EN300-7492668

> <name>
Sulfonamides

> <LogP>
-0,99

> <ROCS_ShapeQuery>
x0446_0A_x1080_0A_x0929_0A_x0812_0A_x0719_0A_x1140_0A_x0528_0A_x0310_0A

> <ROCS_TanimotoCombo>
0.384 

> <ROCS_ShapeTanimoto>
0.182 

> <ROCS_ColorTanimoto>
0.202 

> <ROCS_RefTversky>
0.169 

> <ROCS_RefColorTversky>
0.222 

> <ROCS_RefTverskyCombo>
0.391 

> <ROCS_FitTversky>
1.747 

> <ROCS_FitColorTversky>
0.695 

> <ROCS_FitTverskyCombo>
2.442 

> <ROCS_ColorScore>
-7.959

> <ROCS_Overlap>
1991.583

> <ROCS_Rank>
15                  

$$$$
untitled-dbase-2114_7
  -OEChem-02082415043D

 28 30  0     0  0  0  0  0  0999 V2000
   10.8801   10.2164   23.1704 C   0  0  0  0  0  0  0  0  0  0  0  0
    5.4996   11.3333   25.5372 C   0  0  0  0  0  0  0  0  0  0  0  0
   11.4290   11.4268   22.7149 C   0  0  0  0  0  0  0  0  0  0  0  0
    5.2430   12.7109   25.4360 C   0  0  0  0  0  0  0  0  0  0  0  0
    9.6143   10.1794   23.7621 C   0  0  0  0  0  0  0  0  0  0  0  0
    6.6897   10.7866   25.0487 C   0  0  0  0  0  0  0  0  0  0  0  0
   10.7216   12.6239   22.8390 C   0  0  0  0  0  0  0  0  0  0  0  0
    6.1699   13.5688   24.8412 C   0  0  0  0  0  0  0  0  0  0  0  0
    8.9118   11.3670   23.8849 C   0  0  0  0  0  0  0  0  0  0  0  0
    7.6094   11.6374   24.4578 C   0  0  0  0  0  0  0  0  0  0  0  0
    9.4632   12.5823   23.4169 C   0  0  0  0  0  0  0  0  0  0  0  0
    7.3440   13.0223   24.3491 C   0  0  0  0  0  0  0  0  0  0  0  0
    8.5026   13.7219   23.6741 C   0  0  0  0  0  0  0  0  0  0  0  0
    6.5271   15.1467   22.6166 N   0  0  0  0  0  0  0  0  0  0  0  0
    8.9077   15.3377   21.6611 O   0  0  0  0  0  0  0  0  0  0  0  0
    7.5836   13.2193   21.2802 O   0  0  0  0  0  0  0  0  0  0  0  0
    7.9514   14.3443   22.1273 S   0  0  0  0  0  0  0  0  0  0  0  0
   11.4498    9.2971   23.0626 H   0  0  0  0  0  0  0  0  0  0  0  0
    4.7635   10.6856   26.0065 H   0  0  0  0  0  0  0  0  0  0  0  0
   12.4168   11.4298   22.2617 H   0  0  0  0  0  0  0  0  0  0  0  0
    4.3120   13.1120   25.8277 H   0  0  0  0  0  0  0  0  0  0  0  0
    9.2064    9.2382   24.1147 H   0  0  0  0  0  0  0  0  0  0  0  0
    6.8760    9.7216   25.1394 H   0  0  0  0  0  0  0  0  0  0  0  0
   11.1504   13.5566   22.4891 H   0  0  0  0  0  0  0  0  0  0  0  0
    5.9698   14.6322   24.7695 H   0  0  0  0  0  0  0  0  0  0  0  0
    8.9381   14.5093   24.2922 H   0  0  0  0  0  0  0  0  0  0  0  0
    5.7285   14.5677   22.9042 H   0  0  0  0  0  0  0  0  0  0  0  0
    6.6304   16.0104   23.1634 H   0  0  0  0  0  0  0  0  0  0  0  0
  1  3  1  0  0  0  0
  1  5  2  0  0  0  0
  2  4  1  0  0  0  0
  2  6  2  0  0  0  0
  3  7  2  0  0  0  0
  4  8  2  0  0  0  0
  5  9  1  0  0  0  0
  6 10  1  0  0  0  0
  7 11  1  0  0  0  0
  8 12  1  0  0  0  0
  9 10  1  0  0  0  0
  9 11  2  0  0  0  0
 10 12  2  0  0  0  0
 11 13  1  0  0  0  0
 12 13  1  0  0  0  0
 13 17  1  0  0  0  0
 14 17  1  0  0  0  0
 15 17  2  0  0  0  0
 16 17  2  0  0  0  0
  1 18  1  0  0  0  0
  2 19  1  0  0  0  0
  3 20  1  0  0  0  0
  4 21  1  0  0  0  0
  5 22  1  0  0  0  0
  6 23  1  0  0  0  0
  7 24  1  0  0  0  0
  8 25  1  0  0  0  0
 13 26  1  0  0  0  0
 14 27  1  0  0  0  0
 14 28  1  0  0  0  0
M  END
> <Mol Weight>
245,30

> <Formula>
C13H11NO2S

> <ID>
EN300-365277

> <name>
Sulfonamides

> <LogP>
1,95

> <ROCS_ShapeQuery>
x0446_0A_x1080_0A_x0929_0A_x0812_0A_x0719_0A_x1140_0A_x0528_0A_x0310_0A

> <ROCS_TanimotoCombo>
0.384 

> <ROCS_ShapeTanimoto>
0.233 

> <ROCS_ColorTanimoto>
0.150 

> <ROCS_RefTversky>
0.211 

> <ROCS_RefColorTversky>
0.159 

> <ROCS_RefTverskyCombo>
0.370 

> <ROCS_FitTversky>
1.845 

> <ROCS_FitColorTversky>
0.744 

> <ROCS_FitTverskyCombo>
2.590 

> <ROCS_ColorScore>
-5.653

> <ROCS_Overlap>
2488.524

> <ROCS_Rank>
16                  

$$$$
untitled-dbase-2399_2791
  -OEChem-02082415043D

 32 33  0     1  0  0  0  0  0999 V2000
    8.0400   12.2819   24.2581 C   0  0  0  0  0  0  0  0  0  0  0  0
    9.6914   11.3592   23.4208 C   0  0  0  0  0  0  0  0  0  0  0  0
    5.5651   12.6190   24.6536 C   0  0  0  0  0  0  0  0  0  0  0  0
    4.7219   13.8704   24.6863 C   0  0  0  0  0  0  0  0  0  0  0  0
    6.9684   13.1860   24.8116 C   0  0  2  0  0  0  0  0  0  0  0  0
    5.5952   14.8841   23.9627 C   0  0  2  0  0  0  0  0  0  0  0  0
   11.0000   11.1785   22.7825 C   0  0  0  0  0  0  0  0  0  0  0  0
    7.7424   15.0075   19.5017 C   0  0  0  0  0  0  0  0  0  0  0  0
    5.3188   14.9452   22.4668 C   0  0  0  0  0  0  0  0  0  0  0  0
    9.1913   12.5934   23.7187 N   0  0  0  0  0  0  0  0  0  0  0  0
    8.9131   10.3229   23.7465 N   0  0  0  0  0  0  0  0  0  0  0  0
    6.4251   15.5365   21.7846 N   0  0  0  0  0  0  0  0  0  0  0  0
    7.3564   13.1625   21.3175 O   0  0  0  0  0  0  0  0  0  0  0  0
    8.9826   15.0286   21.7966 O   0  0  0  0  0  0  0  0  0  0  0  0
    7.7946   10.9465   24.3138 O   0  0  0  0  0  0  0  0  0  0  0  0
    6.9594   14.4698   24.1583 O   0  0  0  0  0  0  0  0  0  0  0  0
    7.7367   14.5583   21.2222 S   0  0  0  0  0  0  0  0  0  0  0  0
    5.3228   12.0043   25.5242 H   0  0  0  0  0  0  0  0  0  0  0  0
    5.4155   12.0188   23.7575 H   0  0  0  0  0  0  0  0  0  0  0  0
    3.7834   13.6982   24.1370 H   0  0  0  0  0  0  0  0  0  0  0  0
    4.4580   14.1892   25.7039 H   0  0  0  0  0  0  0  0  0  0  0  0
    7.1842   13.3532   25.9040 H   0  0  0  0  0  0  0  0  0  0  0  0
    5.4822   15.8775   24.3973 H   0  0  0  0  0  0  0  0  0  0  0  0
   11.8079   11.0856   23.5315 H   0  0  0  0  0  0  0  0  0  0  0  0
   11.0384   10.2743   22.1455 H   0  0  0  0  0  0  0  0  0  0  0  0
   11.2657   12.0221   22.1170 H   0  0  0  0  0  0  0  0  0  0  0  0
    8.5400   14.4538   19.0038 H   0  0  0  0  0  0  0  0  0  0  0  0
    6.7725   14.7478   19.0748 H   0  0  0  0  0  0  0  0  0  0  0  0
    7.9182   16.0817   19.4269 H   0  0  0  0  0  0  0  0  0  0  0  0
    5.1617   13.9236   22.1143 H   0  0  0  0  0  0  0  0  0  0  0  0
    4.4197   15.5468   22.3177 H   0  0  0  0  0  0  0  0  0  0  0  0
    6.7150   16.4891   22.1107 H   0  0  0  0  0  0  0  0  0  0  0  0
  1  5  1  6  0  0  0
  1 10  2  0  0  0  0
  1 15  1  0  0  0  0
  2  7  1  0  0  0  0
  2 10  1  0  0  0  0
  2 11  2  0  0  0  0
  3  4  1  0  0  0  0
  3  5  1  0  0  0  0
  4  6  1  0  0  0  0
  5 16  1  0  0  0  0
  6  9  1  6  0  0  0
  6 16  1  0  0  0  0
  8 17  1  0  0  0  0
  9 12  1  0  0  0  0
 11 15  1  0  0  0  0
 12 17  1  0  0  0  0
 13 17  2  0  0  0  0
 14 17  2  0  0  0  0
  3 18  1  0  0  0  0
  3 19  1  0  0  0  0
  4 20  1  0  0  0  0
  4 21  1  0  0  0  0
  5 22  1  0  0  0  0
  6 23  1  0  0  0  0
  7 24  1  0  0  0  0
  7 25  1  0  0  0  0
  7 26  1  0  0  0  0
  8 27  1  0  0  0  0
  8 28  1  0  0  0  0
  8 29  1  0  0  0  0
  9 30  1  0  0  0  0
  9 31  1  0  0  0  0
 12 32  1  0  0  0  0
M  END
> <Mol Weight>
261,30

> <Formula>
C9H15N3O4S

> <ID>
EN300-314885

> <name>
Sulfonamides

> <LogP>
-0,40

> <ROCS_ShapeQuery>
x0446_0A_x1080_0A_x0929_0A_x0812_0A_x0719_0A_x1140_0A_x0528_0A_x0310_0A

> <ROCS_TanimotoCombo>
0.379 

> <ROCS_ShapeTanimoto>
0.201 

> <ROCS_ColorTanimoto>
0.178 

> <ROCS_RefTversky>
0.186 

> <ROCS_RefColorTversky>
0.191 

> <ROCS_RefTverskyCombo>
0.377 

> <ROCS_FitTversky>
1.671 

> <ROCS_FitColorTversky>
0.721 

> <ROCS_FitTverskyCombo>
2.392 

> <ROCS_ColorScore>
-6.831

> <ROCS_Overlap>
2198.333

> <ROCS_Rank>
17                  

$$$$
untitled-dbase-1528_10
  -OEChem-02082415043D

 25 26  0     0  0  0  0  0  0999 V2000
    5.5451   12.4761   25.3001 C   0  0  0  0  0  0  0  0  0  0  0  0
    9.3794    9.8896   23.8581 C   0  0  0  0  0  0  0  0  0  0  0  0
    6.1904   11.2480   25.1869 C   0  0  0  0  0  0  0  0  0  0  0  0
    8.1292    9.9401   24.4577 C   0  0  0  0  0  0  0  0  0  0  0  0
    6.1614   13.6221   24.8131 C   0  0  0  0  0  0  0  0  0  0  0  0
    9.9171   11.0763   23.4029 C   0  0  0  0  0  0  0  0  0  0  0  0
    7.4572   11.1633   24.5847 C   0  0  0  0  0  0  0  0  0  0  0  0
    7.4209   13.5376   24.2144 C   0  0  0  0  0  0  0  0  0  0  0  0
    8.0890   12.3227   24.0882 C   0  0  0  0  0  0  0  0  0  0  0  0
    8.0435   14.8005   23.7047 C   0  0  0  0  0  0  0  0  0  0  0  0
    9.3021   12.2768   23.5058 N   0  0  0  0  0  0  0  0  0  0  0  0
    6.3234   15.2674   21.7363 N   0  0  0  0  0  0  0  0  0  0  0  0
    8.8175   15.8140   21.4241 O   0  0  0  0  0  0  0  0  0  0  0  0
    8.0760   13.3994   21.4993 O   0  0  0  0  0  0  0  0  0  0  0  0
    7.9432   14.7764   21.9459 S   0  0  0  0  0  0  0  0  0  0  0  0
    4.5662   12.5374   25.7658 H   0  0  0  0  0  0  0  0  0  0  0  0
    9.9122    8.9523   23.7505 H   0  0  0  0  0  0  0  0  0  0  0  0
    5.6990   10.3571   25.5716 H   0  0  0  0  0  0  0  0  0  0  0  0
    7.6807    9.0194   24.8241 H   0  0  0  0  0  0  0  0  0  0  0  0
    5.6558   14.5802   24.9016 H   0  0  0  0  0  0  0  0  0  0  0  0
   10.8912   11.0984   22.9253 H   0  0  0  0  0  0  0  0  0  0  0  0
    9.0977   14.8799   23.9848 H   0  0  0  0  0  0  0  0  0  0  0  0
    7.5184   15.6903   24.0636 H   0  0  0  0  0  0  0  0  0  0  0  0
    5.5851   14.6017   21.9958 H   0  0  0  0  0  0  0  0  0  0  0  0
    6.0903   16.2461   21.9444 H   0  0  0  0  0  0  0  0  0  0  0  0
  1  3  1  0  0  0  0
  1  5  2  0  0  0  0
  2  4  2  0  0  0  0
  2  6  1  0  0  0  0
  3  7  2  0  0  0  0
  4  7  1  0  0  0  0
  5  8  1  0  0  0  0
  6 11  2  0  0  0  0
  7  9  1  0  0  0  0
  8  9  2  0  0  0  0
  8 10  1  0  0  0  0
  9 11  1  0  0  0  0
 10 15  1  0  0  0  0
 12 15  1  0  0  0  0
 13 15  2  0  0  0  0
 14 15  2  0  0  0  0
  1 16  1  0  0  0  0
  2 17  1  0  0  0  0
  3 18  1  0  0  0  0
  4 19  1  0  0  0  0
  5 20  1  0  0  0  0
  6 21  1  0  0  0  0
 10 22  1  0  0  0  0
 10 23  1  0  0  0  0
 12 24  1  0  0  0  0
 12 25  1  0  0  0  0
M  END
> <Mol Weight>
222,26

> <Formula>
C10H10N2O2S

> <ID>
EN300-120349

> <name>
Sulfonamides

> <LogP>
0,50

> <ROCS_ShapeQuery>
x0446_0A_x1080_0A_x0929_0A_x0812_0A_x0719_0A_x1140_0A_x0528_0A_x0310_0A

> <ROCS_TanimotoCombo>
0.379 

> <ROCS_ShapeTanimoto>
0.206 

> <ROCS_ColorTanimoto>
0.172 

> <ROCS_RefTversky>
0.189 

> <ROCS_RefColorTversky>
0.178 

> <ROCS_RefTverskyCombo>
0.367 

> <ROCS_FitTversky>
1.791 

> <ROCS_FitColorTversky>
0.840 

> <ROCS_FitTverskyCombo>
2.630 

> <ROCS_ColorScore>
-6.354

> <ROCS_Overlap>
2230.612

> <ROCS_Rank>
18                  

$$$$
untitled-dbase-614_0
  -OEChem-02082415043D

 27 28  0     1  0  0  0  0  0999 V2000
    8.2318    9.9391   23.5152 C   0  0  0  0  0  0  0  0  0  0  0  0
    9.3541   11.4456   25.1669 C   0  0  0  0  0  0  0  0  0  0  0  0
    7.2781   11.0803   23.1304 C   0  0  0  0  0  0  0  0  0  0  0  0
    8.3969   12.5773   24.7708 C   0  0  0  0  0  0  0  0  0  0  0  0
   10.2051   11.3211   22.8237 C   0  0  0  0  0  0  0  0  0  0  0  0
    9.5878   10.5044   23.9740 C   0  0  0  0  0  0  0  0  0  0  0  0
    7.9867   12.4390   23.2922 C   0  0  0  0  0  0  0  0  0  0  0  0
    9.2320   12.4261   22.3822 C   0  0  1  0  0  0  0  0  0  0  0  0
   11.2302   13.6681   21.1511 N   0  0  0  0  0  0  0  0  0  0  0  0
    9.0833   14.9553   21.7432 O   0  0  0  0  0  0  0  0  0  0  0  0
   10.6582   14.2523   23.5901 O   0  0  0  0  0  0  0  0  0  0  0  0
   10.0252   14.0065   22.3076 S   0  0  0  0  0  0  0  0  0  0  0  0
    7.7832    9.3364   24.3140 H   0  0  0  0  0  0  0  0  0  0  0  0
    8.3727    9.2694   22.6584 H   0  0  0  0  0  0  0  0  0  0  0  0
   10.3069   11.8684   25.5074 H   0  0  0  0  0  0  0  0  0  0  0  0
    8.9382   10.8875   26.0143 H   0  0  0  0  0  0  0  0  0  0  0  0
    6.9388   10.9484   22.0959 H   0  0  0  0  0  0  0  0  0  0  0  0
    6.3807   11.0426   23.7597 H   0  0  0  0  0  0  0  0  0  0  0  0
    7.5058   12.5437   25.4099 H   0  0  0  0  0  0  0  0  0  0  0  0
    8.8671   13.5484   24.9593 H   0  0  0  0  0  0  0  0  0  0  0  0
   11.1723   11.7309   23.1385 H   0  0  0  0  0  0  0  0  0  0  0  0
   10.4122   10.6591   21.9736 H   0  0  0  0  0  0  0  0  0  0  0  0
   10.2608    9.6894   24.2612 H   0  0  0  0  0  0  0  0  0  0  0  0
    7.3073   13.2527   23.0149 H   0  0  0  0  0  0  0  0  0  0  0  0
    8.9197   12.2358   21.3472 H   0  0  0  0  0  0  0  0  0  0  0  0
   12.0075   13.0584   21.4335 H   0  0  0  0  0  0  0  0  0  0  0  0
   10.9349   13.5375   20.1758 H   0  0  0  0  0  0  0  0  0  0  0  0
  1  3  1  0  0  0  0
  1  6  1  0  0  0  0
  2  4  1  0  0  0  0
  2  6  1  0  0  0  0
  3  7  1  0  0  0  0
  4  7  1  0  0  0  0
  5  6  1  0  0  0  0
  5  8  1  0  0  0  0
  7  8  1  0  0  0  0
  8 12  1  0  0  0  0
  9 12  1  0  0  0  0
 10 12  2  0  0  0  0
 11 12  2  0  0  0  0
  1 13  1  0  0  0  0
  1 14  1  0  0  0  0
  2 15  1  0  0  0  0
  2 16  1  0  0  0  0
  3 17  1  0  0  0  0
  3 18  1  0  0  0  0
  4 19  1  0  0  0  0
  4 20  1  0  0  0  0
  5 21  1  0  0  0  0
  5 22  1  0  0  0  0
  6 23  1  0  0  0  0
  7 24  1  0  0  0  0
  8 25  1  0  0  0  0
  9 26  1  0  0  0  0
  9 27  1  0  0  0  0
M  END
> <Mol Weight>
189,27

> <Formula>
C8H15NO2S

> <ID>
EN300-226068

> <name>
Sulfonamides

> <LogP>
0,76

> <ROCS_ShapeQuery>
x0446_0A_x1080_0A_x0929_0A_x0812_0A_x0719_0A_x1140_0A_x0528_0A_x0310_0A

> <ROCS_TanimotoCombo>
0.378 

> <ROCS_ShapeTanimoto>
0.176 

> <ROCS_ColorTanimoto>
0.202 

> <ROCS_RefTversky>
0.164 

> <ROCS_RefColorTversky>
0.217 

> <ROCS_RefTverskyCombo>
0.381 

> <ROCS_FitTversky>
1.766 

> <ROCS_FitColorTversky>
0.747 

> <ROCS_FitTverskyCombo>
2.513 

> <ROCS_ColorScore>
-7.774

> <ROCS_Overlap>
1928.770

> <ROCS_Rank>
19                  

$$$$
untitled-dbase-2634_36
  -OEChem-02082415043D

 40 40  0     0  0  0  0  0  0999 V2000
   11.0610   13.3843   23.1922 C   0  0  0  0  0  0  0  0  0  0  0  0
    9.2428   10.3330   24.5810 C   0  0  0  0  0  0  0  0  0  0  0  0
    8.5353   10.0222   23.2618 C   0  0  0  0  0  0  0  0  0  0  0  0
    9.0264   11.8235   24.8381 C   0  0  0  0  0  0  0  0  0  0  0  0
    7.9235   11.3396   22.7877 C   0  0  0  0  0  0  0  0  0  0  0  0
    8.7780   12.4256   23.4507 C   0  0  0  0  0  0  0  0  0  0  0  0
   13.5257   14.7645   23.6051 C   0  0  0  0  0  0  0  0  0  0  0  0
   14.0003   14.2569   21.1913 C   0  0  0  0  0  0  0  0  0  0  0  0
   12.0310   15.6903   21.8041 C   0  0  0  0  0  0  0  0  0  0  0  0
    8.0531   13.7655   23.5243 C   0  0  0  0  0  0  0  0  0  0  0  0
   12.9100   14.5149   22.2290 C   0  0  0  0  0  0  0  0  0  0  0  0
    6.5353   15.5334   22.2507 N   0  0  0  0  0  0  0  0  0  0  0  0
   10.0300   12.5968   22.7367 N   0  0  0  0  0  0  0  0  0  0  0  0
   11.0672   14.0324   24.2336 O   0  0  0  0  0  0  0  0  0  0  0  0
    8.9851   15.1927   21.5440 O   0  0  0  0  0  0  0  0  0  0  0  0
    7.2892   13.3843   21.0548 O   0  0  0  0  0  0  0  0  0  0  0  0
   12.0957   13.3391   22.3007 O   0  0  0  0  0  0  0  0  0  0  0  0
    7.7998   14.4371   21.9191 S   0  0  0  0  0  0  0  0  0  0  0  0
    8.8496    9.7282   25.4045 H   0  0  0  0  0  0  0  0  0  0  0  0
   10.3121   10.1088   24.4934 H   0  0  0  0  0  0  0  0  0  0  0  0
    9.2608    9.6511   22.5287 H   0  0  0  0  0  0  0  0  0  0  0  0
    7.7691    9.2498   23.3832 H   0  0  0  0  0  0  0  0  0  0  0  0
    8.1440   11.9536   25.4780 H   0  0  0  0  0  0  0  0  0  0  0  0
    9.8748   12.2792   25.3597 H   0  0  0  0  0  0  0  0  0  0  0  0
    7.9022   11.4147   21.6952 H   0  0  0  0  0  0  0  0  0  0  0  0
    6.8848   11.4005   23.1376 H   0  0  0  0  0  0  0  0  0  0  0  0
   12.7463   14.9501   24.3528 H   0  0  0  0  0  0  0  0  0  0  0  0
   14.1303   13.9141   23.9367 H   0  0  0  0  0  0  0  0  0  0  0  0
   14.1613   15.6573   23.5929 H   0  0  0  0  0  0  0  0  0  0  0  0
   13.5631   14.0772   20.2025 H   0  0  0  0  0  0  0  0  0  0  0  0
   14.5739   13.3575   21.4431 H   0  0  0  0  0  0  0  0  0  0  0  0
   14.6939   15.1005   21.1156 H   0  0  0  0  0  0  0  0  0  0  0  0
   11.5893   15.5114   20.8171 H   0  0  0  0  0  0  0  0  0  0  0  0
   11.2205   15.8668   22.5186 H   0  0  0  0  0  0  0  0  0  0  0  0
   12.6236   16.6081   21.7160 H   0  0  0  0  0  0  0  0  0  0  0  0
    8.6417   14.4824   24.0943 H   0  0  0  0  0  0  0  0  0  0  0  0
    7.0769   13.6417   23.9896 H   0  0  0  0  0  0  0  0  0  0  0  0
    6.7548   16.5368   22.2255 H   0  0  0  0  0  0  0  0  0  0  0  0
    5.5999   15.3050   21.8925 H   0  0  0  0  0  0  0  0  0  0  0  0
   10.1505   12.1110   21.8573 H   0  0  0  0  0  0  0  0  0  0  0  0
  1 13  1  0  0  0  0
  1 14  2  0  0  0  0
  1 17  1  0  0  0  0
  2  3  1  0  0  0  0
  2  4  1  0  0  0  0
  3  5  1  0  0  0  0
  4  6  1  0  0  0  0
  5  6  1  0  0  0  0
  6 10  1  0  0  0  0
  6 13  1  0  0  0  0
  7 11  1  0  0  0  0
  8 11  1  0  0  0  0
  9 11  1  0  0  0  0
 10 18  1  0  0  0  0
 11 17  1  0  0  0  0
 12 18  1  0  0  0  0
 15 18  2  0  0  0  0
 16 18  2  0  0  0  0
  2 19  1  0  0  0  0
  2 20  1  0  0  0  0
  3 21  1  0  0  0  0
  3 22  1  0  0  0  0
  4 23  1  0  0  0  0
  4 24  1  0  0  0  0
  5 25  1  0  0  0  0
  5 26  1  0  0  0  0
  7 27  1  0  0  0  0
  7 28  1  0  0  0  0
  7 29  1  0  0  0  0
  8 30  1  0  0  0  0
  8 31  1  0  0  0  0
  8 32  1  0  0  0  0
  9 33  1  0  0  0  0
  9 34  1  0  0  0  0
  9 35  1  0  0  0  0
 10 36  1  0  0  0  0
 10 37  1  0  0  0  0
 12 38  1  0  0  0  0
 12 39  1  0  0  0  0
 13 40  1  0  0  0  0
M  END
> <Mol Weight>
278,37

> <Formula>
C11H22N2O4S

> <ID>
EN300-1873712

> <name>
Sulfonamides

> <LogP>
0,59

> <ROCS_ShapeQuery>
x0446_0A_x1080_0A_x0929_0A_x0812_0A_x0719_0A_x1140_0A_x0528_0A_x0310_0A

> <ROCS_TanimotoCombo>
0.377 

> <ROCS_ShapeTanimoto>
0.208 

> <ROCS_ColorTanimoto>
0.169 

> <ROCS_RefTversky>
0.192 

> <ROCS_RefColorTversky>
0.179 

> <ROCS_RefTverskyCombo>
0.371 

> <ROCS_FitTversky>
1.692 

> <ROCS_FitColorTversky>
0.752 

> <ROCS_FitTverskyCombo>
2.443 

> <ROCS_ColorScore>
-6.399

> <ROCS_Overlap>
2263.997

> <ROCS_Rank>
20                  

$$$$
untitled-dbase-298_1
  -OEChem-02082415043D

 22 23  0     1  0  0  0  0  0999 V2000
    7.9223   10.2679   23.9030 C   0  0  0  0  0  0  0  0  0  0  0  0
    8.9710   10.1367   23.0765 C   0  0  0  0  0  0  0  0  0  0  0  0
    9.5870   11.6549   24.7025 C   0  0  0  0  0  0  0  0  0  0  0  0
    7.8016   12.7170   23.5515 C   0  0  0  0  0  0  0  0  0  0  0  0
    8.0614   11.6051   24.5934 C   0  0  1  0  0  0  0  0  0  0  0  0
    9.8011   11.3942   23.2060 C   0  0  2  0  0  0  0  0  0  0  0  0
    8.9860   12.5373   22.5608 C   0  0  2  0  0  0  0  0  0  0  0  0
   11.1037   13.4669   21.2561 N   0  0  0  0  0  0  0  0  0  0  0  0
    9.0996   15.0100   21.7242 O   0  0  0  0  0  0  0  0  0  0  0  0
   10.5904   14.2974   23.6360 O   0  0  0  0  0  0  0  0  0  0  0  0
    9.9349   14.0127   22.3710 S   0  0  0  0  0  0  0  0  0  0  0  0
    7.1058    9.5734   24.0182 H   0  0  0  0  0  0  0  0  0  0  0  0
    9.1553    9.3184   22.3992 H   0  0  0  0  0  0  0  0  0  0  0  0
    9.9645   12.6244   25.0429 H   0  0  0  0  0  0  0  0  0  0  0  0
   10.0046   10.8692   25.3454 H   0  0  0  0  0  0  0  0  0  0  0  0
    6.8372   12.5878   23.0478 H   0  0  0  0  0  0  0  0  0  0  0  0
    7.8120   13.7031   24.0289 H   0  0  0  0  0  0  0  0  0  0  0  0
    7.5220   11.6958   25.5365 H   0  0  0  0  0  0  0  0  0  0  0  0
   10.8434   11.2936   22.9007 H   0  0  0  0  0  0  0  0  0  0  0  0
    8.6293   12.2773   21.5575 H   0  0  0  0  0  0  0  0  0  0  0  0
   11.8136   12.8050   21.5930 H   0  0  0  0  0  0  0  0  0  0  0  0
   10.7982   13.2906   20.2911 H   0  0  0  0  0  0  0  0  0  0  0  0
  1  2  2  0  0  0  0
  1  5  1  0  0  0  0
  2  6  1  0  0  0  0
  3  5  1  0  0  0  0
  3  6  1  0  0  0  0
  4  5  1  0  0  0  0
  4  7  1  0  0  0  0
  6  7  1  0  0  0  0
  7 11  1  0  0  0  0
  8 11  1  0  0  0  0
  9 11  2  0  0  0  0
 10 11  2  0  0  0  0
  1 12  1  0  0  0  0
  2 13  1  0  0  0  0
  3 14  1  0  0  0  0
  3 15  1  0  0  0  0
  4 16  1  0  0  0  0
  4 17  1  0  0  0  0
  5 18  1  0  0  0  0
  6 19  1  0  0  0  0
  7 20  1  0  0  0  0
  8 21  1  0  0  0  0
  8 22  1  0  0  0  0
M  END
> <Mol Weight>
173,23

> <Formula>
C7H11NO2S

> <ID>
EN300-244737

> <name>
Sulfonamides

> <LogP>
-0,05

> <ROCS_ShapeQuery>
x0446_0A_x1080_0A_x0929_0A_x0812_0A_x0719_0A_x1140_0A_x0528_0A_x0310_0A

> <ROCS_TanimotoCombo>
0.377 

> <ROCS_ShapeTanimoto>
0.176 

> <ROCS_ColorTanimoto>
0.201 

> <ROCS_RefTversky>
0.163 

> <ROCS_RefColorTversky>
0.218 

> <ROCS_RefTverskyCombo>
0.381 

> <ROCS_FitTversky>
1.809 

> <ROCS_FitColorTversky>
0.723 

> <ROCS_FitTverskyCombo>
2.532 

> <ROCS_ColorScore>
-7.789

> <ROCS_Overlap>
1926.341

> <ROCS_Rank>
21                  

$$$$
untitled-dbase-1314_55
  -OEChem-02082415043D

 23 23  0     0  0  0  0  0  0999 V2000
    7.8423   10.3764   25.0234 C   0  0  0  0  0  0  0  0  0  0  0  0
    8.4899    9.4879   24.1650 C   0  0  0  0  0  0  0  0  0  0  0  0
    8.0668   11.7482   24.9063 C   0  0  0  0  0  0  0  0  0  0  0  0
    9.3620    9.9711   23.1896 C   0  0  0  0  0  0  0  0  0  0  0  0
    8.9390   12.2313   23.9308 C   0  0  0  0  0  0  0  0  0  0  0  0
    9.5866   11.3428   23.0724 C   0  0  0  0  0  0  0  0  0  0  0  0
    9.1593   13.6670   23.8257 C   0  0  0  0  0  0  0  0  0  0  0  0
    7.9776   14.5929   23.5332 C   0  0  0  0  0  0  0  0  0  0  0  0
    6.3427   15.8816   21.8848 N   0  0  0  0  0  0  0  0  0  0  0  0
   10.3005   14.1463   23.9733 O   0  0  0  0  0  0  0  0  0  0  0  0
    8.8149   15.5561   21.2532 O   0  0  0  0  0  0  0  0  0  0  0  0
    7.2583   13.5656   21.2408 O   0  0  0  0  0  0  0  0  0  0  0  0
   10.4409   11.7957   22.1117 O   0  0  0  0  0  0  0  0  0  0  0  0
    7.6848   14.8325   21.8105 S   0  0  0  0  0  0  0  0  0  0  0  0
    7.1631    9.9998   25.7830 H   0  0  0  0  0  0  0  0  0  0  0  0
    8.3150    8.4201   24.2571 H   0  0  0  0  0  0  0  0  0  0  0  0
    7.5563   12.4313   25.5804 H   0  0  0  0  0  0  0  0  0  0  0  0
    9.8632    9.2735   22.5240 H   0  0  0  0  0  0  0  0  0  0  0  0
    7.0611   14.1623   23.9446 H   0  0  0  0  0  0  0  0  0  0  0  0
    8.1720   15.5828   23.9539 H   0  0  0  0  0  0  0  0  0  0  0  0
    5.4456   15.4889   22.1955 H   0  0  0  0  0  0  0  0  0  0  0  0
    6.5059   16.8445   22.2038 H   0  0  0  0  0  0  0  0  0  0  0  0
   10.5002   12.7631   22.1462 H   0  0  0  0  0  0  0  0  0  0  0  0
  1  2  1  0  0  0  0
  1  3  2  0  0  0  0
  2  4  2  0  0  0  0
  3  5  1  0  0  0  0
  4  6  1  0  0  0  0
  5  6  2  0  0  0  0
  5  7  1  0  0  0  0
  6 13  1  0  0  0  0
  7  8  1  0  0  0  0
  7 10  2  0  0  0  0
  8 14  1  0  0  0  0
  9 14  1  0  0  0  0
 11 14  2  0  0  0  0
 12 14  2  0  0  0  0
  1 15  1  0  0  0  0
  2 16  1  0  0  0  0
  3 17  1  0  0  0  0
  4 18  1  0  0  0  0
  8 19  1  0  0  0  0
  8 20  1  0  0  0  0
  9 21  1  0  0  0  0
  9 22  1  0  0  0  0
 13 23  1  0  0  0  0
M  END
> <Mol Weight>
215,22

> <Formula>
C8H9NO4S

> <ID>
EN300-192036

> <name>
Sulfonamides

> <LogP>
0,50

> <ROCS_ShapeQuery>
x0446_0A_x1080_0A_x0929_0A_x0812_0A_x0719_0A_x1140_0A_x0528_0A_x0310_0A

> <ROCS_TanimotoCombo>
0.377 

> <ROCS_ShapeTanimoto>
0.193 

> <ROCS_ColorTanimoto>
0.184 

> <ROCS_RefTversky>
0.178 

> <ROCS_RefColorTversky>
0.193 

> <ROCS_RefTverskyCombo>
0.370 

> <ROCS_FitTversky>
1.776 

> <ROCS_FitColorTversky>
0.807 

> <ROCS_FitTverskyCombo>
2.582 

> <ROCS_ColorScore>
-6.871

> <ROCS_Overlap>
2098.058

> <ROCS_Rank>
22                  

$$$$
untitled-dbase-1623_11
  -OEChem-02082415043D

 25 26  0     0  0  0  0  0  0999 V2000
   11.9847   11.5003   23.0972 C   0  0  0  0  0  0  0  0  0  0  0  0
   11.5720   10.1669   23.0051 C   0  0  0  0  0  0  0  0  0  0  0  0
   11.0931   12.5098   23.4868 C   0  0  0  0  0  0  0  0  0  0  0  0
   10.2568    9.7913   23.2975 C   0  0  0  0  0  0  0  0  0  0  0  0
    9.7709   12.1475   23.7829 C   0  0  0  0  0  0  0  0  0  0  0  0
    9.3992   10.8183   23.6806 C   0  0  0  0  0  0  0  0  0  0  0  0
    8.5873   12.7910   24.1936 C   0  0  0  0  0  0  0  0  0  0  0  0
    8.3825   14.2241   24.4642 C   0  0  0  0  0  0  0  0  0  0  0  0
    7.3031   14.8850   23.5891 C   0  0  0  0  0  0  0  0  0  0  0  0
    7.5674   11.9392   24.3347 N   0  0  0  0  0  0  0  0  0  0  0  0
    6.2978   15.5614   21.2263 N   0  0  0  0  0  0  0  0  0  0  0  0
    8.8453   15.5306   21.5811 O   0  0  0  0  0  0  0  0  0  0  0  0
    7.5776   13.3463   21.4951 O   0  0  0  0  0  0  0  0  0  0  0  0
    8.0844   10.6913   24.0091 O   0  0  0  0  0  0  0  0  0  0  0  0
    7.6541   14.7491   21.8643 S   0  0  0  0  0  0  0  0  0  0  0  0
   13.0144   11.7584   22.8626 H   0  0  0  0  0  0  0  0  0  0  0  0
   12.2875    9.4072   22.7002 H   0  0  0  0  0  0  0  0  0  0  0  0
   11.4269   13.5403   23.5537 H   0  0  0  0  0  0  0  0  0  0  0  0
    9.9275    8.7617   23.2282 H   0  0  0  0  0  0  0  0  0  0  0  0
    9.3255   14.7861   24.2993 H   0  0  0  0  0  0  0  0  0  0  0  0
    8.1306   14.4155   25.5290 H   0  0  0  0  0  0  0  0  0  0  0  0
    6.3295   14.4063   23.7353 H   0  0  0  0  0  0  0  0  0  0  0  0
    7.1998   15.9510   23.8133 H   0  0  0  0  0  0  0  0  0  0  0  0
    6.4487   16.4859   20.8043 H   0  0  0  0  0  0  0  0  0  0  0  0
    5.5854   14.9983   20.7458 H   0  0  0  0  0  0  0  0  0  0  0  0
  1  2  1  0  0  0  0
  1  3  2  0  0  0  0
  2  4  2  0  0  0  0
  3  5  1  0  0  0  0
  4  6  1  0  0  0  0
  5  6  2  0  0  0  0
  5  7  1  0  0  0  0
  6 14  1  0  0  0  0
  7  8  1  0  0  0  0
  7 10  2  0  0  0  0
  8  9  1  0  0  0  0
  9 15  1  0  0  0  0
 10 14  1  0  0  0  0
 11 15  1  0  0  0  0
 12 15  2  0  0  0  0
 13 15  2  0  0  0  0
  1 16  1  0  0  0  0
  2 17  1  0  0  0  0
  3 18  1  0  0  0  0
  4 19  1  0  0  0  0
  8 20  1  0  0  0  0
  8 21  1  0  0  0  0
  9 22  1  0  0  0  0
  9 23  1  0  0  0  0
 11 24  1  0  0  0  0
 11 25  1  0  0  0  0
M  END
> <Mol Weight>
226,25

> <Formula>
C9H10N2O3S

> <ID>
EN300-1619017

> <name>
Sulfonamides

> <LogP>
0,04

> <ROCS_ShapeQuery>
x0446_0A_x1080_0A_x0929_0A_x0812_0A_x0719_0A_x1140_0A_x0528_0A_x0310_0A

> <ROCS_TanimotoCombo>
0.377 

> <ROCS_ShapeTanimoto>
0.210 

> <ROCS_ColorTanimoto>
0.167 

> <ROCS_RefTversky>
0.192 

> <ROCS_RefColorTversky>
0.174 

> <ROCS_RefTverskyCombo>
0.365 

> <ROCS_FitTversky>
1.819 

> <ROCS_FitColorTversky>
0.817 

> <ROCS_FitTverskyCombo>
2.636 

> <ROCS_ColorScore>
-6.195

> <ROCS_Overlap>
2259.117

> <ROCS_Rank>
23                  

$$$$
untitled-dbase-1517_20
  -OEChem-02082415043D

 25 26  0     0  0  0  0  0  0999 V2000
   11.7076   10.7652   22.5282 C   0  0  0  0  0  0  0  0  0  0  0  0
    7.3907   12.0290   24.7566 C   0  0  0  0  0  0  0  0  0  0  0  0
    8.5118   12.7504   24.3725 C   0  0  0  0  0  0  0  0  0  0  0  0
   11.7953   12.1352   22.7420 C   0  0  0  0  0  0  0  0  0  0  0  0
   10.5646   10.0675   22.9266 C   0  0  0  0  0  0  0  0  0  0  0  0
    7.3885   10.6718   24.5059 C   0  0  0  0  0  0  0  0  0  0  0  0
    9.5896   12.1021   23.7545 C   0  0  0  0  0  0  0  0  0  0  0  0
   10.7391   12.8041   23.3538 C   0  0  0  0  0  0  0  0  0  0  0  0
    9.4937   10.7110   23.5408 C   0  0  0  0  0  0  0  0  0  0  0  0
   10.8821   14.2797   23.5608 C   0  0  0  0  0  0  0  0  0  0  0  0
    8.4070   10.0083   23.9124 N   0  0  0  0  0  0  0  0  0  0  0  0
   11.5471   13.9659   21.0092 N   0  0  0  0  0  0  0  0  0  0  0  0
    9.2833   15.0175   21.6304 O   0  0  0  0  0  0  0  0  0  0  0  0
   11.4092   16.3258   22.0234 O   0  0  0  0  0  0  0  0  0  0  0  0
   10.6899   15.0630   21.9942 S   0  0  0  0  0  0  0  0  0  0  0  0
   12.5261   10.2353   22.0501 H   0  0  0  0  0  0  0  0  0  0  0  0
    6.5479   12.5135   25.2353 H   0  0  0  0  0  0  0  0  0  0  0  0
    8.5243   13.8204   24.5642 H   0  0  0  0  0  0  0  0  0  0  0  0
   12.6869   12.6713   22.4285 H   0  0  0  0  0  0  0  0  0  0  0  0
   10.5205    8.9946   22.7484 H   0  0  0  0  0  0  0  0  0  0  0  0
    6.5391   10.0567   24.7845 H   0  0  0  0  0  0  0  0  0  0  0  0
   11.8671   14.5453   23.9556 H   0  0  0  0  0  0  0  0  0  0  0  0
   10.1173   14.6757   24.2353 H   0  0  0  0  0  0  0  0  0  0  0  0
   11.0047   13.3794   20.3632 H   0  0  0  0  0  0  0  0  0  0  0  0
   12.4526   14.2704   20.6311 H   0  0  0  0  0  0  0  0  0  0  0  0
  1  4  2  0  0  0  0
  1  5  1  0  0  0  0
  2  3  2  0  0  0  0
  2  6  1  0  0  0  0
  3  7  1  0  0  0  0
  4  8  1  0  0  0  0
  5  9  2  0  0  0  0
  6 11  2  0  0  0  0
  7  8  2  0  0  0  0
  7  9  1  0  0  0  0
  8 10  1  0  0  0  0
  9 11  1  0  0  0  0
 10 15  1  0  0  0  0
 12 15  1  0  0  0  0
 13 15  2  0  0  0  0
 14 15  2  0  0  0  0
  1 16  1  0  0  0  0
  2 17  1  0  0  0  0
  3 18  1  0  0  0  0
  4 19  1  0  0  0  0
  5 20  1  0  0  0  0
  6 21  1  0  0  0  0
 10 22  1  0  0  0  0
 10 23  1  0  0  0  0
 12 24  1  0  0  0  0
 12 25  1  0  0  0  0
M  END
> <Mol Weight>
222,26

> <Formula>
C10H10N2O2S

> <ID>
EN300-261587

> <name>
Sulfonamides

> <LogP>
0,50

> <ROCS_ShapeQuery>
x0446_0A_x1080_0A_x0929_0A_x0812_0A_x0719_0A_x1140_0A_x0528_0A_x0310_0A

> <ROCS_TanimotoCombo>
0.376 

> <ROCS_ShapeTanimoto>
0.214 

> <ROCS_ColorTanimoto>
0.162 

> <ROCS_RefTversky>
0.195 

> <ROCS_RefColorTversky>
0.169 

> <ROCS_RefTverskyCombo>
0.364 

> <ROCS_FitTversky>
1.845 

> <ROCS_FitColorTversky>
0.798 

> <ROCS_FitTverskyCombo>
2.643 

> <ROCS_ColorScore>
-6.039

> <ROCS_Overlap>
2297.177

> <ROCS_Rank>
24                  

$$$$
untitled-dbase-1168_15
  -OEChem-02082415043D

 24 25  0     1  0  0  0  0  0999 V2000
    8.2768    9.8971   23.9159 C   0  0  0  0  0  0  0  0  0  0  0  0
    8.3881   10.8111   25.1440 C   0  0  0  0  0  0  0  0  0  0  0  0
   10.2721   11.3341   22.9849 C   0  0  0  0  0  0  0  0  0  0  0  0
    8.9356   10.6642   22.8021 C   0  0  2  0  0  0  0  0  0  0  0  0
    8.9880   12.1109   23.1856 C   0  0  1  0  0  0  0  0  0  0  0  0
    8.3762   12.2197   24.5554 C   0  0  0  0  0  0  0  0  0  0  0  0
    8.6329   13.1706   22.1908 C   0  0  0  0  0  0  0  0  0  0  0  0
   11.0139   13.6799   21.1315 N   0  0  0  0  0  0  0  0  0  0  0  0
    9.2896   15.5706   21.3933 O   0  0  0  0  0  0  0  0  0  0  0  0
   10.4081   14.6174   23.4490 O   0  0  0  0  0  0  0  0  0  0  0  0
    7.0988   12.6653   24.4653 F   0  0  0  0  0  0  0  0  0  0  0  0
    9.0588   13.0843   25.3364 F   0  0  0  0  0  0  0  0  0  0  0  0
    9.8555   14.4476   22.1178 S   0  0  0  0  0  0  0  0  0  0  0  0
    8.7590    8.9305   24.0877 H   0  0  0  0  0  0  0  0  0  0  0  0
    7.2238    9.7231   23.6679 H   0  0  0  0  0  0  0  0  0  0  0  0
    7.5701   10.6433   25.8504 H   0  0  0  0  0  0  0  0  0  0  0  0
    9.3330   10.6273   25.6684 H   0  0  0  0  0  0  0  0  0  0  0  0
   10.8727   11.0826   23.8504 H   0  0  0  0  0  0  0  0  0  0  0  0
   10.8598   11.5252   22.0941 H   0  0  0  0  0  0  0  0  0  0  0  0
    8.6264   10.3707   21.8102 H   0  0  0  0  0  0  0  0  0  0  0  0
    7.6826   13.6631   22.4418 H   0  0  0  0  0  0  0  0  0  0  0  0
    8.5471   12.7626   21.1737 H   0  0  0  0  0  0  0  0  0  0  0  0
   11.1299   14.0257   20.1709 H   0  0  0  0  0  0  0  0  0  0  0  0
   11.8916   13.3764   21.5710 H   0  0  0  0  0  0  0  0  0  0  0  0
  1  2  1  0  0  0  0
  1  4  1  0  0  0  0
  2  6  1  0  0  0  0
  3  4  1  1  0  0  0
  3  5  1  0  0  0  0
  4  5  1  0  0  0  0
  5  6  1  0  0  0  0
  5  7  1  6  0  0  0
  6 11  1  0  0  0  0
  6 12  1  0  0  0  0
  7 13  1  0  0  0  0
  8 13  1  0  0  0  0
  9 13  2  0  0  0  0
 10 13  2  0  0  0  0
  1 14  1  0  0  0  0
  1 15  1  0  0  0  0
  2 16  1  0  0  0  0
  2 17  1  0  0  0  0
  3 18  1  0  0  0  0
  3 19  1  0  0  0  0
  4 20  1  0  0  0  0
  7 21  1  0  0  0  0
  7 22  1  0  0  0  0
  8 23  1  0  0  0  0
  8 24  1  0  0  0  0
M  END
> <Mol Weight>
211,23

> <Formula>
C7H11F2NO2S

> <ID>
EN300-37443701

> <name>
Sulfonamides

> <LogP>
-0,09

> <ROCS_ShapeQuery>
x0446_0A_x1080_0A_x0929_0A_x0812_0A_x0719_0A_x1140_0A_x0528_0A_x0310_0A

> <ROCS_TanimotoCombo>
0.376 

> <ROCS_ShapeTanimoto>
0.194 

> <ROCS_ColorTanimoto>
0.182 

> <ROCS_RefTversky>
0.178 

> <ROCS_RefColorTversky>
0.190 

> <ROCS_RefTverskyCombo>
0.368 

> <ROCS_FitTversky>
1.829 

> <ROCS_FitColorTversky>
0.814 

> <ROCS_FitTverskyCombo>
2.643 

> <ROCS_ColorScore>
-6.779

> <ROCS_Overlap>
2102.049

> <ROCS_Rank>
25                  

$$$$
untitled-dbase-1256_4
  -OEChem-02082415043D

 24 24  0     0  0  0  0  0  0999 V2000
    7.8269   10.3884   25.0381 C   0  0  0  0  0  0  0  0  0  0  0  0
    8.4649    9.4899   24.1830 C   0  0  0  0  0  0  0  0  0  0  0  0
    8.0615   11.7577   24.9120 C   0  0  0  0  0  0  0  0  0  0  0  0
    9.3376    9.9606   23.2019 C   0  0  0  0  0  0  0  0  0  0  0  0
    8.9341   12.2283   23.9309 C   0  0  0  0  0  0  0  0  0  0  0  0
    9.5722   11.3298   23.0758 C   0  0  0  0  0  0  0  0  0  0  0  0
    9.1585   13.6647   23.8253 C   0  0  0  0  0  0  0  0  0  0  0  0
    7.9786   14.5928   23.5364 C   0  0  0  0  0  0  0  0  0  0  0  0
   10.4611   11.7856   22.0769 N   0  0  0  0  0  0  0  0  0  0  0  0
    6.3425   15.8841   21.8911 N   0  0  0  0  0  0  0  0  0  0  0  0
   10.3014   14.1393   23.9699 O   0  0  0  0  0  0  0  0  0  0  0  0
    8.8125   15.5527   21.2537 O   0  0  0  0  0  0  0  0  0  0  0  0
    7.2514   13.5656   21.2464 O   0  0  0  0  0  0  0  0  0  0  0  0
    7.6821   14.8319   21.8142 S   0  0  0  0  0  0  0  0  0  0  0  0
    7.1469   10.0225   25.8017 H   0  0  0  0  0  0  0  0  0  0  0  0
    8.2826    8.4238   24.2818 H   0  0  0  0  0  0  0  0  0  0  0  0
    7.5589   12.4469   25.5858 H   0  0  0  0  0  0  0  0  0  0  0  0
    9.8288    9.2506   22.5414 H   0  0  0  0  0  0  0  0  0  0  0  0
    7.0621   14.1645   23.9503 H   0  0  0  0  0  0  0  0  0  0  0  0
    8.1762   15.5825   23.9559 H   0  0  0  0  0  0  0  0  0  0  0  0
   10.9404   11.1162   21.5113 H   0  0  0  0  0  0  0  0  0  0  0  0
   10.6652   12.7615   22.0174 H   0  0  0  0  0  0  0  0  0  0  0  0
    5.4452   15.4936   22.2043 H   0  0  0  0  0  0  0  0  0  0  0  0
    6.5086   16.8468   22.2091 H   0  0  0  0  0  0  0  0  0  0  0  0
  1  2  1  0  0  0  0
  1  3  2  0  0  0  0
  2  4  2  0  0  0  0
  3  5  1  0  0  0  0
  4  6  1  0  0  0  0
  5  6  2  0  0  0  0
  5  7  1  0  0  0  0
  6  9  1  0  0  0  0
  7  8  1  0  0  0  0
  7 11  2  0  0  0  0
  8 14  1  0  0  0  0
 10 14  1  0  0  0  0
 12 14  2  0  0  0  0
 13 14  2  0  0  0  0
  1 15  1  0  0  0  0
  2 16  1  0  0  0  0
  3 17  1  0  0  0  0
  4 18  1  0  0  0  0
  8 19  1  0  0  0  0
  8 20  1  0  0  0  0
  9 21  1  0  0  0  0
  9 22  1  0  0  0  0
 10 23  1  0  0  0  0
 10 24  1  0  0  0  0
M  END
> <Mol Weight>
214,24

> <Formula>
C8H10N2O3S

> <ID>
EN300-195374

> <name>
Sulfonamides

> <LogP>
-0,03

> <ROCS_ShapeQuery>
x0446_0A_x1080_0A_x0929_0A_x0812_0A_x0719_0A_x1140_0A_x0528_0A_x0310_0A

> <ROCS_TanimotoCombo>
0.376 

> <ROCS_ShapeTanimoto>
0.192 

> <ROCS_ColorTanimoto>
0.183 

> <ROCS_RefTversky>
0.177 

> <ROCS_RefColorTversky>
0.192 

> <ROCS_RefTverskyCombo>
0.369 

> <ROCS_FitTversky>
1.778 

> <ROCS_FitColorTversky>
0.804 

> <ROCS_FitTverskyCombo>
2.582 

> <ROCS_ColorScore>
-6.843

> <ROCS_Overlap>
2092.036

> <ROCS_Rank>
26                  

$$$$
untitled-dbase-1716_7
  -OEChem-02082415043D

 21 22  0     0  0  0  0  0  0999 V2000
    5.7119   12.2461   24.4375 C   0  0  0  0  0  0  0  0  0  0  0  0
    6.4605   13.3999   24.1057 C   0  0  0  0  0  0  0  0  0  0  0  0
    6.2751   10.9623   24.5346 C   0  0  0  0  0  0  0  0  0  0  0  0
    7.8402   13.3749   23.8406 C   0  0  0  0  0  0  0  0  0  0  0  0
    7.6645   10.8757   24.2777 C   0  0  0  0  0  0  0  0  0  0  0  0
    8.4629   12.1063   23.9236 C   0  0  0  0  0  0  0  0  0  0  0  0
    8.5558   14.6376   23.4975 C   0  0  0  0  0  0  0  0  0  0  0  0
    8.4089    9.7588   24.3126 N   0  0  0  0  0  0  0  0  0  0  0  0
    9.7630   11.8458   23.7118 N   0  0  0  0  0  0  0  0  0  0  0  0
   10.2914   13.6051   21.7733 N   0  0  0  0  0  0  0  0  0  0  0  0
    7.8294   13.9126   21.0946 O   0  0  0  0  0  0  0  0  0  0  0  0
    9.3060   15.9456   21.3635 O   0  0  0  0  0  0  0  0  0  0  0  0
    9.9614   10.2125   23.9362 S   0  0  0  0  0  0  0  0  0  0  0  0
    8.9120   14.6075   21.7704 S   0  0  0  0  0  0  0  0  0  0  0  0
    4.6454   12.3597   24.6270 H   0  0  0  0  0  0  0  0  0  0  0  0
    5.9305   14.3509   24.0557 H   0  0  0  0  0  0  0  0  0  0  0  0
    5.6749   10.0970   24.7910 H   0  0  0  0  0  0  0  0  0  0  0  0
    9.5053   14.7372   24.0358 H   0  0  0  0  0  0  0  0  0  0  0  0
    7.9497   15.5278   23.7010 H   0  0  0  0  0  0  0  0  0  0  0  0
   11.1622   13.9913   22.1585 H   0  0  0  0  0  0  0  0  0  0  0  0
   10.1564   12.6068   21.9751 H   0  0  0  0  0  0  0  0  0  0  0  0
  1  2  1  0  0  0  0
  1  3  2  0  0  0  0
  2  4  2  0  0  0  0
  3  5  1  0  0  0  0
  4  6  1  0  0  0  0
  4  7  1  0  0  0  0
  5  6  1  0  0  0  0
  5  8  2  0  0  0  0
  6  9  2  0  0  0  0
  7 14  1  0  0  0  0
  8 13  1  0  0  0  0
  9 13  1  0  0  0  0
 10 14  1  0  0  0  0
 11 14  2  0  0  0  0
 12 14  2  0  0  0  0
  1 15  1  0  0  0  0
  2 16  1  0  0  0  0
  3 17  1  0  0  0  0
  7 18  1  0  0  0  0
  7 19  1  0  0  0  0
 10 20  1  0  0  0  0
 10 21  1  0  0  0  0
M  END
> <Mol Weight>
229,27

> <Formula>
C7H7N3O2S2

> <ID>
EN300-378532

> <name>
Sulfonamides

> <LogP>
0,49

> <ROCS_ShapeQuery>
x0446_0A_x1080_0A_x0929_0A_x0812_0A_x0719_0A_x1140_0A_x0528_0A_x0310_0A

> <ROCS_TanimotoCombo>
0.375 

> <ROCS_ShapeTanimoto>
0.190 

> <ROCS_ColorTanimoto>
0.185 

> <ROCS_RefTversky>
0.176 

> <ROCS_RefColorTversky>
0.193 

> <ROCS_RefTverskyCombo>
0.369 

> <ROCS_FitTversky>
1.755 

> <ROCS_FitColorTversky>
0.809 

> <ROCS_FitTverskyCombo>
2.564 

> <ROCS_ColorScore>
-6.904

> <ROCS_Overlap>
2075.183

> <ROCS_Rank>
27                  

$$$$
untitled-dbase-2592_467
  -OEChem-02082415043D

 35 35  0     0  0  0  0  0  0999 V2000
    8.5906   12.8927   24.0217 C   0  0  0  0  0  0  0  0  0  0  0  0
    9.4029   12.7753   22.9682 C   0  0  0  0  0  0  0  0  0  0  0  0
    9.6631   11.4426   22.3848 C   0  0  0  0  0  0  0  0  0  0  0  0
    8.1613   10.5013   24.1413 C   0  0  0  0  0  0  0  0  0  0  0  0
    5.9566   15.4863   22.5072 C   0  0  0  0  0  0  0  0  0  0  0  0
    5.1394   15.5563   23.7880 C   0  0  0  0  0  0  0  0  0  0  0  0
    5.5159   14.4845   24.8131 C   0  0  0  0  0  0  0  0  0  0  0  0
    5.2611   13.0577   24.3206 C   0  0  0  0  0  0  0  0  0  0  0  0
    5.6264   12.0284   25.3956 C   0  0  0  0  0  0  0  0  0  0  0  0
    7.1074   12.0643   25.7599 C   0  0  0  0  0  0  0  0  0  0  0  0
    9.0132   10.4023   23.0333 N   0  0  0  0  0  0  0  0  0  0  0  0
    7.9602   11.8128   24.6306 N   0  0  0  0  0  0  0  0  0  0  0  0
   11.0663   13.6728   21.0158 N   0  0  0  0  0  0  0  0  0  0  0  0
   10.3952   11.2910   21.4118 O   0  0  0  0  0  0  0  0  0  0  0  0
    7.6376    9.4992   24.6328 O   0  0  0  0  0  0  0  0  0  0  0  0
    9.0447   15.0430   21.7846 O   0  0  0  0  0  0  0  0  0  0  0  0
   11.0071   14.7665   23.3322 O   0  0  0  0  0  0  0  0  0  0  0  0
   10.1037   14.2084   22.3355 S   0  0  0  0  0  0  0  0  0  0  0  0
    8.3754   13.8577   24.4706 H   0  0  0  0  0  0  0  0  0  0  0  0
    7.0278   15.5578   22.7199 H   0  0  0  0  0  0  0  0  0  0  0  0
    5.7725   14.5551   21.9635 H   0  0  0  0  0  0  0  0  0  0  0  0
    5.6867   16.3149   21.8443 H   0  0  0  0  0  0  0  0  0  0  0  0
    4.0730   15.4824   23.5450 H   0  0  0  0  0  0  0  0  0  0  0  0
    5.2924   16.5415   24.2445 H   0  0  0  0  0  0  0  0  0  0  0  0
    6.5707   14.5969   25.0921 H   0  0  0  0  0  0  0  0  0  0  0  0
    4.9282   14.6602   25.7227 H   0  0  0  0  0  0  0  0  0  0  0  0
    5.8502   12.8659   23.4173 H   0  0  0  0  0  0  0  0  0  0  0  0
    4.2041   12.9458   24.0508 H   0  0  0  0  0  0  0  0  0  0  0  0
    5.0188   12.2026   26.2922 H   0  0  0  0  0  0  0  0  0  0  0  0
    5.3820   11.0237   25.0298 H   0  0  0  0  0  0  0  0  0  0  0  0
    7.3419   11.3209   26.5283 H   0  0  0  0  0  0  0  0  0  0  0  0
    7.3747   13.0525   26.1468 H   0  0  0  0  0  0  0  0  0  0  0  0
    9.1686    9.4683   22.6643 H   0  0  0  0  0  0  0  0  0  0  0  0
   10.5708   13.3043   20.1941 H   0  0  0  0  0  0  0  0  0  0  0  0
   11.9032   13.1235   21.2502 H   0  0  0  0  0  0  0  0  0  0  0  0
  1  2  2  0  0  0  0
  1 12  1  0  0  0  0
  2  3  1  0  0  0  0
  2 18  1  0  0  0  0
  3 11  1  0  0  0  0
  3 14  2  0  0  0  0
  4 11  1  0  0  0  0
  4 12  1  0  0  0  0
  4 15  2  0  0  0  0
  5  6  1  0  0  0  0
  6  7  1  0  0  0  0
  7  8  1  0  0  0  0
  8  9  1  0  0  0  0
  9 10  1  0  0  0  0
 10 12  1  0  0  0  0
 13 18  1  0  0  0  0
 16 18  2  0  0  0  0
 17 18  2  0  0  0  0
  1 19  1  0  0  0  0
  5 20  1  0  0  0  0
  5 21  1  0  0  0  0
  5 22  1  0  0  0  0
  6 23  1  0  0  0  0
  6 24  1  0  0  0  0
  7 25  1  0  0  0  0
  7 26  1  0  0  0  0
  8 27  1  0  0  0  0
  8 28  1  0  0  0  0
  9 29  1  0  0  0  0
  9 30  1  0  0  0  0
 10 31  1  0  0  0  0
 10 32  1  0  0  0  0
 11 33  1  0  0  0  0
 13 34  1  0  0  0  0
 13 35  1  0  0  0  0
M  END
> <Mol Weight>
275,32

> <Formula>
C10H17N3O4S

> <ID>
EN300-366415

> <name>
Sulfonamides

> <LogP>
0,24

> <ROCS_ShapeQuery>
x0446_0A_x1080_0A_x0929_0A_x0812_0A_x0719_0A_x1140_0A_x0528_0A_x0310_0A

> <ROCS_TanimotoCombo>
0.375 

> <ROCS_ShapeTanimoto>
0.216 

> <ROCS_ColorTanimoto>
0.159 

> <ROCS_RefTversky>
0.197 

> <ROCS_RefColorTversky>
0.177 

> <ROCS_RefTverskyCombo>
0.375 

> <ROCS_FitTversky>
1.753 

> <ROCS_FitColorTversky>
0.610 

> <ROCS_FitTverskyCombo>
2.363 

> <ROCS_ColorScore>
-6.349

> <ROCS_Overlap>
2330.376

> <ROCS_Rank>
28                  

$$$$
untitled-dbase-2462_734
  -OEChem-02082415043D

 25 25  0     0  0  0  0  0  0999 V2000
   10.3374   11.7692   23.1870 C   0  0  0  0  0  0  0  0  0  0  0  0
    9.8492   10.4857   22.9426 C   0  0  0  0  0  0  0  0  0  0  0  0
    7.7756   11.0657   24.0384 C   0  0  0  0  0  0  0  0  0  0  0  0
    9.5447   12.7010   23.8572 C   0  0  0  0  0  0  0  0  0  0  0  0
    8.2638   12.3493   24.2829 C   0  0  0  0  0  0  0  0  0  0  0  0
    8.5683   10.1339   23.3682 C   0  0  0  0  0  0  0  0  0  0  0  0
   10.3315   14.5250   21.7759 C   0  0  0  0  0  0  0  0  0  0  0  0
   10.9793   14.4565   23.1387 C   0  0  0  0  0  0  0  0  0  0  0  0
   10.9914   13.7564   20.8421 N   0  0  0  0  0  0  0  0  0  0  0  0
    5.8497   12.5607   25.3928 N   0  0  0  0  0  0  0  0  0  0  0  0
    9.3305   15.1924   21.5316 O   0  0  0  0  0  0  0  0  0  0  0  0
    7.8694   13.8010   26.4066 O   0  0  0  0  0  0  0  0  0  0  0  0
    6.9218   14.5803   24.2060 O   0  0  0  0  0  0  0  0  0  0  0  0
   10.0427   13.9486   24.0865 O   0  0  0  0  0  0  0  0  0  0  0  0
    7.2506   13.5002   25.1243 S   0  0  0  0  0  0  0  0  0  0  0  0
    7.9681    8.5489   23.0695 Cl  0  0  0  0  0  0  0  0  0  0  0  0
   11.3369   12.0359   22.8542 H   0  0  0  0  0  0  0  0  0  0  0  0
   10.4787    9.7694   22.4207 H   0  0  0  0  0  0  0  0  0  0  0  0
    6.7774   10.7923   24.3729 H   0  0  0  0  0  0  0  0  0  0  0  0
   11.2937   15.4590   23.4446 H   0  0  0  0  0  0  0  0  0  0  0  0
   11.8468   13.7908   23.0972 H   0  0  0  0  0  0  0  0  0  0  0  0
   10.6667   13.7082   19.8820 H   0  0  0  0  0  0  0  0  0  0  0  0
   11.8188   13.2150   21.0718 H   0  0  0  0  0  0  0  0  0  0  0  0
    5.6533   12.2528   26.3531 H   0  0  0  0  0  0  0  0  0  0  0  0
    5.0079   12.7848   24.8484 H   0  0  0  0  0  0  0  0  0  0  0  0
  1  2  2  0  0  0  0
  1  4  1  0  0  0  0
  2  6  1  0  0  0  0
  3  5  1  0  0  0  0
  3  6  2  0  0  0  0
  4  5  2  0  0  0  0
  4 14  1  0  0  0  0
  5 15  1  0  0  0  0
  6 16  1  0  0  0  0
  7  8  1  0  0  0  0
  7  9  1  0  0  0  0
  7 11  2  0  0  0  0
  8 14  1  0  0  0  0
 10 15  1  0  0  0  0
 12 15  2  0  0  0  0
 13 15  2  0  0  0  0
  1 17  1  0  0  0  0
  2 18  1  0  0  0  0
  3 19  1  0  0  0  0
  8 20  1  0  0  0  0
  8 21  1  0  0  0  0
  9 22  1  0  0  0  0
  9 23  1  0  0  0  0
 10 24  1  0  0  0  0
 10 25  1  0  0  0  0
M  END
> <Mol Weight>
264,68

> <Formula>
C8H9ClN2O4S

> <ID>
EN300-123359

> <name>
Sulfonamides

> <LogP>
-0,30

> <ROCS_ShapeQuery>
x0446_0A_x1080_0A_x0929_0A_x0812_0A_x0719_0A_x1140_0A_x0528_0A_x0310_0A

> <ROCS_TanimotoCombo>
0.375 

> <ROCS_ShapeTanimoto>
0.214 

> <ROCS_ColorTanimoto>
0.160 

> <ROCS_RefTversky>
0.195 

> <ROCS_RefColorTversky>
0.171 

> <ROCS_RefTverskyCombo>
0.367 

> <ROCS_FitTversky>
1.834 

> <ROCS_FitColorTversky>
0.717 

> <ROCS_FitTverskyCombo>
2.551 

> <ROCS_ColorScore>
-6.108

> <ROCS_Overlap>
2305.304

> <ROCS_Rank>
29                  

$$$$
untitled-dbase-791_0
  -OEChem-02082415043D

 18 19  0     0  0  0  0  0  0999 V2000
    6.3602   12.9580   24.9585 C   0  0  0  0  0  0  0  0  0  0  0  0
    9.1749   10.2404   23.2042 C   0  0  0  0  0  0  0  0  0  0  0  0
    8.0690   12.6350   23.7938 C   0  0  0  0  0  0  0  0  0  0  0  0
    9.1649   12.6095   23.0332 C   0  0  0  0  0  0  0  0  0  0  0  0
    7.5278   11.3537   24.2668 C   0  0  0  0  0  0  0  0  0  0  0  0
    7.2602   13.6191   24.2825 N   0  0  0  0  0  0  0  0  0  0  0  0
    6.4685   11.5711   24.9871 N   0  0  0  0  0  0  0  0  0  0  0  0
    8.1117   10.1530   23.9505 N   0  0  0  0  0  0  0  0  0  0  0  0
    9.7405   11.3992   22.7238 N   0  0  0  0  0  0  0  0  0  0  0  0
   11.1910   13.6417   21.5453 N   0  0  0  0  0  0  0  0  0  0  0  0
    8.8609   14.7027   21.5507 O   0  0  0  0  0  0  0  0  0  0  0  0
   10.2918   14.8601   23.6123 O   0  0  0  0  0  0  0  0  0  0  0  0
    9.8131   14.0928   22.4699 S   0  0  0  0  0  0  0  0  0  0  0  0
    5.5391   13.4595   25.4929 H   0  0  0  0  0  0  0  0  0  0  0  0
    9.7199    9.3356   22.8927 H   0  0  0  0  0  0  0  0  0  0  0  0
   10.5710   11.3966   22.1427 H   0  0  0  0  0  0  0  0  0  0  0  0
   12.1129   13.8946   21.9229 H   0  0  0  0  0  0  0  0  0  0  0  0
   11.1290   13.7843   20.5290 H   0  0  0  0  0  0  0  0  0  0  0  0
  1  6  2  0  0  0  0
  1  7  1  0  0  0  0
  2  8  2  0  0  0  0
  2  9  1  0  0  0  0
  3  4  2  0  0  0  0
  3  5  1  0  0  0  0
  3  6  1  0  0  0  0
  4  9  1  0  0  0  0
  4 13  1  0  0  0  0
  5  7  2  0  0  0  0
  5  8  1  0  0  0  0
 10 13  1  0  0  0  0
 11 13  2  0  0  0  0
 12 13  2  0  0  0  0
  1 14  1  0  0  0  0
  2 15  1  0  0  0  0
  9 16  1  0  0  0  0
 10 17  1  0  0  0  0
 10 18  1  0  0  0  0
M  END
> <Mol Weight>
199,19

> <Formula>
C5H5N5O2S

> <ID>
EN300-1709182

> <name>
Sulfonamides

> <LogP>
-1,29

> <ROCS_ShapeQuery>
x0446_0A_x1080_0A_x0929_0A_x0812_0A_x0719_0A_x1140_0A_x0528_0A_x0310_0A

> <ROCS_TanimotoCombo>
0.373 

> <ROCS_ShapeTanimoto>
0.202 

> <ROCS_ColorTanimoto>
0.171 

> <ROCS_RefTversky>
0.185 

> <ROCS_RefColorTversky>
0.192 

> <ROCS_RefTverskyCombo>
0.377 

> <ROCS_FitTversky>
1.851 

> <ROCS_FitColorTversky>
0.605 

> <ROCS_FitTverskyCombo>
2.455 

> <ROCS_ColorScore>
-6.897

> <ROCS_Overlap>
2181.391

> <ROCS_Rank>
30                  

$$$$
untitled-dbase-1864_224
  -OEChem-02082415043D

 28 29  0     0  0  0  0  0  0999 V2000
    7.5834   10.4869   24.2278 C   0  0  0  0  0  0  0  0  0  0  0  0
   12.1485   11.6653   23.1136 C   0  0  0  0  0  0  0  0  0  0  0  0
    8.8647   10.0977   23.8480 C   0  0  0  0  0  0  0  0  0  0  0  0
   11.1731   10.6936   23.2845 C   0  0  0  0  0  0  0  0  0  0  0  0
    7.3066   11.8337   24.4273 C   0  0  0  0  0  0  0  0  0  0  0  0
   11.7861   12.9788   23.3331 C   0  0  0  0  0  0  0  0  0  0  0  0
    9.8748   11.0576   23.6665 C   0  0  0  0  0  0  0  0  0  0  0  0
    8.3110   12.7878   24.2468 C   0  0  0  0  0  0  0  0  0  0  0  0
    9.6010   12.4267   23.8675 C   0  0  0  0  0  0  0  0  0  0  0  0
    6.9184   16.1192   21.0806 C   0  0  0  0  0  0  0  0  0  0  0  0
    7.9633   14.2266   24.4734 C   0  0  0  0  0  0  0  0  0  0  0  0
   10.5455   13.3720   23.7023 N   0  0  0  0  0  0  0  0  0  0  0  0
    7.1910   14.7744   23.3903 N   0  0  0  0  0  0  0  0  0  0  0  0
    7.3714   13.5417   21.1182 O   0  0  0  0  0  0  0  0  0  0  0  0
    9.2171   15.1178   21.8007 O   0  0  0  0  0  0  0  0  0  0  0  0
    7.8137   14.7523   21.7820 S   0  0  0  0  0  0  0  0  0  0  0  0
    6.8055    9.7423   24.3668 H   0  0  0  0  0  0  0  0  0  0  0  0
   13.1568   11.4016   22.8172 H   0  0  0  0  0  0  0  0  0  0  0  0
    9.0706    9.0407   23.6946 H   0  0  0  0  0  0  0  0  0  0  0  0
   11.4306    9.6503   23.1164 H   0  0  0  0  0  0  0  0  0  0  0  0
    6.3053   12.1360   24.7232 H   0  0  0  0  0  0  0  0  0  0  0  0
   12.5064   13.7816   23.2144 H   0  0  0  0  0  0  0  0  0  0  0  0
    7.2181   16.2281   20.0371 H   0  0  0  0  0  0  0  0  0  0  0  0
    5.8511   15.9045   21.1515 H   0  0  0  0  0  0  0  0  0  0  0  0
    7.1661   17.0192   21.6455 H   0  0  0  0  0  0  0  0  0  0  0  0
    7.3797   14.3464   25.3943 H   0  0  0  0  0  0  0  0  0  0  0  0
    8.8653   14.8406   24.5816 H   0  0  0  0  0  0  0  0  0  0  0  0
    6.1587   14.6407   23.4576 H   0  0  0  0  0  0  0  0  0  0  0  0
  1  3  1  0  0  0  0
  1  5  2  0  0  0  0
  2  4  2  0  0  0  0
  2  6  1  0  0  0  0
  3  7  2  0  0  0  0
  4  7  1  0  0  0  0
  5  8  1  0  0  0  0
  6 12  2  0  0  0  0
  7  9  1  0  0  0  0
  8  9  2  0  0  0  0
  8 11  1  0  0  0  0
  9 12  1  0  0  0  0
 10 16  1  0  0  0  0
 11 13  1  0  0  0  0
 13 16  1  0  0  0  0
 14 16  2  0  0  0  0
 15 16  2  0  0  0  0
  1 17  1  0  0  0  0
  2 18  1  0  0  0  0
  3 19  1  0  0  0  0
  4 20  1  0  0  0  0
  5 21  1  0  0  0  0
  6 22  1  0  0  0  0
 10 23  1  0  0  0  0
 10 24  1  0  0  0  0
 10 25  1  0  0  0  0
 11 26  1  0  0  0  0
 11 27  1  0  0  0  0
 13 28  1  0  0  0  0
M  END
> <Mol Weight>
236,29

> <Formula>
C11H12N2O2S

> <ID>
EN300-320979

> <name>
Sulfonamides

> <LogP>
0,57

> <ROCS_ShapeQuery>
x0446_0A_x1080_0A_x0929_0A_x0812_0A_x0719_0A_x1140_0A_x0528_0A_x0310_0A

> <ROCS_TanimotoCombo>
0.373 

> <ROCS_ShapeTanimoto>
0.221 

> <ROCS_ColorTanimoto>
0.152 

> <ROCS_RefTversky>
0.201 

> <ROCS_RefColorTversky>
0.160 

> <ROCS_RefTverskyCombo>
0.360 

> <ROCS_FitTversky>
1.846 

> <ROCS_FitColorTversky>
0.753 

> <ROCS_FitTverskyCombo>
2.599 

> <ROCS_ColorScore>
-5.700

> <ROCS_Overlap>
2365.492

> <ROCS_Rank>
31                  

$$$$
untitled-dbase-2644_91
  -OEChem-02082415043D

 31 31  0     1  0  0  0  0  0999 V2000
   10.3659   11.6345   24.1469 C   0  0  0  0  0  0  0  0  0  0  0  0
    9.9675   10.3111   24.3347 C   0  0  0  0  0  0  0  0  0  0  0  0
    7.7032   10.9083   23.7403 C   0  0  0  0  0  0  0  0  0  0  0  0
    9.4329   12.5949   23.7558 C   0  0  0  0  0  0  0  0  0  0  0  0
    8.1016   12.2318   23.5525 C   0  0  0  0  0  0  0  0  0  0  0  0
    8.6362    9.9479   24.1314 C   0  0  0  0  0  0  0  0  0  0  0  0
   11.6958   15.3043   23.0110 C   0  0  0  0  0  0  0  0  0  0  0  0
    9.0350   16.0266   20.0720 C   0  0  0  0  0  0  0  0  0  0  0  0
   10.1725   14.3437   21.2539 C   0  0  0  0  0  0  0  0  0  0  0  0
   10.8552   14.1067   22.5949 C   0  0  2  0  0  0  0  0  0  0  0  0
    5.5104   12.4481   22.9664 N   0  0  0  0  0  0  0  0  0  0  0  0
    6.7514   14.3768   24.1435 O   0  0  0  0  0  0  0  0  0  0  0  0
    7.2534   13.8822   21.7246 O   0  0  0  0  0  0  0  0  0  0  0  0
    9.8458   13.8872   23.5791 O   0  0  0  0  0  0  0  0  0  0  0  0
    9.3467   15.4991   21.3533 O   0  0  0  0  0  0  0  0  0  0  0  0
    6.9134   13.4176   23.0612 S   0  0  0  0  0  0  0  0  0  0  0  0
    8.1448    8.3154   24.3669 Cl  0  0  0  0  0  0  0  0  0  0  0  0
   11.4043   11.9108   24.3088 H   0  0  0  0  0  0  0  0  0  0  0  0
   10.7051    9.5737   24.6412 H   0  0  0  0  0  0  0  0  0  0  0  0
    6.6643   10.6272   23.5835 H   0  0  0  0  0  0  0  0  0  0  0  0
   11.0793   16.2086   23.0556 H   0  0  0  0  0  0  0  0  0  0  0  0
   12.1529   15.1473   23.9928 H   0  0  0  0  0  0  0  0  0  0  0  0
   12.4884   15.5001   22.2806 H   0  0  0  0  0  0  0  0  0  0  0  0
    8.4018   16.9100   20.1849 H   0  0  0  0  0  0  0  0  0  0  0  0
    8.5173   15.2672   19.4805 H   0  0  0  0  0  0  0  0  0  0  0  0
    9.9627   16.3080   19.5681 H   0  0  0  0  0  0  0  0  0  0  0  0
   10.9067   14.5227   20.4614 H   0  0  0  0  0  0  0  0  0  0  0  0
    9.5379   13.4953   20.9793 H   0  0  0  0  0  0  0  0  0  0  0  0
   11.4717   13.2021   22.5503 H   0  0  0  0  0  0  0  0  0  0  0  0
    4.7887   12.5739   23.6868 H   0  0  0  0  0  0  0  0  0  0  0  0
    5.1341   12.2354   22.0345 H   0  0  0  0  0  0  0  0  0  0  0  0
  1  2  2  0  0  0  0
  1  4  1  0  0  0  0
  2  6  1  0  0  0  0
  3  5  1  0  0  0  0
  3  6  2  0  0  0  0
  4  5  2  0  0  0  0
  4 14  1  0  0  0  0
  5 16  1  0  0  0  0
  6 17  1  0  0  0  0
  7 10  1  0  0  0  0
  8 15  1  0  0  0  0
  9 10  1  0  0  0  0
  9 15  1  0  0  0  0
 10 14  1  0  0  0  0
 11 16  1  0  0  0  0
 12 16  2  0  0  0  0
 13 16  2  0  0  0  0
  1 18  1  0  0  0  0
  2 19  1  0  0  0  0
  3 20  1  0  0  0  0
  7 21  1  0  0  0  0
  7 22  1  0  0  0  0
  7 23  1  0  0  0  0
  8 24  1  0  0  0  0
  8 25  1  0  0  0  0
  8 26  1  0  0  0  0
  9 27  1  0  0  0  0
  9 28  1  0  0  0  0
 10 29  1  0  0  0  0
 11 30  1  0  0  0  0
 11 31  1  0  0  0  0
M  END
> <Mol Weight>
279,74

> <Formula>
C10H14ClNO4S

> <ID>
EN300-173561

> <name>
Sulfonamides

> <LogP>
1,40

> <ROCS_ShapeQuery>
x0446_0A_x1080_0A_x0929_0A_x0812_0A_x0719_0A_x1140_0A_x0528_0A_x0310_0A

> <ROCS_TanimotoCombo>
0.370 

> <ROCS_ShapeTanimoto>
0.202 

> <ROCS_ColorTanimoto>
0.169 

> <ROCS_RefTversky>
0.186 

> <ROCS_RefColorTversky>
0.175 

> <ROCS_RefTverskyCombo>
0.361 

> <ROCS_FitTversky>
1.701 

> <ROCS_FitColorTversky>
0.825 

> <ROCS_FitTverskyCombo>
2.526 

> <ROCS_ColorScore>
-6.243

> <ROCS_Overlap>
2195.203

> <ROCS_Rank>
32                  

$$$$
untitled-dbase-2792_167
  -OEChem-02082415043D

 31 32  0     0  0  0  0  0  0999 V2000
    8.4938   10.8636   23.6207 C   0  0  0  0  0  0  0  0  0  0  0  0
    9.3333   11.6123   22.7463 C   0  0  0  0  0  0  0  0  0  0  0  0
    7.8220   11.6720   24.5111 C   0  0  0  0  0  0  0  0  0  0  0  0
    9.2711   12.9647   23.0016 C   0  0  0  0  0  0  0  0  0  0  0  0
    5.3740   12.7894   26.4386 C   0  0  0  0  0  0  0  0  0  0  0  0
    6.2056   12.1919   27.5428 C   0  0  0  0  0  0  0  0  0  0  0  0
    6.8487   11.2828   25.5880 C   0  0  0  0  0  0  0  0  0  0  0  0
    9.2402    8.7521   24.4210 C   0  0  0  0  0  0  0  0  0  0  0  0
   11.4502   10.7271   22.1210 C   0  0  0  0  0  0  0  0  0  0  0  0
   11.0008   13.6171   21.0814 N   0  0  0  0  0  0  0  0  0  0  0  0
    9.0256   15.1738   21.6477 O   0  0  0  0  0  0  0  0  0  0  0  0
   10.9297   14.9533   23.2828 O   0  0  0  0  0  0  0  0  0  0  0  0
    5.5901   11.9195   25.3255 O   0  0  0  0  0  0  0  0  0  0  0  0
    7.3589   11.7022   26.8601 O   0  0  0  0  0  0  0  0  0  0  0  0
    8.3512    9.5263   23.6042 O   0  0  0  0  0  0  0  0  0  0  0  0
   10.1076   11.0951   21.7760 O   0  0  0  0  0  0  0  0  0  0  0  0
    8.2042   13.3266   24.2911 S   0  0  0  0  0  0  0  0  0  0  0  0
   10.0522   14.3679   22.2846 S   0  0  0  0  0  0  0  0  0  0  0  0
    4.3035   12.7678   26.6840 H   0  0  0  0  0  0  0  0  0  0  0  0
    5.6583   13.8178   26.1880 H   0  0  0  0  0  0  0  0  0  0  0  0
    6.5344   12.9573   28.2495 H   0  0  0  0  0  0  0  0  0  0  0  0
    5.7013   11.3894   28.0804 H   0  0  0  0  0  0  0  0  0  0  0  0
    6.7081   10.1851   25.6011 H   0  0  0  0  0  0  0  0  0  0  0  0
    9.0088    7.6902   24.3074 H   0  0  0  0  0  0  0  0  0  0  0  0
    9.1286    9.0505   25.4665 H   0  0  0  0  0  0  0  0  0  0  0  0
   10.2683    8.9351   24.0996 H   0  0  0  0  0  0  0  0  0  0  0  0
   11.9563   10.3247   21.2400 H   0  0  0  0  0  0  0  0  0  0  0  0
   11.4306    9.9784   22.9169 H   0  0  0  0  0  0  0  0  0  0  0  0
   11.9832   11.6143   22.4710 H   0  0  0  0  0  0  0  0  0  0  0  0
   10.7188   13.7410   20.1013 H   0  0  0  0  0  0  0  0  0  0  0  0
   12.0183   13.5895   21.2202 H   0  0  0  0  0  0  0  0  0  0  0  0
  1  2  1  0  0  0  0
  1  3  2  0  0  0  0
  1 15  1  0  0  0  0
  2  4  2  0  0  0  0
  2 16  1  0  0  0  0
  3  7  1  0  0  0  0
  3 17  1  0  0  0  0
  4 17  1  0  0  0  0
  4 18  1  0  0  0  0
  5  6  1  0  0  0  0
  5 13  1  0  0  0  0
  6 14  1  0  0  0  0
  7 13  1  0  0  0  0
  7 14  1  0  0  0  0
  8 15  1  0  0  0  0
  9 16  1  0  0  0  0
 10 18  1  0  0  0  0
 11 18  2  0  0  0  0
 12 18  2  0  0  0  0
  5 19  1  0  0  0  0
  5 20  1  0  0  0  0
  6 21  1  0  0  0  0
  6 22  1  0  0  0  0
  7 23  1  0  0  0  0
  8 24  1  0  0  0  0
  8 25  1  0  0  0  0
  8 26  1  0  0  0  0
  9 27  1  0  0  0  0
  9 28  1  0  0  0  0
  9 29  1  0  0  0  0
 10 30  1  0  0  0  0
 10 31  1  0  0  0  0
M  END
> <Mol Weight>
295,32

> <Formula>
C9H13NO6S2

> <ID>
EN300-6472337

> <name>
Sulfonamides

> <LogP>
0,33

> <ROCS_ShapeQuery>
x0446_0A_x1080_0A_x0929_0A_x0812_0A_x0719_0A_x1140_0A_x0528_0A_x0310_0A

> <ROCS_TanimotoCombo>
0.370 

> <ROCS_ShapeTanimoto>
0.203 

> <ROCS_ColorTanimoto>
0.168 

> <ROCS_RefTversky>
0.188 

> <ROCS_RefColorTversky>
0.185 

> <ROCS_RefTverskyCombo>
0.373 

> <ROCS_FitTversky>
1.644 

> <ROCS_FitColorTversky>
0.636 

> <ROCS_FitTverskyCombo>
2.280 

> <ROCS_ColorScore>
-6.630

> <ROCS_Overlap>
2214.872

> <ROCS_Rank>
33                  

$$$$
untitled-dbase-2566_173
  -OEChem-02082415043D

 34 34  0     0  0  0  0  0  0999 V2000
    5.6339   12.2475   23.9058 C   0  0  0  0  0  0  0  0  0  0  0  0
    6.3566   11.0602   24.0218 C   0  0  0  0  0  0  0  0  0  0  0  0
    7.7000   13.4891   23.7419 C   0  0  0  0  0  0  0  0  0  0  0  0
    6.3056   13.4620   23.7657 C   0  0  0  0  0  0  0  0  0  0  0  0
    7.7510   11.0873   23.9979 C   0  0  0  0  0  0  0  0  0  0  0  0
    8.4227   12.3018   23.8580 C   0  0  0  0  0  0  0  0  0  0  0  0
    7.7487   15.2860   20.9003 C   0  0  0  0  0  0  0  0  0  0  0  0
    7.7614   14.8203   19.4821 C   0  0  0  0  0  0  0  0  0  0  0  0
    7.6644    8.7244   24.2533 C   0  0  0  0  0  0  0  0  0  0  0  0
    5.5320   14.7311   23.6425 C   0  0  0  0  0  0  0  0  0  0  0  0
    6.2441   15.8049   22.8106 C   0  0  0  0  0  0  0  0  0  0  0  0
   10.4690   12.1960   22.1531 N   0  0  0  0  0  0  0  0  0  0  0  0
    6.4835   15.3788   21.4579 N   0  0  0  0  0  0  0  0  0  0  0  0
    8.8072   15.5448   21.4608 O   0  0  0  0  0  0  0  0  0  0  0  0
   10.5887   13.6902   24.2504 O   0  0  0  0  0  0  0  0  0  0  0  0
   10.6833   11.1863   24.5135 O   0  0  0  0  0  0  0  0  0  0  0  0
    8.4363    9.9156   24.1145 O   0  0  0  0  0  0  0  0  0  0  0  0
   10.1706   12.3623   23.8266 S   0  0  0  0  0  0  0  0  0  0  0  0
    4.5478   12.2171   23.9256 H   0  0  0  0  0  0  0  0  0  0  0  0
    5.8272   10.1175   24.1310 H   0  0  0  0  0  0  0  0  0  0  0  0
    8.2204   14.4378   23.6321 H   0  0  0  0  0  0  0  0  0  0  0  0
    7.6958   15.6543   18.7650 H   0  0  0  0  0  0  0  0  0  0  0  0
    8.6897   14.2861   19.2233 H   0  0  0  0  0  0  0  0  0  0  0  0
    6.9454   14.1342   19.2040 H   0  0  0  0  0  0  0  0  0  0  0  0
    8.3327    7.8639   24.3366 H   0  0  0  0  0  0  0  0  0  0  0  0
    7.0111    8.6092   23.3848 H   0  0  0  0  0  0  0  0  0  0  0  0
    7.0554    8.7988   25.1574 H   0  0  0  0  0  0  0  0  0  0  0  0
    5.3372   15.1397   24.6484 H   0  0  0  0  0  0  0  0  0  0  0  0
    4.5345   14.5379   23.2115 H   0  0  0  0  0  0  0  0  0  0  0  0
    5.6345   16.7122   22.7526 H   0  0  0  0  0  0  0  0  0  0  0  0
    7.2114   16.0711   23.2493 H   0  0  0  0  0  0  0  0  0  0  0  0
   10.8046   13.0201   21.6397 H   0  0  0  0  0  0  0  0  0  0  0  0
   10.8672   11.3093   21.8209 H   0  0  0  0  0  0  0  0  0  0  0  0
    5.6816   15.1326   20.8798 H   0  0  0  0  0  0  0  0  0  0  0  0
  1  2  2  0  0  0  0
  1  4  1  0  0  0  0
  2  5  1  0  0  0  0
  3  4  2  0  0  0  0
  3  6  1  0  0  0  0
  4 10  1  0  0  0  0
  5  6  2  0  0  0  0
  5 17  1  0  0  0  0
  6 18  1  0  0  0  0
  7  8  1  0  0  0  0
  7 13  1  0  0  0  0
  7 14  2  0  0  0  0
  9 17  1  0  0  0  0
 10 11  1  0  0  0  0
 11 13  1  0  0  0  0
 12 18  1  0  0  0  0
 15 18  2  0  0  0  0
 16 18  2  0  0  0  0
  1 19  1  0  0  0  0
  2 20  1  0  0  0  0
  3 21  1  0  0  0  0
  8 22  1  0  0  0  0
  8 23  1  0  0  0  0
  8 24  1  0  0  0  0
  9 25  1  0  0  0  0
  9 26  1  0  0  0  0
  9 27  1  0  0  0  0
 10 28  1  0  0  0  0
 10 29  1  0  0  0  0
 11 30  1  0  0  0  0
 11 31  1  0  0  0  0
 12 32  1  0  0  0  0
 12 33  1  0  0  0  0
 13 34  1  0  0  0  0
M  END
> <Mol Weight>
272,32

> <Formula>
C11H16N2O4S

> <ID>
EN300-122273

> <name>
Sulfonamides

> <LogP>
-0,35

> <ROCS_ShapeQuery>
x0446_0A_x1080_0A_x0929_0A_x0812_0A_x0719_0A_x1140_0A_x0528_0A_x0310_0A

> <ROCS_TanimotoCombo>
0.369 

> <ROCS_ShapeTanimoto>
0.191 

> <ROCS_ColorTanimoto>
0.178 

> <ROCS_RefTversky>
0.178 

> <ROCS_RefColorTversky>
0.187 

> <ROCS_RefTverskyCombo>
0.366 

> <ROCS_FitTversky>
1.574 

> <ROCS_FitColorTversky>
0.786 

> <ROCS_FitTverskyCombo>
2.359 

> <ROCS_ColorScore>
-6.690

> <ROCS_Overlap>
2106.073

> <ROCS_Rank>
34                  

$$$$
untitled-dbase-1091_12
  -OEChem-02082415043D

 22 22  0     0  0  0  0  0  0999 V2000
    9.3221   10.8661   23.6599 C   0  0  0  0  0  0  0  0  0  0  0  0
    7.5688   11.8655   24.3755 C   0  0  0  0  0  0  0  0  0  0  0  0
   10.1105    9.6965   23.2140 C   0  0  0  0  0  0  0  0  0  0  0  0
    8.5512   14.1510   24.4664 C   0  0  0  0  0  0  0  0  0  0  0  0
    7.4501   14.8308   23.6754 C   0  0  0  0  0  0  0  0  0  0  0  0
    9.7244   12.0916   23.7466 N   0  0  0  0  0  0  0  0  0  0  0  0
    8.6169   12.7384   24.2017 N   0  0  0  0  0  0  0  0  0  0  0  0
    6.3205   15.5401   21.3794 N   0  0  0  0  0  0  0  0  0  0  0  0
    6.4350   12.0929   24.7665 O   0  0  0  0  0  0  0  0  0  0  0  0
    8.8834   15.4519   21.5808 O   0  0  0  0  0  0  0  0  0  0  0  0
    7.5648   13.2963   21.5636 O   0  0  0  0  0  0  0  0  0  0  0  0
    8.0401   10.6331   24.0163 O   0  0  0  0  0  0  0  0  0  0  0  0
    7.6943   14.6953   21.9320 S   0  0  0  0  0  0  0  0  0  0  0  0
   10.6142    9.2267   24.0647 H   0  0  0  0  0  0  0  0  0  0  0  0
   10.8686   10.0000   22.4845 H   0  0  0  0  0  0  0  0  0  0  0  0
    9.4603    8.9536   22.7403 H   0  0  0  0  0  0  0  0  0  0  0  0
    9.5329   14.5762   24.2357 H   0  0  0  0  0  0  0  0  0  0  0  0
    8.3693   14.2652   25.5393 H   0  0  0  0  0  0  0  0  0  0  0  0
    7.4265   15.9017   23.8985 H   0  0  0  0  0  0  0  0  0  0  0  0
    6.4676   14.4025   23.8956 H   0  0  0  0  0  0  0  0  0  0  0  0
    5.4037   15.0913   21.4964 H   0  0  0  0  0  0  0  0  0  0  0  0
    6.3020   16.5592   21.5080 H   0  0  0  0  0  0  0  0  0  0  0  0
  1  3  1  0  0  0  0
  1  6  2  0  0  0  0
  1 12  1  0  0  0  0
  2  7  1  0  0  0  0
  2  9  2  0  0  0  0
  2 12  1  0  0  0  0
  4  5  1  0  0  0  0
  4  7  1  0  0  0  0
  5 13  1  0  0  0  0
  6  7  1  0  0  0  0
  8 13  1  0  0  0  0
 10 13  2  0  0  0  0
 11 13  2  0  0  0  0
  3 14  1  0  0  0  0
  3 15  1  0  0  0  0
  3 16  1  0  0  0  0
  4 17  1  0  0  0  0
  4 18  1  0  0  0  0
  5 19  1  0  0  0  0
  5 20  1  0  0  0  0
  8 21  1  0  0  0  0
  8 22  1  0  0  0  0
M  END
> <Mol Weight>
207,20

> <Formula>
C5H9N3O4S

> <ID>
EN300-317907

> <name>
Sulfonamides

> <LogP>
-1,52

> <ROCS_ShapeQuery>
x0446_0A_x1080_0A_x0929_0A_x0812_0A_x0719_0A_x1140_0A_x0528_0A_x0310_0A

> <ROCS_TanimotoCombo>
0.369 

> <ROCS_ShapeTanimoto>
0.194 

> <ROCS_ColorTanimoto>
0.175 

> <ROCS_RefTversky>
0.178 

> <ROCS_RefColorTversky>
0.180 

> <ROCS_RefTverskyCombo>
0.359 

> <ROCS_FitTversky>
1.838 

> <ROCS_FitColorTversky>
0.850 

> <ROCS_FitTverskyCombo>
2.687 

> <ROCS_ColorScore>
-6.427

> <ROCS_Overlap>
2103.187

> <ROCS_Rank>
35                  

$$$$
untitled-dbase-1985_37
  -OEChem-02082415043D

 28 29  0     0  0  0  0  0  0999 V2000
    5.7551   12.1865   25.5207 C   0  0  0  0  0  0  0  0  0  0  0  0
    6.5663   11.0723   25.3008 C   0  0  0  0  0  0  0  0  0  0  0  0
    6.0585   13.4259   24.9275 C   0  0  0  0  0  0  0  0  0  0  0  0
    7.6663   11.2444   24.4834 C   0  0  0  0  0  0  0  0  0  0  0  0
    7.9797   12.4673   23.8884 C   0  0  0  0  0  0  0  0  0  0  0  0
    7.1792   13.5731   24.1032 C   0  0  0  0  0  0  0  0  0  0  0  0
    8.6805   10.2627   24.0830 C   0  0  0  0  0  0  0  0  0  0  0  0
    9.2177   12.3449   23.0672 C   0  0  0  0  0  0  0  0  0  0  0  0
   10.7234   10.3207   22.6460 C   0  0  0  0  0  0  0  0  0  0  0  0
    6.7286   16.2057   21.3229 C   0  0  0  0  0  0  0  0  0  0  0  0
    9.5685   10.9423   23.2564 N   0  0  0  0  0  0  0  0  0  0  0  0
    7.4774   14.8338   23.5073 N   0  0  0  0  0  0  0  0  0  0  0  0
    8.6836    9.0998   24.4428 O   0  0  0  0  0  0  0  0  0  0  0  0
    9.1662   15.3491   21.6254 O   0  0  0  0  0  0  0  0  0  0  0  0
    7.3473   13.6679   21.1672 O   0  0  0  0  0  0  0  0  0  0  0  0
    7.8066   14.8796   21.8166 S   0  0  0  0  0  0  0  0  0  0  0  0
    4.8787   12.0980   26.1571 H   0  0  0  0  0  0  0  0  0  0  0  0
    6.3348   10.1168   25.7567 H   0  0  0  0  0  0  0  0  0  0  0  0
    5.4052   14.2741   25.1197 H   0  0  0  0  0  0  0  0  0  0  0  0
    9.0286   12.5267   22.0056 H   0  0  0  0  0  0  0  0  0  0  0  0
   10.0292   12.9715   23.4475 H   0  0  0  0  0  0  0  0  0  0  0  0
   10.4431    9.9082   21.6655 H   0  0  0  0  0  0  0  0  0  0  0  0
   11.5170   11.0711   22.5146 H   0  0  0  0  0  0  0  0  0  0  0  0
   11.0887    9.5103   23.2938 H   0  0  0  0  0  0  0  0  0  0  0  0
    6.8333   16.3521   20.2467 H   0  0  0  0  0  0  0  0  0  0  0  0
    5.7037   15.9276   21.5730 H   0  0  0  0  0  0  0  0  0  0  0  0
    7.0229   17.1074   21.8619 H   0  0  0  0  0  0  0  0  0  0  0  0
    8.0879   15.4416   24.0794 H   0  0  0  0  0  0  0  0  0  0  0  0
  1  2  1  0  0  0  0
  1  3  2  0  0  0  0
  2  4  2  0  0  0  0
  3  6  1  0  0  0  0
  4  5  1  0  0  0  0
  4  7  1  0  0  0  0
  5  6  2  0  0  0  0
  5  8  1  0  0  0  0
  6 12  1  0  0  0  0
  7 11  1  0  0  0  0
  7 13  2  0  0  0  0
  8 11  1  0  0  0  0
  9 11  1  0  0  0  0
 10 16  1  0  0  0  0
 12 16  1  0  0  0  0
 14 16  2  0  0  0  0
 15 16  2  0  0  0  0
  1 17  1  0  0  0  0
  2 18  1  0  0  0  0
  3 19  1  0  0  0  0
  8 20  1  0  0  0  0
  8 21  1  0  0  0  0
  9 22  1  0  0  0  0
  9 23  1  0  0  0  0
  9 24  1  0  0  0  0
 10 25  1  0  0  0  0
 10 26  1  0  0  0  0
 10 27  1  0  0  0  0
 12 28  1  0  0  0  0
M  END
> <Mol Weight>
240,28

> <Formula>
C10H12N2O3S

> <ID>
EN300-28234088

> <name>
Sulfonamides

> <LogP>
-0,60

> <ROCS_ShapeQuery>
x0446_0A_x1080_0A_x0929_0A_x0812_0A_x0719_0A_x1140_0A_x0528_0A_x0310_0A

> <ROCS_TanimotoCombo>
0.369 

> <ROCS_ShapeTanimoto>
0.213 

> <ROCS_ColorTanimoto>
0.156 

> <ROCS_RefTversky>
0.195 

> <ROCS_RefColorTversky>
0.163 

> <ROCS_RefTverskyCombo>
0.358 

> <ROCS_FitTversky>
1.790 

> <ROCS_FitColorTversky>
0.768 

> <ROCS_FitTverskyCombo>
2.557 

> <ROCS_ColorScore>
-5.818

> <ROCS_Overlap>
2299.875

> <ROCS_Rank>
36                  

$$$$
untitled-dbase-343_0
  -OEChem-02082415043D

 24 25  0     1  0  0  0  0  0999 V2000
    8.2266   10.0233   23.8269 C   0  0  0  0  0  0  0  0  0  0  0  0
    7.2795   11.1616   23.4156 C   0  0  0  0  0  0  0  0  0  0  0  0
    8.9468   12.0439   24.8551 C   0  0  0  0  0  0  0  0  0  0  0  0
   10.1973   11.3155   22.9658 C   0  0  0  0  0  0  0  0  0  0  0  0
    9.5105   10.7691   24.2317 C   0  0  2  0  0  0  0  0  0  0  0  0
    8.1507   12.4170   23.6019 C   0  0  1  0  0  0  0  0  0  0  0  0
    9.2309   12.4177   22.5029 C   0  0  1  0  0  0  0  0  0  0  0  0
   11.2058   13.6031   21.1816 N   0  0  0  0  0  0  0  0  0  0  0  0
    9.0759   14.9205   21.7687 O   0  0  0  0  0  0  0  0  0  0  0  0
   10.6882   14.2843   23.6075 O   0  0  0  0  0  0  0  0  0  0  0  0
   10.0251   13.9872   22.3498 S   0  0  0  0  0  0  0  0  0  0  0  0
    7.8082    9.4756   24.6788 H   0  0  0  0  0  0  0  0  0  0  0  0
    8.3935    9.3120   23.0118 H   0  0  0  0  0  0  0  0  0  0  0  0
    6.9172   11.0463   22.3892 H   0  0  0  0  0  0  0  0  0  0  0  0
    6.4106   11.1880   24.0831 H   0  0  0  0  0  0  0  0  0  0  0  0
    8.3123   11.8532   25.7273 H   0  0  0  0  0  0  0  0  0  0  0  0
    9.7185   12.7724   25.1211 H   0  0  0  0  0  0  0  0  0  0  0  0
   11.1896   11.7114   23.2094 H   0  0  0  0  0  0  0  0  0  0  0  0
   10.3201   10.5393   22.2033 H   0  0  0  0  0  0  0  0  0  0  0  0
   10.1742   10.1835   24.8707 H   0  0  0  0  0  0  0  0  0  0  0  0
    7.5738   13.3414   23.6765 H   0  0  0  0  0  0  0  0  0  0  0  0
    8.8129   12.1982   21.5147 H   0  0  0  0  0  0  0  0  0  0  0  0
   11.9872   13.0021   21.4709 H   0  0  0  0  0  0  0  0  0  0  0  0
   10.8891   13.4356   20.2186 H   0  0  0  0  0  0  0  0  0  0  0  0
  1  2  1  0  0  0  0
  1  5  1  0  0  0  0
  2  6  1  0  0  0  0
  3  5  1  6  0  0  0
  3  6  1  6  0  0  0
  4  5  1  0  0  0  0
  4  7  1  0  0  0  0
  6  7  1  0  0  0  0
  7 11  1  0  0  0  0
  8 11  1  0  0  0  0
  9 11  2  0  0  0  0
 10 11  2  0  0  0  0
  1 12  1  0  0  0  0
  1 13  1  0  0  0  0
  2 14  1  0  0  0  0
  2 15  1  0  0  0  0
  3 16  1  0  0  0  0
  3 17  1  0  0  0  0
  4 18  1  0  0  0  0
  4 19  1  0  0  0  0
  5 20  1  0  0  0  0
  6 21  1  0  0  0  0
  7 22  1  0  0  0  0
  8 23  1  0  0  0  0
  8 24  1  0  0  0  0
M  END
> <Mol Weight>
175,25

> <Formula>
C7H13NO2S

> <ID>
EN300-6861790

> <name>
Sulfonamides

> <LogP>
0,31

> <ROCS_ShapeQuery>
x0446_0A_x1080_0A_x0929_0A_x0812_0A_x0719_0A_x1140_0A_x0528_0A_x0310_0A

> <ROCS_TanimotoCombo>
0.369 

> <ROCS_ShapeTanimoto>
0.169 

> <ROCS_ColorTanimoto>
0.199 

> <ROCS_RefTversky>
0.158 

> <ROCS_RefColorTversky>
0.216 

> <ROCS_RefTverskyCombo>
0.374 

> <ROCS_FitTversky>
1.758 

> <ROCS_FitColorTversky>
0.721 

> <ROCS_FitTverskyCombo>
2.479 

> <ROCS_ColorScore>
-7.727

> <ROCS_Overlap>
1859.886

> <ROCS_Rank>
37                  

$$$$
untitled-dbase-2596_13349
  -OEChem-02082415043D

 31 31  0     0  0  0  0  0  0999 V2000
    9.1447   11.4117   25.1543 C   0  0  0  0  0  0  0  0  0  0  0  0
    7.6336   11.9940   23.3614 C   0  0  0  0  0  0  0  0  0  0  0  0
   10.1709   11.2237   24.2284 C   0  0  0  0  0  0  0  0  0  0  0  0
    8.6598   11.8060   22.4355 C   0  0  0  0  0  0  0  0  0  0  0  0
    7.8761   11.7968   24.7208 C   0  0  0  0  0  0  0  0  0  0  0  0
    9.9284   11.4208   22.8690 C   0  0  0  0  0  0  0  0  0  0  0  0
    6.8055   11.9937   25.6854 C   0  0  0  0  0  0  0  0  0  0  0  0
   11.6438   15.8040   22.4736 C   0  0  0  0  0  0  0  0  0  0  0  0
   11.0391   11.2183   21.8678 C   0  0  0  0  0  0  0  0  0  0  0  0
    7.1459   12.4589   27.1056 C   0  0  0  0  0  0  0  0  0  0  0  0
   11.8426   12.4895   21.6046 C   0  0  0  0  0  0  0  0  0  0  0  0
   11.0064   13.5925   21.0980 N   0  0  0  0  0  0  0  0  0  0  0  0
    5.6180   11.7871   25.3624 O   0  0  0  0  0  0  0  0  0  0  0  0
   10.0313   13.9941   23.4607 O   0  0  0  0  0  0  0  0  0  0  0  0
    9.2447   15.4093   21.5280 O   0  0  0  0  0  0  0  0  0  0  0  0
   10.2948   14.6762   22.2088 S   0  0  0  0  0  0  0  0  0  0  0  0
    7.9393   14.0475   27.1021 Cl  0  0  0  0  0  0  0  0  0  0  0  0
    9.3441   11.2556   26.2113 H   0  0  0  0  0  0  0  0  0  0  0  0
    6.6491   12.2940   23.0121 H   0  0  0  0  0  0  0  0  0  0  0  0
   11.1563   10.9239   24.5750 H   0  0  0  0  0  0  0  0  0  0  0  0
    8.4621   11.9623   21.3782 H   0  0  0  0  0  0  0  0  0  0  0  0
   11.3196   16.5685   23.1814 H   0  0  0  0  0  0  0  0  0  0  0  0
   12.4878   15.2426   22.8771 H   0  0  0  0  0  0  0  0  0  0  0  0
   11.9075   16.2562   21.5164 H   0  0  0  0  0  0  0  0  0  0  0  0
   10.5991   10.8661   20.9263 H   0  0  0  0  0  0  0  0  0  0  0  0
   11.7044   10.4149   22.2092 H   0  0  0  0  0  0  0  0  0  0  0  0
    6.2281   12.5538   27.6909 H   0  0  0  0  0  0  0  0  0  0  0  0
    7.8364   11.7498   27.5685 H   0  0  0  0  0  0  0  0  0  0  0  0
   12.2994   12.8414   22.5350 H   0  0  0  0  0  0  0  0  0  0  0  0
   12.6414   12.3188   20.8754 H   0  0  0  0  0  0  0  0  0  0  0  0
   11.3326   13.9880   20.2066 H   0  0  0  0  0  0  0  0  0  0  0  0
  1  3  2  0  0  0  0
  1  5  1  0  0  0  0
  2  4  1  0  0  0  0
  2  5  2  0  0  0  0
  3  6  1  0  0  0  0
  4  6  2  0  0  0  0
  5  7  1  0  0  0  0
  6  9  1  0  0  0  0
  7 10  1  0  0  0  0
  7 13  2  0  0  0  0
  8 16  1  0  0  0  0
  9 11  1  0  0  0  0
 10 17  1  0  0  0  0
 11 12  1  0  0  0  0
 12 16  1  0  0  0  0
 14 16  2  0  0  0  0
 15 16  2  0  0  0  0
  1 18  1  0  0  0  0
  2 19  1  0  0  0  0
  3 20  1  0  0  0  0
  4 21  1  0  0  0  0
  8 22  1  0  0  0  0
  8 23  1  0  0  0  0
  8 24  1  0  0  0  0
  9 25  1  0  0  0  0
  9 26  1  0  0  0  0
 10 27  1  0  0  0  0
 10 28  1  0  0  0  0
 11 29  1  0  0  0  0
 11 30  1  0  0  0  0
 12 31  1  0  0  0  0
M  END
> <Mol Weight>
275,75

> <Formula>
C11H14ClNO3S

> <ID>
EN300-23500

> <name>
Sulfonamides

> <LogP>
0,80

> <ROCS_ShapeQuery>
x0446_0A_x1080_0A_x0929_0A_x0812_0A_x0719_0A_x1140_0A_x0528_0A_x0310_0A

> <ROCS_TanimotoCombo>
0.369 

> <ROCS_ShapeTanimoto>
0.188 

> <ROCS_ColorTanimoto>
0.180 

> <ROCS_RefTversky>
0.176 

> <ROCS_RefColorTversky>
0.181 

> <ROCS_RefTverskyCombo>
0.357 

> <ROCS_FitTversky>
1.621 

> <ROCS_FitColorTversky>
0.975 

> <ROCS_FitTverskyCombo>
2.596 

> <ROCS_ColorScore>
-6.446

> <ROCS_Overlap>
2071.151

> <ROCS_Rank>
38                  

$$$$
untitled-dbase-1905_0
  -OEChem-02082415043D

 20 21  0     0  0  0  0  0  0999 V2000
    7.0195   11.6293   21.1196 C   0  0  0  0  0  0  0  0  0  0  0  0
    7.1466   10.6449   22.1027 C   0  0  0  0  0  0  0  0  0  0  0  0
    7.8566   12.7591   21.1248 C   0  0  0  0  0  0  0  0  0  0  0  0
    8.1161   10.8252   23.0676 C   0  0  0  0  0  0  0  0  0  0  0  0
    8.9366   11.9322   23.0726 C   0  0  0  0  0  0  0  0  0  0  0  0
    8.8311   12.9181   22.1131 C   0  0  0  0  0  0  0  0  0  0  0  0
    9.4591   10.6796   24.7373 C   0  0  0  0  0  0  0  0  0  0  0  0
   11.1721   13.7657   21.1612 N   0  0  0  0  0  0  0  0  0  0  0  0
    9.1934   15.3987   21.4140 O   0  0  0  0  0  0  0  0  0  0  0  0
   10.3501   14.5344   23.4786 O   0  0  0  0  0  0  0  0  0  0  0  0
    8.3844    9.9760   24.0979 O   0  0  0  0  0  0  0  0  0  0  0  0
    9.8225   11.9162   24.1067 O   0  0  0  0  0  0  0  0  0  0  0  0
   10.5486    9.8720   24.7674 F   0  0  0  0  0  0  0  0  0  0  0  0
    9.1053   10.9362   26.0215 F   0  0  0  0  0  0  0  0  0  0  0  0
    9.8684   14.3167   22.1201 S   0  0  0  0  0  0  0  0  0  0  0  0
    6.2672   11.5224   20.3428 H   0  0  0  0  0  0  0  0  0  0  0  0
    6.5031    9.7726   22.1017 H   0  0  0  0  0  0  0  0  0  0  0  0
    7.7347   13.5090   20.3470 H   0  0  0  0  0  0  0  0  0  0  0  0
   11.2764   14.1576   20.2173 H   0  0  0  0  0  0  0  0  0  0  0  0
   12.0647   13.5660   21.6288 H   0  0  0  0  0  0  0  0  0  0  0  0
  1  2  1  0  0  0  0
  1  3  2  0  0  0  0
  2  4  2  0  0  0  0
  3  6  1  0  0  0  0
  4  5  1  0  0  0  0
  4 11  1  0  0  0  0
  5  6  2  0  0  0  0
  5 12  1  0  0  0  0
  6 15  1  0  0  0  0
  7 11  1  0  0  0  0
  7 12  1  0  0  0  0
  7 13  1  0  0  0  0
  7 14  1  0  0  0  0
  8 15  1  0  0  0  0
  9 15  2  0  0  0  0
 10 15  2  0  0  0  0
  1 16  1  0  0  0  0
  2 17  1  0  0  0  0
  3 18  1  0  0  0  0
  8 19  1  0  0  0  0
  8 20  1  0  0  0  0
M  END
> <Mol Weight>
237,18

> <Formula>
C7H5F2NO4S

> <ID>
EN300-253636

> <name>
Sulfonamides

> <LogP>
1,60

> <ROCS_ShapeQuery>
x0446_0A_x1080_0A_x0929_0A_x0812_0A_x0719_0A_x1140_0A_x0528_0A_x0310_0A

> <ROCS_TanimotoCombo>
0.368 

> <ROCS_ShapeTanimoto>
0.163 

> <ROCS_ColorTanimoto>
0.205 

> <ROCS_RefTversky>
0.155 

> <ROCS_RefColorTversky>
0.211 

> <ROCS_RefTverskyCombo>
0.366 

> <ROCS_FitTversky>
1.445 

> <ROCS_FitColorTversky>
0.881 

> <ROCS_FitTverskyCombo>
2.326 

> <ROCS_ColorScore>
-7.525

> <ROCS_Overlap>
1831.186

> <ROCS_Rank>
39                  

$$$$
untitled-dbase-1848_155
  -OEChem-02082415043D

 32 33  0     1  0  0  0  0  0999 V2000
   10.2864   11.3395   23.9696 C   0  0  0  0  0  0  0  0  0  0  0  0
    8.9617   10.6165   24.0105 C   0  0  0  0  0  0  0  0  0  0  0  0
    7.7752   12.2211   25.5849 C   0  0  0  0  0  0  0  0  0  0  0  0
    6.6050   11.4576   23.4679 C   0  0  0  0  0  0  0  0  0  0  0  0
    6.4068   12.8657   25.7750 C   0  0  0  0  0  0  0  0  0  0  0  0
    5.6044   10.9768   24.5081 C   0  0  0  0  0  0  0  0  0  0  0  0
    9.9414   12.5480   23.1180 C   0  0  2  0  0  0  0  0  0  0  0  0
    7.9612   11.7710   24.1195 C   0  0  0  0  0  0  0  0  0  0  0  0
   10.8145   13.7553   23.4010 C   0  0  0  0  0  0  0  0  0  0  0  0
   11.4081   13.8919   20.8165 N   0  0  0  0  0  0  0  0  0  0  0  0
    9.4118   15.2176   21.7515 O   0  0  0  0  0  0  0  0  0  0  0  0
   11.7628   15.9417   22.3296 O   0  0  0  0  0  0  0  0  0  0  0  0
    5.3337   11.9622   25.5063 O   0  0  0  0  0  0  0  0  0  0  0  0
    8.5666   12.8666   23.3944 O   0  0  0  0  0  0  0  0  0  0  0  0
   10.7956   14.8918   22.0548 S   0  0  0  0  0  0  0  0  0  0  0  0
   10.5818   11.6376   24.9819 H   0  0  0  0  0  0  0  0  0  0  0  0
   11.0939   10.7387   23.5431 H   0  0  0  0  0  0  0  0  0  0  0  0
    8.8231   10.0722   23.0691 H   0  0  0  0  0  0  0  0  0  0  0  0
    8.8903    9.8952   24.8281 H   0  0  0  0  0  0  0  0  0  0  0  0
    8.5459   12.9372   25.8768 H   0  0  0  0  0  0  0  0  0  0  0  0
    7.8472   11.3465   26.2373 H   0  0  0  0  0  0  0  0  0  0  0  0
    6.7445   10.6735   22.7167 H   0  0  0  0  0  0  0  0  0  0  0  0
    6.2028   12.3451   22.9713 H   0  0  0  0  0  0  0  0  0  0  0  0
    6.2985   13.2054   26.8177 H   0  0  0  0  0  0  0  0  0  0  0  0
    6.2921   13.7633   25.1422 H   0  0  0  0  0  0  0  0  0  0  0  0
    4.6531   10.6647   24.0411 H   0  0  0  0  0  0  0  0  0  0  0  0
    6.0020   10.0871   25.0237 H   0  0  0  0  0  0  0  0  0  0  0  0
   10.0041   12.2903   22.0529 H   0  0  0  0  0  0  0  0  0  0  0  0
   11.8526   13.4545   23.5578 H   0  0  0  0  0  0  0  0  0  0  0  0
   10.4602   14.2912   24.2840 H   0  0  0  0  0  0  0  0  0  0  0  0
   10.7573   13.5887   20.0815 H   0  0  0  0  0  0  0  0  0  0  0  0
   12.3584   14.0817   20.4754 H   0  0  0  0  0  0  0  0  0  0  0  0
  1  2  1  0  0  0  0
  1  7  1  0  0  0  0
  2  8  1  0  0  0  0
  3  5  1  0  0  0  0
  3  8  1  0  0  0  0
  4  6  1  0  0  0  0
  4  8  1  0  0  0  0
  5 13  1  0  0  0  0
  6 13  1  0  0  0  0
  7  9  1  0  0  0  0
  7 14  1  0  0  0  0
  8 14  1  0  0  0  0
  9 15  1  0  0  0  0
 10 15  1  0  0  0  0
 11 15  2  0  0  0  0
 12 15  2  0  0  0  0
  1 16  1  0  0  0  0
  1 17  1  0  0  0  0
  2 18  1  0  0  0  0
  2 19  1  0  0  0  0
  3 20  1  0  0  0  0
  3 21  1  0  0  0  0
  4 22  1  0  0  0  0
  4 23  1  0  0  0  0
  5 24  1  0  0  0  0
  5 25  1  0  0  0  0
  6 26  1  0  0  0  0
  6 27  1  0  0  0  0
  7 28  1  0  0  0  0
  9 29  1  0  0  0  0
  9 30  1  0  0  0  0
 10 31  1  0  0  0  0
 10 32  1  0  0  0  0
M  END
> <Mol Weight>
235,30

> <Formula>
C9H17NO4S

> <ID>
EN300-6489320

> <name>
Sulfonamides

> <LogP>
-1,08

> <ROCS_ShapeQuery>
x0446_0A_x1080_0A_x0929_0A_x0812_0A_x0719_0A_x1140_0A_x0528_0A_x0310_0A

> <ROCS_TanimotoCombo>
0.368 

> <ROCS_ShapeTanimoto>
0.197 

> <ROCS_ColorTanimoto>
0.171 

> <ROCS_RefTversky>
0.181 

> <ROCS_RefColorTversky>
0.181 

> <ROCS_RefTverskyCombo>
0.362 

> <ROCS_FitTversky>
1.755 

> <ROCS_FitColorTversky>
0.758 

> <ROCS_FitTverskyCombo>
2.513 

> <ROCS_ColorScore>
-6.452

> <ROCS_Overlap>
2138.829

> <ROCS_Rank>
40                  

$$$$
untitled-dbase-1726_58
  -OEChem-02082415043D

 30 30  0     1  0  0  0  0  0999 V2000
    8.4978    9.6026   23.9667 C   0  0  0  0  0  0  0  0  0  0  0  0
    7.6193   10.3679   24.7337 C   0  0  0  0  0  0  0  0  0  0  0  0
    9.5251   10.2230   23.2558 C   0  0  0  0  0  0  0  0  0  0  0  0
    7.7681   11.7537   24.7896 C   0  0  0  0  0  0  0  0  0  0  0  0
    9.6739   11.6088   23.3118 C   0  0  0  0  0  0  0  0  0  0  0  0
    8.7954   12.3742   24.0787 C   0  0  0  0  0  0  0  0  0  0  0  0
    9.2020   14.3271   25.5946 C   0  0  0  0  0  0  0  0  0  0  0  0
   11.2981   14.1150   24.1587 C   0  0  0  0  0  0  0  0  0  0  0  0
    7.7448   14.6500   23.5718 C   0  0  0  0  0  0  0  0  0  0  0  0
    8.9588   13.8918   24.1393 C   0  0  2  0  0  0  0  0  0  0  0  0
    6.2989   15.6379   21.5757 N   0  0  0  0  0  0  0  0  0  0  0  0
    8.8654   15.5948   21.4087 O   0  0  0  0  0  0  0  0  0  0  0  0
    7.5760   13.4261   21.2693 O   0  0  0  0  0  0  0  0  0  0  0  0
   10.1163   14.3073   23.4018 O   0  0  0  0  0  0  0  0  0  0  0  0
    7.7437   14.7640   21.8059 S   0  0  0  0  0  0  0  0  0  0  0  0
    8.3826    8.5234   23.9244 H   0  0  0  0  0  0  0  0  0  0  0  0
    6.8200    9.8849   25.2881 H   0  0  0  0  0  0  0  0  0  0  0  0
   10.2099    9.6274   22.6595 H   0  0  0  0  0  0  0  0  0  0  0  0
    7.0788   12.3420   25.3896 H   0  0  0  0  0  0  0  0  0  0  0  0
   10.4772   12.0836   22.7545 H   0  0  0  0  0  0  0  0  0  0  0  0
    9.3259   15.4108   25.6912 H   0  0  0  0  0  0  0  0  0  0  0  0
   10.0994   13.8467   26.0020 H   0  0  0  0  0  0  0  0  0  0  0  0
    8.3685   14.0206   26.2382 H   0  0  0  0  0  0  0  0  0  0  0  0
   12.1627   14.4391   23.5743 H   0  0  0  0  0  0  0  0  0  0  0  0
   11.3968   13.0584   24.4198 H   0  0  0  0  0  0  0  0  0  0  0  0
   11.2355   14.7099   25.0730 H   0  0  0  0  0  0  0  0  0  0  0  0
    6.7938   14.1873   23.8535 H   0  0  0  0  0  0  0  0  0  0  0  0
    7.7369   15.6881   23.9238 H   0  0  0  0  0  0  0  0  0  0  0  0
    6.3740   16.6155   21.2688 H   0  0  0  0  0  0  0  0  0  0  0  0
    5.4959   15.1384   21.1740 H   0  0  0  0  0  0  0  0  0  0  0  0
  1  2  1  0  0  0  0
  1  3  2  0  0  0  0
  2  4  2  0  0  0  0
  3  5  1  0  0  0  0
  4  6  1  0  0  0  0
  5  6  2  0  0  0  0
  6 10  1  0  0  0  0
  7 10  1  0  0  0  0
  8 14  1  0  0  0  0
  9 10  1  0  0  0  0
  9 15  1  0  0  0  0
 10 14  1  0  0  0  0
 11 15  1  0  0  0  0
 12 15  2  0  0  0  0
 13 15  2  0  0  0  0
  1 16  1  0  0  0  0
  2 17  1  0  0  0  0
  3 18  1  0  0  0  0
  4 19  1  0  0  0  0
  5 20  1  0  0  0  0
  7 21  1  0  0  0  0
  7 22  1  0  0  0  0
  7 23  1  0  0  0  0
  8 24  1  0  0  0  0
  8 25  1  0  0  0  0
  8 26  1  0  0  0  0
  9 27  1  0  0  0  0
  9 28  1  0  0  0  0
 11 29  1  0  0  0  0
 11 30  1  0  0  0  0
M  END
> <Mol Weight>
229,29

> <Formula>
C10H15NO3S

> <ID>
EN300-227550

> <name>
Sulfonamides

> <LogP>
0,63

> <ROCS_ShapeQuery>
x0446_0A_x1080_0A_x0929_0A_x0812_0A_x0719_0A_x1140_0A_x0528_0A_x0310_0A

> <ROCS_TanimotoCombo>
0.368 

> <ROCS_ShapeTanimoto>
0.195 

> <ROCS_ColorTanimoto>
0.173 

> <ROCS_RefTversky>
0.180 

> <ROCS_RefColorTversky>
0.175 

> <ROCS_RefTverskyCombo>
0.355 

> <ROCS_FitTversky>
1.746 

> <ROCS_FitColorTversky>
0.939 

> <ROCS_FitTverskyCombo>
2.685 

> <ROCS_ColorScore>
-6.212

> <ROCS_Overlap>
2122.542

> <ROCS_Rank>
41                  

$$$$
untitled-dbase-773_2
  -OEChem-02082415043D

 19 20  0     0  0  0  0  0  0999 V2000
    7.3790   12.0198   25.0612 C   0  0  0  0  0  0  0  0  0  0  0  0
    8.1360   12.9308   24.3170 C   0  0  0  0  0  0  0  0  0  0  0  0
    7.4666   10.6261   24.8265 C   0  0  0  0  0  0  0  0  0  0  0  0
    8.9153   12.2541   23.3909 C   0  0  0  0  0  0  0  0  0  0  0  0
    8.9909   10.8454   23.1683 C   0  0  0  0  0  0  0  0  0  0  0  0
    9.7780   12.8246   22.4961 C   0  0  0  0  0  0  0  0  0  0  0  0
    8.2448    9.9741   23.9043 N   0  0  0  0  0  0  0  0  0  0  0  0
    9.8549   10.5597   22.1876 N   0  0  0  0  0  0  0  0  0  0  0  0
   10.3109   11.7709   21.8046 N   0  0  0  0  0  0  0  0  0  0  0  0
   11.3714   14.2192   20.8772 N   0  0  0  0  0  0  0  0  0  0  0  0
    9.0903   15.1723   21.6080 O   0  0  0  0  0  0  0  0  0  0  0  0
   10.9548   15.0068   23.2944 O   0  0  0  0  0  0  0  0  0  0  0  0
   10.2525   14.4828   22.1374 S   0  0  0  0  0  0  0  0  0  0  0  0
    6.7095   12.3857   25.8354 H   0  0  0  0  0  0  0  0  0  0  0  0
    8.0976   14.0003   24.4647 H   0  0  0  0  0  0  0  0  0  0  0  0
    6.8578    9.9555   25.4305 H   0  0  0  0  0  0  0  0  0  0  0  0
   10.9924   11.8057   21.0570 H   0  0  0  0  0  0  0  0  0  0  0  0
   11.0939   14.4892   19.9256 H   0  0  0  0  0  0  0  0  0  0  0  0
   12.3665   14.3746   21.0793 H   0  0  0  0  0  0  0  0  0  0  0  0
  1  2  2  0  0  0  0
  1  3  1  0  0  0  0
  2  4  1  0  0  0  0
  3  7  2  0  0  0  0
  4  5  1  0  0  0  0
  4  6  2  0  0  0  0
  5  7  1  0  0  0  0
  5  8  2  0  0  0  0
  6  9  1  0  0  0  0
  6 13  1  0  0  0  0
  8  9  1  0  0  0  0
 10 13  1  0  0  0  0
 11 13  2  0  0  0  0
 12 13  2  0  0  0  0
  1 14  1  0  0  0  0
  2 15  1  0  0  0  0
  3 16  1  0  0  0  0
  9 17  1  0  0  0  0
 10 18  1  0  0  0  0
 10 19  1  0  0  0  0
M  END
> <Mol Weight>
198,20

> <Formula>
C6H6N4O2S

> <ID>
EN300-79509

> <name>
Sulfonamides

> <LogP>
-0,54

> <ROCS_ShapeQuery>
x0446_0A_x1080_0A_x0929_0A_x0812_0A_x0719_0A_x1140_0A_x0528_0A_x0310_0A

> <ROCS_TanimotoCombo>
0.367 

> <ROCS_ShapeTanimoto>
0.196 

> <ROCS_ColorTanimoto>
0.171 

> <ROCS_RefTversky>
0.180 

> <ROCS_RefColorTversky>
0.185 

> <ROCS_RefTverskyCombo>
0.365 

> <ROCS_FitTversky>
1.817 

> <ROCS_FitColorTversky>
0.696 

> <ROCS_FitTverskyCombo>
2.512 

> <ROCS_ColorScore>
-6.608

> <ROCS_Overlap>
2125.562

> <ROCS_Rank>
42                  

$$$$
untitled-dbase-2631_886
  -OEChem-02082415043D

 40 40  0     1  0  0  0  0  0999 V2000
    7.0530   12.4341   25.1388 C   0  0  0  0  0  0  0  0  0  0  0  0
    7.7097    9.9100   22.6288 C   0  0  0  0  0  0  0  0  0  0  0  0
    9.1777   10.1860   22.2988 C   0  0  0  0  0  0  0  0  0  0  0  0
    7.4167   10.1532   24.1066 C   0  0  0  0  0  0  0  0  0  0  0  0
    9.2805   11.7756   24.2583 C   0  0  0  0  0  0  0  0  0  0  0  0
    9.6394   11.5719   22.7796 C   0  0  2  0  0  0  0  0  0  0  0  0
    7.9136   14.3037   27.1277 C   0  0  0  0  0  0  0  0  0  0  0  0
    7.6434   16.0473   25.3399 C   0  0  0  0  0  0  0  0  0  0  0  0
    5.6485   14.7351   26.1187 C   0  0  0  0  0  0  0  0  0  0  0  0
    9.0623   12.6939   21.9116 C   0  0  0  0  0  0  0  0  0  0  0  0
    7.1543   14.6980   25.8617 C   0  0  0  0  0  0  0  0  0  0  0  0
    7.8689   11.4867   24.5145 N   0  0  0  0  0  0  0  0  0  0  0  0
   11.3073   13.8335   21.0677 N   0  0  0  0  0  0  0  0  0  0  0  0
    6.1063   12.1567   25.8730 O   0  0  0  0  0  0  0  0  0  0  0  0
    9.2243   15.2726   21.5224 O   0  0  0  0  0  0  0  0  0  0  0  0
   10.4742   14.2493   23.4656 O   0  0  0  0  0  0  0  0  0  0  0  0
    7.4200   13.7213   24.8481 O   0  0  0  0  0  0  0  0  0  0  0  0
    9.9896   14.1762   22.0958 S   0  0  0  0  0  0  0  0  0  0  0  0
    7.0691   10.5532   22.0150 H   0  0  0  0  0  0  0  0  0  0  0  0
    7.4634    8.8723   22.3715 H   0  0  0  0  0  0  0  0  0  0  0  0
    9.8061    9.4024   22.7542 H   0  0  0  0  0  0  0  0  0  0  0  0
    9.3250   10.1000   21.2080 H   0  0  0  0  0  0  0  0  0  0  0  0
    6.3374   10.1061   24.2950 H   0  0  0  0  0  0  0  0  0  0  0  0
    7.8859    9.3687   24.7069 H   0  0  0  0  0  0  0  0  0  0  0  0
    9.9200   11.1457   24.8902 H   0  0  0  0  0  0  0  0  0  0  0  0
    9.4565   12.8172   24.5628 H   0  0  0  0  0  0  0  0  0  0  0  0
   10.7425   11.6161   22.6898 H   0  0  0  0  0  0  0  0  0  0  0  0
    7.5653   13.3357   27.5054 H   0  0  0  0  0  0  0  0  0  0  0  0
    8.9917   14.2394   26.9480 H   0  0  0  0  0  0  0  0  0  0  0  0
    7.7391   15.0295   27.9302 H   0  0  0  0  0  0  0  0  0  0  0  0
    7.1014   16.3341   24.4315 H   0  0  0  0  0  0  0  0  0  0  0  0
    8.7032   15.9983   25.0645 H   0  0  0  0  0  0  0  0  0  0  0  0
    7.5151   16.8392   26.0849 H   0  0  0  0  0  0  0  0  0  0  0  0
    5.1037   15.0178   25.2107 H   0  0  0  0  0  0  0  0  0  0  0  0
    5.2733   13.7643   26.4586 H   0  0  0  0  0  0  0  0  0  0  0  0
    5.4008   15.4885   26.8752 H   0  0  0  0  0  0  0  0  0  0  0  0
    8.0356   12.9063   22.2039 H   0  0  0  0  0  0  0  0  0  0  0  0
    9.0931   12.4114   20.8611 H   0  0  0  0  0  0  0  0  0  0  0  0
   11.3681   14.3501   20.1817 H   0  0  0  0  0  0  0  0  0  0  0  0
   12.2193   13.6531   21.5052 H   0  0  0  0  0  0  0  0  0  0  0  0
  1 12  1  0  0  0  0
  1 14  2  0  0  0  0
  1 17  1  0  0  0  0
  2  3  1  0  0  0  0
  2  4  1  0  0  0  0
  3  6  1  0  0  0  0
  4 12  1  0  0  0  0
  5  6  1  0  0  0  0
  5 12  1  0  0  0  0
  6 10  1  1  0  0  0
  7 11  1  0  0  0  0
  8 11  1  0  0  0  0
  9 11  1  0  0  0  0
 10 18  1  0  0  0  0
 11 17  1  0  0  0  0
 13 18  1  0  0  0  0
 15 18  2  0  0  0  0
 16 18  2  0  0  0  0
  2 19  1  0  0  0  0
  2 20  1  0  0  0  0
  3 21  1  0  0  0  0
  3 22  1  0  0  0  0
  4 23  1  0  0  0  0
  4 24  1  0  0  0  0
  5 25  1  0  0  0  0
  5 26  1  0  0  0  0
  6 27  1  0  0  0  0
  7 28  1  0  0  0  0
  7 29  1  0  0  0  0
  7 30  1  0  0  0  0
  8 31  1  0  0  0  0
  8 32  1  0  0  0  0
  8 33  1  0  0  0  0
  9 34  1  0  0  0  0
  9 35  1  0  0  0  0
  9 36  1  0  0  0  0
 10 37  1  0  0  0  0
 10 38  1  0  0  0  0
 13 39  1  0  0  0  0
 13 40  1  0  0  0  0
M  END
> <Mol Weight>
278,37

> <Formula>
C11H22N2O4S

> <ID>
EN300-27748696

> <name>
Sulfonamides

> <LogP>
0,05

> <ROCS_ShapeQuery>
x0446_0A_x1080_0A_x0929_0A_x0812_0A_x0719_0A_x1140_0A_x0528_0A_x0310_0A

> <ROCS_TanimotoCombo>
0.366 

> <ROCS_ShapeTanimoto>
0.201 

> <ROCS_ColorTanimoto>
0.165 

> <ROCS_RefTversky>
0.186 

> <ROCS_RefColorTversky>
0.172 

> <ROCS_RefTverskyCombo>
0.358 

> <ROCS_FitTversky>
1.656 

> <ROCS_FitColorTversky>
0.810 

> <ROCS_FitTverskyCombo>
2.466 

> <ROCS_ColorScore>
-6.127

> <ROCS_Overlap>
2198.579

> <ROCS_Rank>
43                  

$$$$
untitled-dbase-2081_162
  -OEChem-02082415043D

 29 29  0     0  0  0  0  0  0999 V2000
    9.3392    9.8355   24.5578 C   0  0  0  0  0  0  0  0  0  0  0  0
   10.2140   10.1711   23.5245 C   0  0  0  0  0  0  0  0  0  0  0  0
    8.1644   10.5648   24.7415 C   0  0  0  0  0  0  0  0  0  0  0  0
    9.9141   11.2359   22.6749 C   0  0  0  0  0  0  0  0  0  0  0  0
    7.8645   11.6297   23.8920 C   0  0  0  0  0  0  0  0  0  0  0  0
    8.7394   11.9653   22.8587 C   0  0  0  0  0  0  0  0  0  0  0  0
    6.8171   13.7445   24.7628 C   0  0  0  0  0  0  0  0  0  0  0  0
    7.7183   14.7624   26.7000 C   0  0  0  0  0  0  0  0  0  0  0  0
    6.6004   12.3956   24.1069 C   0  0  0  0  0  0  0  0  0  0  0  0
    8.4399   13.1017   21.9369 C   0  0  0  0  0  0  0  0  0  0  0  0
   10.9264   13.5643   21.1278 N   0  0  0  0  0  0  0  0  0  0  0  0
    6.4767   14.8188   24.2862 O   0  0  0  0  0  0  0  0  0  0  0  0
    9.2993   15.5258   21.4764 O   0  0  0  0  0  0  0  0  0  0  0  0
   10.1858   14.2764   23.4860 O   0  0  0  0  0  0  0  0  0  0  0  0
    7.4476   13.5662   25.9622 O   0  0  0  0  0  0  0  0  0  0  0  0
    9.7320   14.2893   22.1055 S   0  0  0  0  0  0  0  0  0  0  0  0
    9.5735    9.0070   25.2194 H   0  0  0  0  0  0  0  0  0  0  0  0
   11.1288    9.6030   23.3822 H   0  0  0  0  0  0  0  0  0  0  0  0
    7.4902   10.2963   25.5506 H   0  0  0  0  0  0  0  0  0  0  0  0
   10.6018   11.4894   21.8724 H   0  0  0  0  0  0  0  0  0  0  0  0
    8.2208   14.5080   27.6364 H   0  0  0  0  0  0  0  0  0  0  0  0
    6.7805   15.2838   26.9073 H   0  0  0  0  0  0  0  0  0  0  0  0
    8.3679   15.4081   26.1043 H   0  0  0  0  0  0  0  0  0  0  0  0
    6.0915   12.5625   23.1448 H   0  0  0  0  0  0  0  0  0  0  0  0
    5.9107   11.8160   24.7396 H   0  0  0  0  0  0  0  0  0  0  0  0
    7.4931   13.5946   22.1816 H   0  0  0  0  0  0  0  0  0  0  0  0
    8.4051   12.7862   20.8887 H   0  0  0  0  0  0  0  0  0  0  0  0
   11.1424   14.0099   20.2276 H   0  0  0  0  0  0  0  0  0  0  0  0
   11.7460   13.1588   21.5962 H   0  0  0  0  0  0  0  0  0  0  0  0
  1  2  1  0  0  0  0
  1  3  2  0  0  0  0
  2  4  2  0  0  0  0
  3  5  1  0  0  0  0
  4  6  1  0  0  0  0
  5  6  2  0  0  0  0
  5  9  1  0  0  0  0
  6 10  1  0  0  0  0
  7  9  1  0  0  0  0
  7 12  2  0  0  0  0
  7 15  1  0  0  0  0
  8 15  1  0  0  0  0
 10 16  1  0  0  0  0
 11 16  1  0  0  0  0
 13 16  2  0  0  0  0
 14 16  2  0  0  0  0
  1 17  1  0  0  0  0
  2 18  1  0  0  0  0
  3 19  1  0  0  0  0
  4 20  1  0  0  0  0
  8 21  1  0  0  0  0
  8 22  1  0  0  0  0
  8 23  1  0  0  0  0
  9 24  1  0  0  0  0
  9 25  1  0  0  0  0
 10 26  1  0  0  0  0
 10 27  1  0  0  0  0
 11 28  1  0  0  0  0
 11 29  1  0  0  0  0
M  END
> <Mol Weight>
243,28

> <Formula>
C10H13NO4S

> <ID>
EN300-1120784

> <name>
Sulfonamides

> <LogP>
0,13

> <ROCS_ShapeQuery>
x0446_0A_x1080_0A_x0929_0A_x0812_0A_x0719_0A_x1140_0A_x0528_0A_x0310_0A

> <ROCS_TanimotoCombo>
0.366 

> <ROCS_ShapeTanimoto>
0.204 

> <ROCS_ColorTanimoto>
0.163 

> <ROCS_RefTversky>
0.187 

> <ROCS_RefColorTversky>
0.166 

> <ROCS_RefTverskyCombo>
0.353 

> <ROCS_FitTversky>
1.756 

> <ROCS_FitColorTversky>
0.892 

> <ROCS_FitTverskyCombo>
2.649 

> <ROCS_ColorScore>
-5.900

> <ROCS_Overlap>
2207.192

> <ROCS_Rank>
44                  

$$$$
untitled-dbase-1625_41
  -OEChem-02082415043D

 29 30  0     0  0  0  0  0  0999 V2000
    5.6213   12.3857   25.6333 C   0  0  0  0  0  0  0  0  0  0  0  0
    6.3936   11.2389   25.4493 C   0  0  0  0  0  0  0  0  0  0  0  0
    5.9745   13.5742   24.9979 C   0  0  0  0  0  0  0  0  0  0  0  0
    7.5237   11.2712   24.6215 C   0  0  0  0  0  0  0  0  0  0  0  0
    7.8912   12.4766   23.9973 C   0  0  0  0  0  0  0  0  0  0  0  0
    7.1035   13.6204   24.1803 C   0  0  0  0  0  0  0  0  0  0  0  0
    9.0907   12.5232   23.0854 C   0  0  0  0  0  0  0  0  0  0  0  0
    8.3739   10.0349   24.4594 C   0  0  0  0  0  0  0  0  0  0  0  0
   10.0291   11.3320   23.2873 C   0  0  0  0  0  0  0  0  0  0  0  0
    6.7231   16.1903   21.3261 C   0  0  0  0  0  0  0  0  0  0  0  0
    9.2669   10.0840   23.2959 N   0  0  0  0  0  0  0  0  0  0  0  0
    7.4344   14.8607   23.5476 N   0  0  0  0  0  0  0  0  0  0  0  0
    9.1341   15.2706   21.6558 O   0  0  0  0  0  0  0  0  0  0  0  0
    7.2662   13.6318   21.2428 O   0  0  0  0  0  0  0  0  0  0  0  0
    7.7610   14.8472   21.8584 S   0  0  0  0  0  0  0  0  0  0  0  0
    4.7440   12.3513   26.2726 H   0  0  0  0  0  0  0  0  0  0  0  0
    6.1096   10.3193   25.9546 H   0  0  0  0  0  0  0  0  0  0  0  0
    5.3627   14.4602   25.1484 H   0  0  0  0  0  0  0  0  0  0  0  0
    8.7727   12.5305   22.0363 H   0  0  0  0  0  0  0  0  0  0  0  0
    9.6356   13.4557   23.2803 H   0  0  0  0  0  0  0  0  0  0  0  0
    8.9927    9.8945   25.3535 H   0  0  0  0  0  0  0  0  0  0  0  0
    7.7171    9.1606   24.3779 H   0  0  0  0  0  0  0  0  0  0  0  0
   10.7938   11.3009   22.5009 H   0  0  0  0  0  0  0  0  0  0  0  0
   10.5607   11.4405   24.2390 H   0  0  0  0  0  0  0  0  0  0  0  0
    6.8305   16.3013   20.2460 H   0  0  0  0  0  0  0  0  0  0  0  0
    5.6906   15.9510   21.5851 H   0  0  0  0  0  0  0  0  0  0  0  0
    7.0455   17.0982   21.8379 H   0  0  0  0  0  0  0  0  0  0  0  0
    9.9130    9.2953   23.3349 H   0  0  0  0  0  0  0  0  0  0  0  0
    8.0601   15.4634   24.1047 H   0  0  0  0  0  0  0  0  0  0  0  0
  1  2  1  0  0  0  0
  1  3  2  0  0  0  0
  2  4  2  0  0  0  0
  3  6  1  0  0  0  0
  4  5  1  0  0  0  0
  4  8  1  0  0  0  0
  5  6  2  0  0  0  0
  5  7  1  0  0  0  0
  6 12  1  0  0  0  0
  7  9  1  0  0  0  0
  8 11  1  0  0  0  0
  9 11  1  0  0  0  0
 10 15  1  0  0  0  0
 12 15  1  0  0  0  0
 13 15  2  0  0  0  0
 14 15  2  0  0  0  0
  1 16  1  0  0  0  0
  2 17  1  0  0  0  0
  3 18  1  0  0  0  0
  7 19  1  0  0  0  0
  7 20  1  0  0  0  0
  8 21  1  0  0  0  0
  8 22  1  0  0  0  0
  9 23  1  0  0  0  0
  9 24  1  0  0  0  0
 10 25  1  0  0  0  0
 10 26  1  0  0  0  0
 10 27  1  0  0  0  0
 11 28  1  0  0  0  0
 12 29  1  0  0  0  0
M  END
> <Mol Weight>
226,29

> <Formula>
C10H14N2O2S

> <ID>
EN300-58634

> <name>
Sulfonamides

> <LogP>
-0,29

> <ROCS_ShapeQuery>
x0446_0A_x1080_0A_x0929_0A_x0812_0A_x0719_0A_x1140_0A_x0528_0A_x0310_0A

> <ROCS_TanimotoCombo>
0.364 

> <ROCS_ShapeTanimoto>
0.200 

> <ROCS_ColorTanimoto>
0.164 

> <ROCS_RefTversky>
0.184 

> <ROCS_RefColorTversky>
0.174 

> <ROCS_RefTverskyCombo>
0.359 

> <ROCS_FitTversky>
1.772 

> <ROCS_FitColorTversky>
0.731 

> <ROCS_FitTverskyCombo>
2.503 

> <ROCS_ColorScore>
-6.226

> <ROCS_Overlap>
2174.751

> <ROCS_Rank>
45                  

$$$$
untitled-dbase-2419_41
  -OEChem-02082415043D

 29 30  0     0  0  0  0  0  0999 V2000
    5.6213   12.3857   25.6333 C   0  0  0  0  0  0  0  0  0  0  0  0
    6.3936   11.2389   25.4493 C   0  0  0  0  0  0  0  0  0  0  0  0
    5.9745   13.5742   24.9979 C   0  0  0  0  0  0  0  0  0  0  0  0
    7.5237   11.2712   24.6215 C   0  0  0  0  0  0  0  0  0  0  0  0
    7.8912   12.4766   23.9973 C   0  0  0  0  0  0  0  0  0  0  0  0
    7.1035   13.6204   24.1803 C   0  0  0  0  0  0  0  0  0  0  0  0
    9.0907   12.5232   23.0854 C   0  0  0  0  0  0  0  0  0  0  0  0
    8.3739   10.0349   24.4594 C   0  0  0  0  0  0  0  0  0  0  0  0
   10.0291   11.3320   23.2873 C   0  0  0  0  0  0  0  0  0  0  0  0
    6.7231   16.1903   21.3261 C   0  0  0  0  0  0  0  0  0  0  0  0
    9.2669   10.0840   23.2959 N   0  0  0  0  0  0  0  0  0  0  0  0
    7.4344   14.8607   23.5476 N   0  0  0  0  0  0  0  0  0  0  0  0
    9.1341   15.2706   21.6558 O   0  0  0  0  0  0  0  0  0  0  0  0
    7.2662   13.6318   21.2428 O   0  0  0  0  0  0  0  0  0  0  0  0
    7.7610   14.8472   21.8584 S   0  0  0  0  0  0  0  0  0  0  0  0
    4.7440   12.3513   26.2726 H   0  0  0  0  0  0  0  0  0  0  0  0
    6.1096   10.3193   25.9546 H   0  0  0  0  0  0  0  0  0  0  0  0
    5.3627   14.4602   25.1484 H   0  0  0  0  0  0  0  0  0  0  0  0
    8.7727   12.5305   22.0363 H   0  0  0  0  0  0  0  0  0  0  0  0
    9.6356   13.4557   23.2803 H   0  0  0  0  0  0  0  0  0  0  0  0
    8.9927    9.8945   25.3535 H   0  0  0  0  0  0  0  0  0  0  0  0
    7.7171    9.1606   24.3779 H   0  0  0  0  0  0  0  0  0  0  0  0
   10.7938   11.3009   22.5009 H   0  0  0  0  0  0  0  0  0  0  0  0
   10.5607   11.4405   24.2390 H   0  0  0  0  0  0  0  0  0  0  0  0
    6.8305   16.3013   20.2460 H   0  0  0  0  0  0  0  0  0  0  0  0
    5.6906   15.9510   21.5851 H   0  0  0  0  0  0  0  0  0  0  0  0
    7.0455   17.0982   21.8379 H   0  0  0  0  0  0  0  0  0  0  0  0
    9.9130    9.2953   23.3349 H   0  0  0  0  0  0  0  0  0  0  0  0
    8.0601   15.4634   24.1047 H   0  0  0  0  0  0  0  0  0  0  0  0
  1  2  1  0  0  0  0
  1  3  2  0  0  0  0
  2  4  2  0  0  0  0
  3  6  1  0  0  0  0
  4  5  1  0  0  0  0
  4  8  1  0  0  0  0
  5  6  2  0  0  0  0
  5  7  1  0  0  0  0
  6 12  1  0  0  0  0
  7  9  1  0  0  0  0
  8 11  1  0  0  0  0
  9 11  1  0  0  0  0
 10 15  1  0  0  0  0
 12 15  1  0  0  0  0
 13 15  2  0  0  0  0
 14 15  2  0  0  0  0
  1 16  1  0  0  0  0
  2 17  1  0  0  0  0
  3 18  1  0  0  0  0
  7 19  1  0  0  0  0
  7 20  1  0  0  0  0
  8 21  1  0  0  0  0
  8 22  1  0  0  0  0
  9 23  1  0  0  0  0
  9 24  1  0  0  0  0
 10 25  1  0  0  0  0
 10 26  1  0  0  0  0
 10 27  1  0  0  0  0
 11 28  1  0  0  0  0
 12 29  1  0  0  0  0
M  END
> <Mol Weight>
262,75

> <Formula>
C10H15ClN2O2S

> <ID>
EN300-52071

> <name>
Sulfonamides

> <LogP>
-0,29

> <ROCS_ShapeQuery>
x0446_0A_x1080_0A_x0929_0A_x0812_0A_x0719_0A_x1140_0A_x0528_0A_x0310_0A

> <ROCS_TanimotoCombo>
0.364 

> <ROCS_ShapeTanimoto>
0.200 

> <ROCS_ColorTanimoto>
0.164 

> <ROCS_RefTversky>
0.184 

> <ROCS_RefColorTversky>
0.174 

> <ROCS_RefTverskyCombo>
0.359 

> <ROCS_FitTversky>
1.772 

> <ROCS_FitColorTversky>
0.731 

> <ROCS_FitTverskyCombo>
2.503 

> <ROCS_ColorScore>
-6.226

> <ROCS_Overlap>
2174.751

> <ROCS_Rank>
46                  

$$$$
untitled-dbase-1709_32
  -OEChem-02082415043D

 26 27  0     0  0  0  0  0  0999 V2000
    7.5870   12.5503   25.1583 C   0  0  0  0  0  0  0  0  0  0  0  0
    7.5982   11.1550   25.0921 C   0  0  0  0  0  0  0  0  0  0  0  0
    9.2564   12.6903   23.3915 C   0  0  0  0  0  0  0  0  0  0  0  0
    8.4113   13.3136   24.3128 C   0  0  0  0  0  0  0  0  0  0  0  0
    8.4416   10.5643   24.1738 C   0  0  0  0  0  0  0  0  0  0  0  0
    9.2484   11.3113   23.3461 C   0  0  0  0  0  0  0  0  0  0  0  0
    9.5751    9.2158   22.9172 C   0  0  0  0  0  0  0  0  0  0  0  0
    8.3831   14.8029   24.4024 C   0  0  0  0  0  0  0  0  0  0  0  0
    7.3512   15.4531   23.4774 C   0  0  0  0  0  0  0  0  0  0  0  0
    6.3183   15.9156   21.0752 N   0  0  0  0  0  0  0  0  0  0  0  0
    8.8608   15.6418   21.3531 O   0  0  0  0  0  0  0  0  0  0  0  0
    7.3599   13.6252   21.6101 O   0  0  0  0  0  0  0  0  0  0  0  0
    8.5862    9.2270   23.9671 O   0  0  0  0  0  0  0  0  0  0  0  0
    9.9993   10.5353   22.5179 O   0  0  0  0  0  0  0  0  0  0  0  0
    7.6057   15.0469   21.7783 S   0  0  0  0  0  0  0  0  0  0  0  0
    6.9315   13.0440   25.8716 H   0  0  0  0  0  0  0  0  0  0  0  0
    6.9636   10.5630   25.7414 H   0  0  0  0  0  0  0  0  0  0  0  0
    9.8964   13.2673   22.7326 H   0  0  0  0  0  0  0  0  0  0  0  0
   10.4509    8.6571   23.2668 H   0  0  0  0  0  0  0  0  0  0  0  0
    9.1547    8.7033   22.0446 H   0  0  0  0  0  0  0  0  0  0  0  0
    9.3769   15.2041   24.1397 H   0  0  0  0  0  0  0  0  0  0  0  0
    8.2000   15.1353   25.4387 H   0  0  0  0  0  0  0  0  0  0  0  0
    6.3435   15.1018   23.7216 H   0  0  0  0  0  0  0  0  0  0  0  0
    7.3629   16.5447   23.5523 H   0  0  0  0  0  0  0  0  0  0  0  0
    6.5497   16.7514   20.5243 H   0  0  0  0  0  0  0  0  0  0  0  0
    5.5274   15.3780   20.6996 H   0  0  0  0  0  0  0  0  0  0  0  0
  1  2  2  0  0  0  0
  1  4  1  0  0  0  0
  2  5  1  0  0  0  0
  3  4  2  0  0  0  0
  3  6  1  0  0  0  0
  4  8  1  0  0  0  0
  5  6  2  0  0  0  0
  5 13  1  0  0  0  0
  6 14  1  0  0  0  0
  7 13  1  0  0  0  0
  7 14  1  0  0  0  0
  8  9  1  0  0  0  0
  9 15  1  0  0  0  0
 10 15  1  0  0  0  0
 11 15  2  0  0  0  0
 12 15  2  0  0  0  0
  1 16  1  0  0  0  0
  2 17  1  0  0  0  0
  3 18  1  0  0  0  0
  7 19  1  0  0  0  0
  7 20  1  0  0  0  0
  8 21  1  0  0  0  0
  8 22  1  0  0  0  0
  9 23  1  0  0  0  0
  9 24  1  0  0  0  0
 10 25  1  0  0  0  0
 10 26  1  0  0  0  0
M  END
> <Mol Weight>
229,25

> <Formula>
C9H11NO4S

> <ID>
EN300-26682377

> <name>
Sulfonamides

> <LogP>
0,25

> <ROCS_ShapeQuery>
x0446_0A_x1080_0A_x0929_0A_x0812_0A_x0719_0A_x1140_0A_x0528_0A_x0310_0A

> <ROCS_TanimotoCombo>
0.364 

> <ROCS_ShapeTanimoto>
0.207 

> <ROCS_ColorTanimoto>
0.158 

> <ROCS_RefTversky>
0.189 

> <ROCS_RefColorTversky>
0.169 

> <ROCS_RefTverskyCombo>
0.358 

> <ROCS_FitTversky>
1.803 

> <ROCS_FitColorTversky>
0.706 

> <ROCS_FitTverskyCombo>
2.508 

> <ROCS_ColorScore>
-6.028

> <ROCS_Overlap>
2231.262

> <ROCS_Rank>
47                  

$$$$
untitled-dbase-2098_113
  -OEChem-02082415043D

 28 29  0     0  0  0  0  0  0999 V2000
   10.7918   10.3690   23.4164 C   0  0  0  0  0  0  0  0  0  0  0  0
   11.3863   11.5565   23.5383 C   0  0  0  0  0  0  0  0  0  0  0  0
    9.3797   10.5194   23.8002 C   0  0  0  0  0  0  0  0  0  0  0  0
   10.3855   12.5284   24.0062 C   0  0  0  0  0  0  0  0  0  0  0  0
    7.7626   13.8061   23.9256 C   0  0  0  0  0  0  0  0  0  0  0  0
    6.7888   11.8768   23.7248 C   0  0  0  0  0  0  0  0  0  0  0  0
    6.7569   13.1973   22.9212 C   0  0  0  0  0  0  0  0  0  0  0  0
    7.9371   12.4285   24.5856 C   0  0  0  0  0  0  0  0  0  0  0  0
    7.2165   13.1152   21.4754 C   0  0  0  0  0  0  0  0  0  0  0  0
    9.2005   11.8413   24.1425 N   0  0  0  0  0  0  0  0  0  0  0  0
    6.2939   15.6050   21.5090 N   0  0  0  0  0  0  0  0  0  0  0  0
    8.5690    9.6089   23.7961 O   0  0  0  0  0  0  0  0  0  0  0  0
   10.6247   13.7056   24.2150 O   0  0  0  0  0  0  0  0  0  0  0  0
    8.8269   15.1713   21.3965 O   0  0  0  0  0  0  0  0  0  0  0  0
    7.3905   14.6664   19.3798 O   0  0  0  0  0  0  0  0  0  0  0  0
    7.5738   14.7124   20.8209 S   0  0  0  0  0  0  0  0  0  0  0  0
   11.2421    9.4447   23.0958 H   0  0  0  0  0  0  0  0  0  0  0  0
   12.4176   11.7923   23.3366 H   0  0  0  0  0  0  0  0  0  0  0  0
    8.6837   14.2147   23.4599 H   0  0  0  0  0  0  0  0  0  0  0  0
    7.3539   14.5990   24.5814 H   0  0  0  0  0  0  0  0  0  0  0  0
    5.8577   11.6349   24.2728 H   0  0  0  0  0  0  0  0  0  0  0  0
    7.0519   10.9816   23.1235 H   0  0  0  0  0  0  0  0  0  0  0  0
    5.7661   13.6917   22.9706 H   0  0  0  0  0  0  0  0  0  0  0  0
    7.8085   12.3860   25.6283 H   0  0  0  0  0  0  0  0  0  0  0  0
    6.4412   12.6731   20.8448 H   0  0  0  0  0  0  0  0  0  0  0  0
    8.1281   12.5189   21.3898 H   0  0  0  0  0  0  0  0  0  0  0  0
    5.3468   15.4390   21.1470 H   0  0  0  0  0  0  0  0  0  0  0  0
    6.3253   15.7830   22.5204 H   0  0  0  0  0  0  0  0  0  0  0  0
  1  2  2  0  0  0  0
  1  3  1  0  0  0  0
  2  4  1  0  0  0  0
  3 10  1  0  0  0  0
  3 12  2  0  0  0  0
  4 10  1  0  0  0  0
  4 13  2  0  0  0  0
  5  7  1  0  0  0  0
  5  8  1  0  0  0  0
  6  7  1  0  0  0  0
  6  8  1  0  0  0  0
  7  9  1  0  0  0  0
  8 10  1  0  0  0  0
  9 16  1  0  0  0  0
 11 16  1  0  0  0  0
 14 16  2  0  0  0  0
 15 16  2  0  0  0  0
  1 17  1  0  0  0  0
  2 18  1  0  0  0  0
  5 19  1  0  0  0  0
  5 20  1  0  0  0  0
  6 21  1  0  0  0  0
  6 22  1  0  0  0  0
  7 23  1  0  0  0  0
  8 24  1  0  0  0  0
  9 25  1  0  0  0  0
  9 26  1  0  0  0  0
 11 27  1  0  0  0  0
 11 28  1  0  0  0  0
M  END
> <Mol Weight>
244,27

> <Formula>
C9H12N2O4S

> <ID>
EN300-37468848

> <name>
Sulfonamides

> <LogP>
-1,44

> <ROCS_ShapeQuery>
x0446_0A_x1080_0A_x0929_0A_x0812_0A_x0719_0A_x1140_0A_x0528_0A_x0310_0A

> <ROCS_TanimotoCombo>
0.364 

> <ROCS_ShapeTanimoto>
0.200 

> <ROCS_ColorTanimoto>
0.164 

> <ROCS_RefTversky>
0.185 

> <ROCS_RefColorTversky>
0.175 

> <ROCS_RefTverskyCombo>
0.359 

> <ROCS_FitTversky>
1.703 

> <ROCS_FitColorTversky>
0.732 

> <ROCS_FitTverskyCombo>
2.435 

> <ROCS_ColorScore>
-6.233

> <ROCS_Overlap>
2177.814

> <ROCS_Rank>
48                  

$$$$
untitled-dbase-345_12
  -OEChem-02082415043D

 24 25  0     1  0  0  0  0  0999 V2000
    8.7523    9.7415   24.5913 C   0  0  0  0  0  0  0  0  0  0  0  0
    7.6346   10.7742   24.6831 C   0  0  0  0  0  0  0  0  0  0  0  0
    9.5145   10.1453   23.3381 C   0  0  0  0  0  0  0  0  0  0  0  0
    7.7502   12.5944   22.7883 C   0  0  0  0  0  0  0  0  0  0  0  0
    8.2570   12.0635   24.1520 C   0  0  2  0  0  0  0  0  0  0  0  0
    9.5825   11.6647   23.4612 C   0  0  2  0  0  0  0  0  0  0  0  0
    9.1936   12.5415   22.2513 C   0  0  2  0  0  0  0  0  0  0  0  0
   11.2414   13.7628   21.0752 N   0  0  0  0  0  0  0  0  0  0  0  0
    9.0964   15.0769   21.6125 O   0  0  0  0  0  0  0  0  0  0  0  0
   10.6128   14.3512   23.4992 O   0  0  0  0  0  0  0  0  0  0  0  0
   10.0148   14.1230   22.1998 S   0  0  0  0  0  0  0  0  0  0  0  0
    9.3857    9.7330   25.4848 H   0  0  0  0  0  0  0  0  0  0  0  0
    8.3266    8.7367   24.4720 H   0  0  0  0  0  0  0  0  0  0  0  0
    6.7471   10.4754   24.1201 H   0  0  0  0  0  0  0  0  0  0  0  0
    7.3446   10.9080   25.7310 H   0  0  0  0  0  0  0  0  0  0  0  0
   10.5196    9.7237   23.3621 H   0  0  0  0  0  0  0  0  0  0  0  0
    9.0158    9.8221   22.4280 H   0  0  0  0  0  0  0  0  0  0  0  0
    7.0506   11.9406   22.2677 H   0  0  0  0  0  0  0  0  0  0  0  0
    7.3171   13.5939   22.8499 H   0  0  0  0  0  0  0  0  0  0  0  0
    8.3430   12.8424   24.9032 H   0  0  0  0  0  0  0  0  0  0  0  0
   10.4775   12.0085   24.0055 H   0  0  0  0  0  0  0  0  0  0  0  0
    9.2749   12.0461   21.2870 H   0  0  0  0  0  0  0  0  0  0  0  0
   11.1722   14.1795   20.1386 H   0  0  0  0  0  0  0  0  0  0  0  0
   12.2049   13.6851   21.4236 H   0  0  0  0  0  0  0  0  0  0  0  0
  1  2  1  0  0  0  0
  1  3  1  0  0  0  0
  2  5  1  0  0  0  0
  3  6  1  0  0  0  0
  4  5  1  0  0  0  0
  4  7  1  0  0  0  0
  5  6  1  0  0  0  0
  6  7  1  0  0  0  0
  7 11  1  0  0  0  0
  8 11  1  0  0  0  0
  9 11  2  0  0  0  0
 10 11  2  0  0  0  0
  1 12  1  0  0  0  0
  1 13  1  0  0  0  0
  2 14  1  0  0  0  0
  2 15  1  0  0  0  0
  3 16  1  0  0  0  0
  3 17  1  0  0  0  0
  4 18  1  0  0  0  0
  4 19  1  0  0  0  0
  5 20  1  0  0  0  0
  6 21  1  0  0  0  0
  7 22  1  0  0  0  0
  8 23  1  0  0  0  0
  8 24  1  0  0  0  0
M  END
> <Mol Weight>
175,25

> <Formula>
C7H13NO2S

> <ID>
EN300-1629222

> <name>
Sulfonamides

> <LogP>
0,31

> <ROCS_ShapeQuery>
x0446_0A_x1080_0A_x0929_0A_x0812_0A_x0719_0A_x1140_0A_x0528_0A_x0310_0A

> <ROCS_TanimotoCombo>
0.364 

> <ROCS_ShapeTanimoto>
0.167 

> <ROCS_ColorTanimoto>
0.196 

> <ROCS_RefTversky>
0.156 

> <ROCS_RefColorTversky>
0.210 

> <ROCS_RefTverskyCombo>
0.366 

> <ROCS_FitTversky>
1.755 

> <ROCS_FitColorTversky>
0.759 

> <ROCS_FitTverskyCombo>
2.514 

> <ROCS_ColorScore>
-7.493

> <ROCS_Overlap>
1841.257

> <ROCS_Rank>
49                  

$$$$
untitled-dbase-1924_1
  -OEChem-02082415043D

 26 27  0     0  0  0  0  0  0999 V2000
    5.9510   12.5376   25.3635 C   0  0  0  0  0  0  0  0  0  0  0  0
    6.5861   11.3794   24.9388 C   0  0  0  0  0  0  0  0  0  0  0  0
    9.4750   10.4080   22.8106 C   0  0  0  0  0  0  0  0  0  0  0  0
    9.9210   11.6639   22.4182 C   0  0  0  0  0  0  0  0  0  0  0  0
    6.4612   13.7426   24.9250 C   0  0  0  0  0  0  0  0  0  0  0  0
    7.7028   11.4566   24.0955 C   0  0  0  0  0  0  0  0  0  0  0  0
    8.1500   12.7350   23.7011 C   0  0  0  0  0  0  0  0  0  0  0  0
    8.3680   10.3026   23.6478 C   0  0  0  0  0  0  0  0  0  0  0  0
    9.2595   12.8110   22.8636 C   0  0  0  0  0  0  0  0  0  0  0  0
    6.9963    8.4187   23.1733 C   0  0  0  0  0  0  0  0  0  0  0  0
    7.5358   13.8606   24.1117 N   0  0  0  0  0  0  0  0  0  0  0  0
   11.1931   13.8748   21.3689 N   0  0  0  0  0  0  0  0  0  0  0  0
    8.8692   14.9844   21.4860 O   0  0  0  0  0  0  0  0  0  0  0  0
   10.3811   15.0742   23.4994 O   0  0  0  0  0  0  0  0  0  0  0  0
    7.9544    9.0545   24.0148 O   0  0  0  0  0  0  0  0  0  0  0  0
    9.8749   14.3677   22.3347 S   0  0  0  0  0  0  0  0  0  0  0  0
    5.0865   12.4968   26.0154 H   0  0  0  0  0  0  0  0  0  0  0  0
    6.1966   10.4215   25.2744 H   0  0  0  0  0  0  0  0  0  0  0  0
    9.9917    9.5180   22.4623 H   0  0  0  0  0  0  0  0  0  0  0  0
   10.7864   11.7416   21.7657 H   0  0  0  0  0  0  0  0  0  0  0  0
    6.0065   14.6811   25.2252 H   0  0  0  0  0  0  0  0  0  0  0  0
    6.7526    7.4331   23.5772 H   0  0  0  0  0  0  0  0  0  0  0  0
    7.4047    8.3200   22.1643 H   0  0  0  0  0  0  0  0  0  0  0  0
    6.0914    9.0301   23.1397 H   0  0  0  0  0  0  0  0  0  0  0  0
   11.1095   13.9828   20.3507 H   0  0  0  0  0  0  0  0  0  0  0  0
   12.1409   14.0429   21.7277 H   0  0  0  0  0  0  0  0  0  0  0  0
  1  2  2  0  0  0  0
  1  5  1  0  0  0  0
  2  6  1  0  0  0  0
  3  4  2  0  0  0  0
  3  8  1  0  0  0  0
  4  9  1  0  0  0  0
  5 11  2  0  0  0  0
  6  7  1  0  0  0  0
  6  8  2  0  0  0  0
  7  9  2  0  0  0  0
  7 11  1  0  0  0  0
  8 15  1  0  0  0  0
  9 16  1  0  0  0  0
 10 15  1  0  0  0  0
 12 16  1  0  0  0  0
 13 16  2  0  0  0  0
 14 16  2  0  0  0  0
  1 17  1  0  0  0  0
  2 18  1  0  0  0  0
  3 19  1  0  0  0  0
  4 20  1  0  0  0  0
  5 21  1  0  0  0  0
 10 22  1  0  0  0  0
 10 23  1  0  0  0  0
 10 24  1  0  0  0  0
 12 25  1  0  0  0  0
 12 26  1  0  0  0  0
M  END
> <Mol Weight>
238,26

> <Formula>
C10H10N2O3S

> <ID>
EN300-291858

> <name>
Sulfonamides

> <LogP>
0,58

> <ROCS_ShapeQuery>
x0446_0A_x1080_0A_x0929_0A_x0812_0A_x0719_0A_x1140_0A_x0528_0A_x0310_0A

> <ROCS_TanimotoCombo>
0.364 

> <ROCS_ShapeTanimoto>
0.213 

> <ROCS_ColorTanimoto>
0.151 

> <ROCS_RefTversky>
0.195 

> <ROCS_RefColorTversky>
0.163 

> <ROCS_RefTverskyCombo>
0.357 

> <ROCS_FitTversky>
1.776 

> <ROCS_FitColorTversky>
0.681 

> <ROCS_FitTverskyCombo>
2.457 

> <ROCS_ColorScore>
-5.801

> <ROCS_Overlap>
2297.248

> <ROCS_Rank>
50                  

$$$$
untitled-dbase-2591_4
  -OEChem-02082415043D

 28 30  0     0  0  0  0  0  0999 V2000
   12.1197   16.3442   21.9889 C   0  0  0  0  0  0  0  0  0  0  0  0
   11.1713   15.6593   21.2292 C   0  0  0  0  0  0  0  0  0  0  0  0
   12.6769   15.7418   23.1170 C   0  0  0  0  0  0  0  0  0  0  0  0
   10.7801   14.3721   21.5976 C   0  0  0  0  0  0  0  0  0  0  0  0
   12.2856   14.4546   23.4853 C   0  0  0  0  0  0  0  0  0  0  0  0
    8.3545   12.5512   23.5508 C   0  0  0  0  0  0  0  0  0  0  0  0
    7.6272   10.3577   24.1898 C   0  0  0  0  0  0  0  0  0  0  0  0
    9.6394   12.0067   23.4423 C   0  0  0  0  0  0  0  0  0  0  0  0
   11.3372   13.7697   22.7256 C   0  0  0  0  0  0  0  0  0  0  0  0
    7.3271   11.6912   23.9366 C   0  0  0  0  0  0  0  0  0  0  0  0
   10.9335   12.4416   23.1061 C   0  0  0  0  0  0  0  0  0  0  0  0
    9.8043   10.6591   23.7236 C   0  0  0  0  0  0  0  0  0  0  0  0
    8.8515    9.7859   24.0986 N   0  0  0  0  0  0  0  0  0  0  0  0
   11.8323   11.4551   23.1705 N   0  0  0  0  0  0  0  0  0  0  0  0
    5.8967   13.9258   23.6803 N   0  0  0  0  0  0  0  0  0  0  0  0
    4.8691   11.6382   23.0830 O   0  0  0  0  0  0  0  0  0  0  0  0
    5.3066   12.2000   25.4998 O   0  0  0  0  0  0  0  0  0  0  0  0
   11.1168   10.3304   23.5606 O   0  0  0  0  0  0  0  0  0  0  0  0
    5.6947   12.2806   24.0974 S   0  0  0  0  0  0  0  0  0  0  0  0
   12.4252   17.3460   21.7017 H   0  0  0  0  0  0  0  0  0  0  0  0
   10.7383   16.1276   20.3502 H   0  0  0  0  0  0  0  0  0  0  0  0
   13.4162   16.2748   23.7075 H   0  0  0  0  0  0  0  0  0  0  0  0
   10.0396   13.8512   20.9950 H   0  0  0  0  0  0  0  0  0  0  0  0
   12.7294   13.9989   24.3674 H   0  0  0  0  0  0  0  0  0  0  0  0
    8.1656   13.5995   23.3431 H   0  0  0  0  0  0  0  0  0  0  0  0
    6.8429    9.6676   24.4919 H   0  0  0  0  0  0  0  0  0  0  0  0
    5.5241   14.2437   22.7772 H   0  0  0  0  0  0  0  0  0  0  0  0
    5.8246   14.6257   24.4287 H   0  0  0  0  0  0  0  0  0  0  0  0
  1  2  1  0  0  0  0
  1  3  2  0  0  0  0
  2  4  2  0  0  0  0
  3  5  1  0  0  0  0
  4  9  1  0  0  0  0
  5  9  2  0  0  0  0
  6  8  1  0  0  0  0
  6 10  2  0  0  0  0
  7 10  1  0  0  0  0
  7 13  2  0  0  0  0
  8 11  1  0  0  0  0
  8 12  2  0  0  0  0
  9 11  1  0  0  0  0
 10 19  1  0  0  0  0
 11 14  2  0  0  0  0
 12 13  1  0  0  0  0
 12 18  1  0  0  0  0
 14 18  1  0  0  0  0
 15 19  1  0  0  0  0
 16 19  2  0  0  0  0
 17 19  2  0  0  0  0
  1 20  1  0  0  0  0
  2 21  1  0  0  0  0
  3 22  1  0  0  0  0
  4 23  1  0  0  0  0
  5 24  1  0  0  0  0
  6 25  1  0  0  0  0
  7 26  1  0  0  0  0
 15 27  1  0  0  0  0
 15 28  1  0  0  0  0
M  END
> <Mol Weight>
275,28

> <Formula>
C12H9N3O3S

> <ID>
EN300-173867

> <name>
Sulfonamides

> <LogP>
1,15

> <ROCS_ShapeQuery>
x0446_0A_x1080_0A_x0929_0A_x0812_0A_x0719_0A_x1140_0A_x0528_0A_x0310_0A

> <ROCS_TanimotoCombo>
0.363 

> <ROCS_ShapeTanimoto>
0.231 

> <ROCS_ColorTanimoto>
0.132 

> <ROCS_RefTversky>
0.211 

> <ROCS_RefColorTversky>
0.148 

> <ROCS_RefTverskyCombo>
0.358 

> <ROCS_FitTversky>
1.726 

> <ROCS_FitColorTversky>
0.556 

> <ROCS_FitTverskyCombo>
2.283 

> <ROCS_ColorScore>
-5.277

> <ROCS_Overlap>
2488.756

> <ROCS_Rank>
51                  

$$$$
untitled-dbase-2750_3
  -OEChem-02082415043D

 22 23  0     0  0  0  0  0  0999 V2000
    8.9990   12.3503   23.3663 C   0  0  0  0  0  0  0  0  0  0  0  0
    9.2005   10.9713   23.2195 C   0  0  0  0  0  0  0  0  0  0  0  0
    7.8437   12.4611   24.1061 C   0  0  0  0  0  0  0  0  0  0  0  0
    6.2572   10.9158   25.0970 C   0  0  0  0  0  0  0  0  0  0  0  0
    6.0747   13.2836   25.2449 C   0  0  0  0  0  0  0  0  0  0  0  0
    5.5331   11.9359   25.5718 C   0  0  0  0  0  0  0  0  0  0  0  0
   10.2971   10.2880   22.5104 C   0  0  0  0  0  0  0  0  0  0  0  0
    8.2561   10.2428   23.8138 N   0  0  0  0  0  0  0  0  0  0  0  0
    7.1505   13.5422   24.5632 N   0  0  0  0  0  0  0  0  0  0  0  0
    7.4151   11.1584   24.3622 N   0  0  0  0  0  0  0  0  0  0  0  0
   11.2192   12.7744   21.9536 N   0  0  0  0  0  0  0  0  0  0  0  0
    9.2164   14.3859   21.7593 O   0  0  0  0  0  0  0  0  0  0  0  0
   10.5757   14.3588   23.8804 O   0  0  0  0  0  0  0  0  0  0  0  0
    9.9629   13.6173   22.7673 S   0  0  0  0  0  0  0  0  0  0  0  0
    3.9802   11.7842   26.5587 Br  0  0  0  0  0  0  0  0  0  0  0  0
    5.9897    9.8769   25.2535 H   0  0  0  0  0  0  0  0  0  0  0  0
    5.4921   14.1380   25.6282 H   0  0  0  0  0  0  0  0  0  0  0  0
   11.1475   10.0913   23.1849 H   0  0  0  0  0  0  0  0  0  0  0  0
    9.9782    9.3201   22.0852 H   0  0  0  0  0  0  0  0  0  0  0  0
   10.6764   10.8819   21.6602 H   0  0  0  0  0  0  0  0  0  0  0  0
   11.2283   12.7828   20.9264 H   0  0  0  0  0  0  0  0  0  0  0  0
   12.1551   12.7637   22.3770 H   0  0  0  0  0  0  0  0  0  0  0  0
  1  2  1  0  0  0  0
  1  3  2  0  0  0  0
  1 14  1  0  0  0  0
  2  7  1  0  0  0  0
  2  8  2  0  0  0  0
  3  9  1  0  0  0  0
  3 10  1  0  0  0  0
  4  6  2  0  0  0  0
  4 10  1  0  0  0  0
  5  6  1  0  0  0  0
  5  9  2  0  0  0  0
  6 15  1  0  0  0  0
  8 10  1  0  0  0  0
 11 14  1  0  0  0  0
 12 14  2  0  0  0  0
 13 14  2  0  0  0  0
  4 16  1  0  0  0  0
  5 17  1  0  0  0  0
  7 18  1  0  0  0  0
  7 19  1  0  0  0  0
  7 20  1  0  0  0  0
 11 21  1  0  0  0  0
 11 22  1  0  0  0  0
M  END
> <Mol Weight>
291,12

> <Formula>
C7H7BrN4O2S

> <ID>
EN300-307186

> <name>
Sulfonamides

> <LogP>
0,16

> <ROCS_ShapeQuery>
x0446_0A_x1080_0A_x0929_0A_x0812_0A_x0719_0A_x1140_0A_x0528_0A_x0310_0A

> <ROCS_TanimotoCombo>
0.363 

> <ROCS_ShapeTanimoto>
0.210 

> <ROCS_ColorTanimoto>
0.153 

> <ROCS_RefTversky>
0.192 

> <ROCS_RefColorTversky>
0.168 

> <ROCS_RefTverskyCombo>
0.360 

> <ROCS_FitTversky>
1.820 

> <ROCS_FitColorTversky>
0.632 

> <ROCS_FitTverskyCombo>
2.452 

> <ROCS_ColorScore>
-6.000

> <ROCS_Overlap>
2263.462

> <ROCS_Rank>
52                  

$$$$
untitled-dbase-373_1
  -OEChem-02082415043D

 22 23  0     1  0  0  0  0  0999 V2000
    8.2689   10.0580   23.6359 C   0  0  0  0  0  0  0  0  0  0  0  0
    7.5649   11.0956   24.5128 C   0  0  0  0  0  0  0  0  0  0  0  0
    9.1602   11.8875   22.1544 C   0  0  0  0  0  0  0  0  0  0  0  0
    9.5171   10.8150   23.1844 C   0  0  1  0  0  0  0  0  0  0  0  0
    8.5091   12.2926   24.4106 C   0  0  2  0  0  0  0  0  0  0  0  0
    8.4244   12.9170   23.0160 C   0  0  1  0  0  0  0  0  0  0  0  0
    8.1755   15.3702   24.0014 N   0  0  0  0  0  0  0  0  0  0  0  0
   10.5129   14.3678   23.6164 O   0  0  0  0  0  0  0  0  0  0  0  0
    9.1006   15.0240   21.6263 O   0  0  0  0  0  0  0  0  0  0  0  0
    9.7927   11.6236   24.3501 O   0  0  0  0  0  0  0  0  0  0  0  0
    9.2176   14.4967   22.9738 S   0  0  0  0  0  0  0  0  0  0  0  0
    8.5435    9.1903   24.2461 H   0  0  0  0  0  0  0  0  0  0  0  0
    7.6519    9.7120   22.8015 H   0  0  0  0  0  0  0  0  0  0  0  0
    6.5477   11.3210   24.1794 H   0  0  0  0  0  0  0  0  0  0  0  0
    7.5177   10.7291   25.5445 H   0  0  0  0  0  0  0  0  0  0  0  0
   10.0706   12.3056   21.7109 H   0  0  0  0  0  0  0  0  0  0  0  0
    8.5367   11.4922   21.3465 H   0  0  0  0  0  0  0  0  0  0  0  0
   10.3599   10.1788   22.9054 H   0  0  0  0  0  0  0  0  0  0  0  0
    8.4497   12.9904   25.2492 H   0  0  0  0  0  0  0  0  0  0  0  0
    7.3933   13.0841   22.6897 H   0  0  0  0  0  0  0  0  0  0  0  0
    8.5279   15.6321   24.9303 H   0  0  0  0  0  0  0  0  0  0  0  0
    7.5659   16.0788   23.5749 H   0  0  0  0  0  0  0  0  0  0  0  0
  1  2  1  0  0  0  0
  1  4  1  0  0  0  0
  2  5  1  0  0  0  0
  3  4  1  0  0  0  0
  3  6  1  0  0  0  0
  4 10  1  0  0  0  0
  5  6  1  0  0  0  0
  5 10  1  0  0  0  0
  6 11  1  0  0  0  0
  7 11  1  0  0  0  0
  8 11  2  0  0  0  0
  9 11  2  0  0  0  0
  1 12  1  0  0  0  0
  1 13  1  0  0  0  0
  2 14  1  0  0  0  0
  2 15  1  0  0  0  0
  3 16  1  0  0  0  0
  3 17  1  0  0  0  0
  4 18  1  0  0  0  0
  5 19  1  0  0  0  0
  6 20  1  0  0  0  0
  7 21  1  0  0  0  0
  7 22  1  0  0  0  0
M  END
> <Mol Weight>
177,22

> <Formula>
C6H11NO3S

> <ID>
EN300-245165

> <name>
Sulfonamides

> <LogP>
-0,80

> <ROCS_ShapeQuery>
x0446_0A_x1080_0A_x0929_0A_x0812_0A_x0719_0A_x1140_0A_x0528_0A_x0310_0A

> <ROCS_TanimotoCombo>
0.363 

> <ROCS_ShapeTanimoto>
0.171 

> <ROCS_ColorTanimoto>
0.192 

> <ROCS_RefTversky>
0.159 

> <ROCS_RefColorTversky>
0.214 

> <ROCS_RefTverskyCombo>
0.373 

> <ROCS_FitTversky>
1.760 

> <ROCS_FitColorTversky>
0.655 

> <ROCS_FitTverskyCombo>
2.414 

> <ROCS_ColorScore>
-7.661

> <ROCS_Overlap>
1876.350

> <ROCS_Rank>
53                  

$$$$
untitled-dbase-2607_12
  -OEChem-02082415043D

 30 30  0     0  0  0  0  0  0999 V2000
    7.9156   10.7276   24.4128 C   0  0  0  0  0  0  0  0  0  0  0  0
    8.7727   12.8541   23.6510 C   0  0  0  0  0  0  0  0  0  0  0  0
    8.9208   10.0688   23.7049 C   0  0  0  0  0  0  0  0  0  0  0  0
    9.8520   10.8027   22.9701 C   0  0  0  0  0  0  0  0  0  0  0  0
    9.7780   12.1954   22.9431 C   0  0  0  0  0  0  0  0  0  0  0  0
    7.8415   12.1203   24.3858 C   0  0  0  0  0  0  0  0  0  0  0  0
   10.4593   14.1819   21.6194 C   0  0  0  0  0  0  0  0  0  0  0  0
    8.9782    8.5768   23.7513 C   0  0  0  0  0  0  0  0  0  0  0  0
   10.9289   10.0913   22.2119 C   0  0  0  0  0  0  0  0  0  0  0  0
   11.6847   14.7102   20.9104 C   0  0  0  0  0  0  0  0  0  0  0  0
    7.3482   13.1776   26.7824 N   0  0  0  0  0  0  0  0  0  0  0  0
   10.7006   12.9498   22.2135 N   0  0  0  0  0  0  0  0  0  0  0  0
    9.4120   14.8228   21.6027 O   0  0  0  0  0  0  0  0  0  0  0  0
    6.3607   14.2437   24.6531 O   0  0  0  0  0  0  0  0  0  0  0  0
    5.4664   12.0276   25.4509 O   0  0  0  0  0  0  0  0  0  0  0  0
    6.5833   12.9447   25.2724 S   0  0  0  0  0  0  0  0  0  0  0  0
   12.9731   14.8807   22.1131 Cl  0  0  0  0  0  0  0  0  0  0  0  0
    7.1897   10.1550   24.9856 H   0  0  0  0  0  0  0  0  0  0  0  0
    8.7137   13.9402   23.6309 H   0  0  0  0  0  0  0  0  0  0  0  0
    8.3800    8.1486   22.9389 H   0  0  0  0  0  0  0  0  0  0  0  0
   10.0097    8.2169   23.6536 H   0  0  0  0  0  0  0  0  0  0  0  0
    8.5958    8.1954   24.7061 H   0  0  0  0  0  0  0  0  0  0  0  0
   10.5873    9.8640   21.1967 H   0  0  0  0  0  0  0  0  0  0  0  0
   11.8358   10.7033   22.1498 H   0  0  0  0  0  0  0  0  0  0  0  0
   11.2060    9.1546   22.7086 H   0  0  0  0  0  0  0  0  0  0  0  0
   11.5142   15.6800   20.4361 H   0  0  0  0  0  0  0  0  0  0  0  0
   12.0008   13.9940   20.1468 H   0  0  0  0  0  0  0  0  0  0  0  0
    7.6339   14.1313   27.0359 H   0  0  0  0  0  0  0  0  0  0  0  0
    7.0235   12.6160   27.5789 H   0  0  0  0  0  0  0  0  0  0  0  0
   11.6347   12.5609   22.1077 H   0  0  0  0  0  0  0  0  0  0  0  0
  1  3  1  0  0  0  0
  1  6  2  0  0  0  0
  2  5  2  0  0  0  0
  2  6  1  0  0  0  0
  3  4  2  0  0  0  0
  3  8  1  0  0  0  0
  4  5  1  0  0  0  0
  4  9  1  0  0  0  0
  5 12  1  0  0  0  0
  6 16  1  0  0  0  0
  7 10  1  0  0  0  0
  7 12  1  0  0  0  0
  7 13  2  0  0  0  0
 10 17  1  0  0  0  0
 11 16  1  0  0  0  0
 14 16  2  0  0  0  0
 15 16  2  0  0  0  0
  1 18  1  0  0  0  0
  2 19  1  0  0  0  0
  8 20  1  0  0  0  0
  8 21  1  0  0  0  0
  8 22  1  0  0  0  0
  9 23  1  0  0  0  0
  9 24  1  0  0  0  0
  9 25  1  0  0  0  0
 10 26  1  0  0  0  0
 10 27  1  0  0  0  0
 11 28  1  0  0  0  0
 11 29  1  0  0  0  0
 12 30  1  0  0  0  0
M  END
> <Mol Weight>
276,74

> <Formula>
C10H13ClN2O3S

> <ID>
EN300-12411

> <name>
Sulfonamides

> <LogP>
1,38

> <ROCS_ShapeQuery>
x0446_0A_x1080_0A_x0929_0A_x0812_0A_x0719_0A_x1140_0A_x0528_0A_x0310_0A

> <ROCS_TanimotoCombo>
0.362 

> <ROCS_ShapeTanimoto>
0.223 

> <ROCS_ColorTanimoto>
0.140 

> <ROCS_RefTversky>
0.202 

> <ROCS_RefColorTversky>
0.149 

> <ROCS_RefTverskyCombo>
0.351 

> <ROCS_FitTversky>
1.844 

> <ROCS_FitColorTversky>
0.701 

> <ROCS_FitTverskyCombo>
2.545 

> <ROCS_ColorScore>
-5.302

> <ROCS_Overlap>
2382.701

> <ROCS_Rank>
54                  

$$$$
untitled-dbase-1204_35
  -OEChem-02082415043D

 23 24  0     0  0  0  0  0  0999 V2000
    8.4169   10.5116   22.9544 C   0  0  0  0  0  0  0  0  0  0  0  0
    9.7065   11.0727   24.5680 C   0  0  0  0  0  0  0  0  0  0  0  0
    8.0803   12.3467   24.0036 C   0  0  0  0  0  0  0  0  0  0  0  0
    8.1865   10.8726   24.4332 C   0  0  0  0  0  0  0  0  0  0  0  0
    9.2831   11.7490   23.2519 C   0  0  0  0  0  0  0  0  0  0  0  0
   11.9972   14.2844   21.6801 C   0  0  0  0  0  0  0  0  0  0  0  0
    7.3452   10.2021   25.3371 N   0  0  0  0  0  0  0  0  0  0  0  0
   10.1496   12.4441   22.3176 N   0  0  0  0  0  0  0  0  0  0  0  0
   10.6234   14.4366   23.9027 O   0  0  0  0  0  0  0  0  0  0  0  0
    9.4529   14.8599   21.7101 O   0  0  0  0  0  0  0  0  0  0  0  0
   10.4265   14.1301   22.4993 S   0  0  0  0  0  0  0  0  0  0  0  0
    8.9343    9.5715   22.7382 H   0  0  0  0  0  0  0  0  0  0  0  0
    7.5748   10.6373   22.2670 H   0  0  0  0  0  0  0  0  0  0  0  0
   10.0609   11.7188   25.3771 H   0  0  0  0  0  0  0  0  0  0  0  0
   10.3411   10.1835   24.4982 H   0  0  0  0  0  0  0  0  0  0  0  0
    7.2076   12.6383   23.4111 H   0  0  0  0  0  0  0  0  0  0  0  0
    8.2855   13.1094   24.7611 H   0  0  0  0  0  0  0  0  0  0  0  0
   12.3048   15.3306   21.7194 H   0  0  0  0  0  0  0  0  0  0  0  0
   12.7200   13.6535   22.1996 H   0  0  0  0  0  0  0  0  0  0  0  0
   11.8793   13.9591   20.6454 H   0  0  0  0  0  0  0  0  0  0  0  0
    7.8666    9.8457   26.1268 H   0  0  0  0  0  0  0  0  0  0  0  0
    6.6284   10.8188   25.6952 H   0  0  0  0  0  0  0  0  0  0  0  0
   10.1043   12.1030   21.3387 H   0  0  0  0  0  0  0  0  0  0  0  0
  1  4  1  0  0  0  0
  1  5  1  0  0  0  0
  2  4  1  0  0  0  0
  2  5  1  0  0  0  0
  3  4  1  0  0  0  0
  3  5  1  0  0  0  0
  4  7  1  0  0  0  0
  5  8  1  0  0  0  0
  6 11  1  0  0  0  0
  8 11  1  0  0  0  0
  9 11  2  0  0  0  0
 10 11  2  0  0  0  0
  1 12  1  0  0  0  0
  1 13  1  0  0  0  0
  2 14  1  0  0  0  0
  2 15  1  0  0  0  0
  3 16  1  0  0  0  0
  3 17  1  0  0  0  0
  6 18  1  0  0  0  0
  6 19  1  0  0  0  0
  6 20  1  0  0  0  0
  7 21  1  0  0  0  0
  7 22  1  0  0  0  0
  8 23  1  0  0  0  0
M  END
> <Mol Weight>
212,69

> <Formula>
C6H13ClN2O2S

> <ID>
EN300-39667515

> <name>
Sulfonamides

> <LogP>
-2,49

> <ROCS_ShapeQuery>
x0446_0A_x1080_0A_x0929_0A_x0812_0A_x0719_0A_x1140_0A_x0528_0A_x0310_0A

> <ROCS_TanimotoCombo>
0.362 

> <ROCS_ShapeTanimoto>
0.168 

> <ROCS_ColorTanimoto>
0.193 

> <ROCS_RefTversky>
0.157 

> <ROCS_RefColorTversky>
0.224 

> <ROCS_RefTverskyCombo>
0.381 

> <ROCS_FitTversky>
1.751 

> <ROCS_FitColorTversky>
0.586 

> <ROCS_FitTverskyCombo>
2.337 

> <ROCS_ColorScore>
-8.053

> <ROCS_Overlap>
1849.150

> <ROCS_Rank>
55                  

$$$$
untitled-dbase-2548_563
  -OEChem-02082415043D

 33 34  0     1  0  0  0  0  0999 V2000
    6.9908   13.4731   24.2597 C   0  0  0  0  0  0  0  0  0  0  0  0
    8.8886   10.2050   24.5130 C   0  0  0  0  0  0  0  0  0  0  0  0
    8.3335   11.8031   22.8448 C   0  0  0  0  0  0  0  0  0  0  0  0
    5.6320   12.7904   24.3062 C   0  0  0  0  0  0  0  0  0  0  0  0
    6.5100   10.7688   25.1264 C   0  0  0  0  0  0  0  0  0  0  0  0
    7.9636   11.2642   25.1195 C   0  0  2  0  0  0  0  0  0  0  0  0
    8.1686   12.4861   24.2083 C   0  0  2  0  0  0  0  0  0  0  0  0
   11.2942   16.1043   22.8154 C   0  0  0  0  0  0  0  0  0  0  0  0
    9.4617   13.2463   24.5800 C   0  0  0  0  0  0  0  0  0  0  0  0
    9.1403   10.6084   23.1222 N   0  0  0  0  0  0  0  0  0  0  0  0
    9.4461   14.5348   23.9784 N   0  0  0  0  0  0  0  0  0  0  0  0
    9.1522   15.3281   21.5271 O   0  0  0  0  0  0  0  0  0  0  0  0
   10.9506   13.6373   22.0401 O   0  0  0  0  0  0  0  0  0  0  0  0
    5.5994   11.8372   25.3649 O   0  0  0  0  0  0  0  0  0  0  0  0
   10.1605   14.7925   22.4205 S   0  0  0  0  0  0  0  0  0  0  0  0
    7.0019   14.1242   23.3668 H   0  0  0  0  0  0  0  0  0  0  0  0
    7.0936   14.1589   25.1196 H   0  0  0  0  0  0  0  0  0  0  0  0
    9.8262   10.1453   25.0763 H   0  0  0  0  0  0  0  0  0  0  0  0
    8.4367    9.2075   24.5140 H   0  0  0  0  0  0  0  0  0  0  0  0
    7.3756   11.5317   22.3910 H   0  0  0  0  0  0  0  0  0  0  0  0
    8.8747   12.4480   22.1419 H   0  0  0  0  0  0  0  0  0  0  0  0
    4.8133   13.5081   24.4266 H   0  0  0  0  0  0  0  0  0  0  0  0
    5.4579   12.2513   23.3697 H   0  0  0  0  0  0  0  0  0  0  0  0
    6.2625   10.3235   24.1607 H   0  0  0  0  0  0  0  0  0  0  0  0
    6.3694   10.0003   25.8908 H   0  0  0  0  0  0  0  0  0  0  0  0
    8.2738   11.4635   26.1280 H   0  0  0  0  0  0  0  0  0  0  0  0
   11.8312   16.3806   21.9066 H   0  0  0  0  0  0  0  0  0  0  0  0
   10.7213   16.9522   23.1938 H   0  0  0  0  0  0  0  0  0  0  0  0
   11.9887   15.7422   23.5749 H   0  0  0  0  0  0  0  0  0  0  0  0
    9.4824   13.3248   25.6639 H   0  0  0  0  0  0  0  0  0  0  0  0
   10.2945   12.6550   24.2084 H   0  0  0  0  0  0  0  0  0  0  0  0
   10.1291   10.8020   22.9719 H   0  0  0  0  0  0  0  0  0  0  0  0
    8.5925   15.1224   24.1502 H   0  0  0  0  0  0  0  0  0  0  0  0
  1  4  1  0  0  0  0
  1  7  1  0  0  0  0
  2  6  1  0  0  0  0
  2 10  1  0  0  0  0
  3  7  1  0  0  0  0
  3 10  1  0  0  0  0
  4 14  1  0  0  0  0
  5  6  1  0  0  0  0
  5 14  1  0  0  0  0
  6  7  1  0  0  0  0
  7  9  1  0  0  0  0
  8 15  1  0  0  0  0
  9 11  1  0  0  0  0
 11 15  1  0  0  0  0
 12 15  2  0  0  0  0
 13 15  2  0  0  0  0
  1 16  1  0  0  0  0
  1 17  1  0  0  0  0
  2 18  1  0  0  0  0
  2 19  1  0  0  0  0
  3 20  1  0  0  0  0
  3 21  1  0  0  0  0
  4 22  1  0  0  0  0
  4 23  1  0  0  0  0
  5 24  1  0  0  0  0
  5 25  1  0  0  0  0
  6 26  1  0  0  0  0
  8 27  1  0  0  0  0
  8 28  1  0  0  0  0
  8 29  1  0  0  0  0
  9 30  1  0  0  0  0
  9 31  1  0  0  0  0
 10 32  1  0  0  0  0
 11 33  1  0  0  0  0
M  END
> <Mol Weight>
270,77

> <Formula>
C9H19ClN2O3S

> <ID>
EN300-343887

> <name>
Sulfonamides

> <LogP>
-2,76

> <ROCS_ShapeQuery>
x0446_0A_x1080_0A_x0929_0A_x0812_0A_x0719_0A_x1140_0A_x0528_0A_x0310_0A

> <ROCS_TanimotoCombo>
0.362 

> <ROCS_ShapeTanimoto>
0.197 

> <ROCS_ColorTanimoto>
0.165 

> <ROCS_RefTversky>
0.182 

> <ROCS_RefColorTversky>
0.179 

> <ROCS_RefTverskyCombo>
0.360 

> <ROCS_FitTversky>
1.760 

> <ROCS_FitColorTversky>
0.673 

> <ROCS_FitTverskyCombo>
2.433 

> <ROCS_ColorScore>
-6.392

> <ROCS_Overlap>
2140.762

> <ROCS_Rank>
56                  

$$$$
untitled-dbase-1419_6
  -OEChem-02082415043D

 26 26  0     1  0  0  0  0  0999 V2000
    7.5400   10.5984   24.2050 C   0  0  0  0  0  0  0  0  0  0  0  0
    7.3825   11.9686   24.4128 C   0  0  0  0  0  0  0  0  0  0  0  0
    8.7713   10.0933   23.7871 C   0  0  0  0  0  0  0  0  0  0  0  0
    9.6875   12.3288   23.7847 C   0  0  0  0  0  0  0  0  0  0  0  0
    8.4562   12.8339   24.2026 C   0  0  0  0  0  0  0  0  0  0  0  0
    9.8450   10.9585   23.5770 C   0  0  0  0  0  0  0  0  0  0  0  0
    7.9627   14.6156   25.9002 C   0  0  0  0  0  0  0  0  0  0  0  0
    7.2150   14.9477   23.5207 C   0  0  0  0  0  0  0  0  0  0  0  0
    8.2833   14.3265   24.4294 C   0  0  2  0  0  0  0  0  0  0  0  0
    6.2580   15.5784   21.1254 N   0  0  0  0  0  0  0  0  0  0  0  0
    8.7944   15.6232   21.5518 O   0  0  0  0  0  0  0  0  0  0  0  0
    7.5923   13.4029   21.4473 O   0  0  0  0  0  0  0  0  0  0  0  0
   11.0272   10.4738   23.1753 F   0  0  0  0  0  0  0  0  0  0  0  0
    7.6188   14.8096   21.8055 S   0  0  0  0  0  0  0  0  0  0  0  0
    6.7041    9.9245   24.3691 H   0  0  0  0  0  0  0  0  0  0  0  0
    6.4193   12.3531   24.7382 H   0  0  0  0  0  0  0  0  0  0  0  0
    8.8935    9.0267   23.6250 H   0  0  0  0  0  0  0  0  0  0  0  0
   10.5299   12.9949   23.6190 H   0  0  0  0  0  0  0  0  0  0  0  0
    7.0184   14.1554   26.2111 H   0  0  0  0  0  0  0  0  0  0  0  0
    7.8786   15.6944   26.0714 H   0  0  0  0  0  0  0  0  0  0  0  0
    8.7528   14.2342   26.5566 H   0  0  0  0  0  0  0  0  0  0  0  0
    7.1223   16.0217   23.7158 H   0  0  0  0  0  0  0  0  0  0  0  0
    6.2287   14.4929   23.6538 H   0  0  0  0  0  0  0  0  0  0  0  0
    9.2385   14.8230   24.2102 H   0  0  0  0  0  0  0  0  0  0  0  0
    6.3935   16.5044   20.7013 H   0  0  0  0  0  0  0  0  0  0  0  0
    5.5748   14.9922   20.6303 H   0  0  0  0  0  0  0  0  0  0  0  0
  1  2  2  0  0  0  0
  1  3  1  0  0  0  0
  2  5  1  0  0  0  0
  3  6  2  0  0  0  0
  4  5  2  0  0  0  0
  4  6  1  0  0  0  0
  5  9  1  0  0  0  0
  6 13  1  0  0  0  0
  7  9  1  0  0  0  0
  8  9  1  0  0  0  0
  8 14  1  0  0  0  0
 10 14  1  0  0  0  0
 11 14  2  0  0  0  0
 12 14  2  0  0  0  0
  1 15  1  0  0  0  0
  2 16  1  0  0  0  0
  3 17  1  0  0  0  0
  4 18  1  0  0  0  0
  7 19  1  0  0  0  0
  7 20  1  0  0  0  0
  7 21  1  0  0  0  0
  8 22  1  0  0  0  0
  8 23  1  0  0  0  0
  9 24  1  0  0  0  0
 10 25  1  0  0  0  0
 10 26  1  0  0  0  0
M  END
> <Mol Weight>
217,26

> <Formula>
C9H12FNO2S

> <ID>
EN300-7541714

> <name>
Sulfonamides

> <LogP>
1,14

> <ROCS_ShapeQuery>
x0446_0A_x1080_0A_x0929_0A_x0812_0A_x0719_0A_x1140_0A_x0528_0A_x0310_0A

> <ROCS_TanimotoCombo>
0.361 

> <ROCS_ShapeTanimoto>
0.191 

> <ROCS_ColorTanimoto>
0.171 

> <ROCS_RefTversky>
0.176 

> <ROCS_RefColorTversky>
0.173 

> <ROCS_RefTverskyCombo>
0.349 

> <ROCS_FitTversky>
1.780 

> <ROCS_FitColorTversky>
0.930 

> <ROCS_FitTverskyCombo>
2.710 

> <ROCS_ColorScore>
-6.149

> <ROCS_Overlap>
2076.657

> <ROCS_Rank>
57                  

$$$$
untitled-dbase-1169_43
  -OEChem-02082415043D

 23 24  0     0  0  0  0  0  0999 V2000
    6.3846   13.0133   24.5260 C   0  0  0  0  0  0  0  0  0  0  0  0
    6.2867   11.7404   25.0911 C   0  0  0  0  0  0  0  0  0  0  0  0
    7.3269   13.2873   23.5267 C   0  0  0  0  0  0  0  0  0  0  0  0
    7.1243   10.6987   24.6791 C   0  0  0  0  0  0  0  0  0  0  0  0
    8.1753   12.2511   23.1021 C   0  0  0  0  0  0  0  0  0  0  0  0
    8.0564   10.9928   23.6816 C   0  0  0  0  0  0  0  0  0  0  0  0
    9.2182   12.1063   22.1621 C   0  0  0  0  0  0  0  0  0  0  0  0
   11.7160   14.9057   21.3528 C   0  0  0  0  0  0  0  0  0  0  0  0
    9.7251   10.8716   22.1364 N   0  0  0  0  0  0  0  0  0  0  0  0
    9.0038   10.2211   23.0646 N   0  0  0  0  0  0  0  0  0  0  0  0
    9.6927   13.1321   21.3297 N   0  0  0  0  0  0  0  0  0  0  0  0
    9.2372   15.6888   21.4538 O   0  0  0  0  0  0  0  0  0  0  0  0
   10.2217   14.5448   23.4705 O   0  0  0  0  0  0  0  0  0  0  0  0
   10.0894   14.6666   22.0323 S   0  0  0  0  0  0  0  0  0  0  0  0
    5.7205   13.8038   24.8660 H   0  0  0  0  0  0  0  0  0  0  0  0
    5.5466   11.5546   25.8654 H   0  0  0  0  0  0  0  0  0  0  0  0
    7.3922   14.2820   23.0962 H   0  0  0  0  0  0  0  0  0  0  0  0
    7.0496    9.7095   25.1167 H   0  0  0  0  0  0  0  0  0  0  0  0
   12.1047   15.8579   21.7169 H   0  0  0  0  0  0  0  0  0  0  0  0
   12.3512   14.0821   21.6823 H   0  0  0  0  0  0  0  0  0  0  0  0
   11.6364   14.9159   20.2648 H   0  0  0  0  0  0  0  0  0  0  0  0
    9.2091    9.2438   23.2309 H   0  0  0  0  0  0  0  0  0  0  0  0
    9.2164   13.2153   20.4049 H   0  0  0  0  0  0  0  0  0  0  0  0
  1  2  1  0  0  0  0
  1  3  2  0  0  0  0
  2  4  2  0  0  0  0
  3  5  1  0  0  0  0
  4  6  1  0  0  0  0
  5  6  2  0  0  0  0
  5  7  1  0  0  0  0
  6 10  1  0  0  0  0
  7  9  2  0  0  0  0
  7 11  1  0  0  0  0
  8 14  1  0  0  0  0
  9 10  1  0  0  0  0
 11 14  1  0  0  0  0
 12 14  2  0  0  0  0
 13 14  2  0  0  0  0
  1 15  1  0  0  0  0
  2 16  1  0  0  0  0
  3 17  1  0  0  0  0
  4 18  1  0  0  0  0
  8 19  1  0  0  0  0
  8 20  1  0  0  0  0
  8 21  1  0  0  0  0
 10 22  1  0  0  0  0
 11 23  1  0  0  0  0
M  END
> <Mol Weight>
211,24

> <Formula>
C8H9N3O2S

> <ID>
EN300-5102925

> <name>
Sulfonamides

> <LogP>
0,26

> <ROCS_ShapeQuery>
x0446_0A_x1080_0A_x0929_0A_x0812_0A_x0719_0A_x1140_0A_x0528_0A_x0310_0A

> <ROCS_TanimotoCombo>
0.361 

> <ROCS_ShapeTanimoto>
0.189 

> <ROCS_ColorTanimoto>
0.172 

> <ROCS_RefTversky>
0.175 

> <ROCS_RefColorTversky>
0.182 

> <ROCS_RefTverskyCombo>
0.357 

> <ROCS_FitTversky>
1.714 

> <ROCS_FitColorTversky>
0.760 

> <ROCS_FitTverskyCombo>
2.474 

> <ROCS_ColorScore>
-6.480

> <ROCS_Overlap>
2068.819

> <ROCS_Rank>
58                  

$$$$
untitled-dbase-1598_61
  -OEChem-02082415043D

 30 31  0     1  0  0  0  0  0999 V2000
    5.5381   12.1613   25.3981 C   0  0  0  0  0  0  0  0  0  0  0  0
    6.2028   13.3786   25.1851 C   0  0  0  0  0  0  0  0  0  0  0  0
    6.1465   10.9510   25.0614 C   0  0  0  0  0  0  0  0  0  0  0  0
    7.4855   13.4034   24.6320 C   0  0  0  0  0  0  0  0  0  0  0  0
    7.4132   10.9857   24.5018 C   0  0  0  0  0  0  0  0  0  0  0  0
    8.0802   12.1999   24.2867 C   0  0  0  0  0  0  0  0  0  0  0  0
    8.2662    9.8249   24.0967 C   0  0  0  0  0  0  0  0  0  0  0  0
    9.2868   10.5164   23.1817 C   0  0  0  0  0  0  0  0  0  0  0  0
    9.4517   11.9530   23.7209 C   0  0  1  0  0  0  0  0  0  0  0  0
    9.8903   12.9268   22.6380 C   0  0  0  0  0  0  0  0  0  0  0  0
   10.4267   14.2162   23.2359 C   0  0  0  0  0  0  0  0  0  0  0  0
   11.6396   14.2745   20.8744 N   0  0  0  0  0  0  0  0  0  0  0  0
    9.7114   15.9026   21.3726 O   0  0  0  0  0  0  0  0  0  0  0  0
   11.9375   16.2258   22.5239 O   0  0  0  0  0  0  0  0  0  0  0  0
   10.9129   15.3531   21.9769 S   0  0  0  0  0  0  0  0  0  0  0  0
    4.5434   12.1623   25.8354 H   0  0  0  0  0  0  0  0  0  0  0  0
    5.7164   14.3105   25.4605 H   0  0  0  0  0  0  0  0  0  0  0  0
    5.6362   10.0101   25.2368 H   0  0  0  0  0  0  0  0  0  0  0  0
    7.9972   14.3485   24.4862 H   0  0  0  0  0  0  0  0  0  0  0  0
    8.7520    9.3885   24.9754 H   0  0  0  0  0  0  0  0  0  0  0  0
    7.7033    9.0577   23.5578 H   0  0  0  0  0  0  0  0  0  0  0  0
   10.2385    9.9760   23.1456 H   0  0  0  0  0  0  0  0  0  0  0  0
    8.8891   10.5383   22.1570 H   0  0  0  0  0  0  0  0  0  0  0  0
   10.1762   11.9579   24.5450 H   0  0  0  0  0  0  0  0  0  0  0  0
    9.0408   13.1435   21.9805 H   0  0  0  0  0  0  0  0  0  0  0  0
   10.6589   12.4542   22.0158 H   0  0  0  0  0  0  0  0  0  0  0  0
    9.6687   14.7197   23.8433 H   0  0  0  0  0  0  0  0  0  0  0  0
   11.3093   14.0316   23.8555 H   0  0  0  0  0  0  0  0  0  0  0  0
   11.1458   14.0867   19.9932 H   0  0  0  0  0  0  0  0  0  0  0  0
   12.6619   14.3067   20.7774 H   0  0  0  0  0  0  0  0  0  0  0  0
  1  2  1  0  0  0  0
  1  3  2  0  0  0  0
  2  4  2  0  0  0  0
  3  5  1  0  0  0  0
  4  6  1  0  0  0  0
  5  6  2  0  0  0  0
  5  7  1  0  0  0  0
  6  9  1  0  0  0  0
  7  8  1  0  0  0  0
  8  9  1  0  0  0  0
  9 10  1  0  0  0  0
 10 11  1  0  0  0  0
 11 15  1  0  0  0  0
 12 15  1  0  0  0  0
 13 15  2  0  0  0  0
 14 15  2  0  0  0  0
  1 16  1  0  0  0  0
  2 17  1  0  0  0  0
  3 18  1  0  0  0  0
  4 19  1  0  0  0  0
  7 20  1  0  0  0  0
  7 21  1  0  0  0  0
  8 22  1  0  0  0  0
  8 23  1  0  0  0  0
  9 24  1  0  0  0  0
 10 25  1  0  0  0  0
 10 26  1  0  0  0  0
 11 27  1  0  0  0  0
 11 28  1  0  0  0  0
 12 29  1  0  0  0  0
 12 30  1  0  0  0  0
M  END
> <Mol Weight>
225,31

> <Formula>
C11H15NO2S

> <ID>
EN300-233478

> <name>
Sulfonamides

> <LogP>
1,41

> <ROCS_ShapeQuery>
x0446_0A_x1080_0A_x0929_0A_x0812_0A_x0719_0A_x1140_0A_x0528_0A_x0310_0A

> <ROCS_TanimotoCombo>
0.361 

> <ROCS_ShapeTanimoto>
0.207 

> <ROCS_ColorTanimoto>
0.154 

> <ROCS_RefTversky>
0.189 

> <ROCS_RefColorTversky>
0.158 

> <ROCS_RefTverskyCombo>
0.347 

> <ROCS_FitTversky>
1.827 

> <ROCS_FitColorTversky>
0.850 

> <ROCS_FitTverskyCombo>
2.678 

> <ROCS_ColorScore>
-5.635

> <ROCS_Overlap>
2230.371

> <ROCS_Rank>
59                  

$$$$
untitled-dbase-2249_43
  -OEChem-02082415043D

 30 31  0     0  0  0  0  0  0999 V2000
    6.0579   12.3824   25.4361 C   0  0  0  0  0  0  0  0  0  0  0  0
    6.5163   13.6484   25.0839 C   0  0  0  0  0  0  0  0  0  0  0  0
    6.6794   11.2455   24.9190 C   0  0  0  0  0  0  0  0  0  0  0  0
    7.5982   13.7822   24.2132 C   0  0  0  0  0  0  0  0  0  0  0  0
    9.4890   10.3618   22.6404 C   0  0  0  0  0  0  0  0  0  0  0  0
    9.9475   11.6278   22.2881 C   0  0  0  0  0  0  0  0  0  0  0  0
    7.7696   11.3614   24.0412 C   0  0  0  0  0  0  0  0  0  0  0  0
    8.2358   12.6488   23.6830 C   0  0  0  0  0  0  0  0  0  0  0  0
    8.4073   10.2280   23.5112 C   0  0  0  0  0  0  0  0  0  0  0  0
    9.3260   12.7647   22.8053 C   0  0  0  0  0  0  0  0  0  0  0  0
   10.0626    8.3033   24.8312 C   0  0  0  0  0  0  0  0  0  0  0  0
    8.9859    7.9434   23.8298 C   0  0  0  0  0  0  0  0  0  0  0  0
   11.2423   13.8037   21.2713 N   0  0  0  0  0  0  0  0  0  0  0  0
    8.9661   14.9909   21.5061 O   0  0  0  0  0  0  0  0  0  0  0  0
   10.5517   14.9666   23.4639 O   0  0  0  0  0  0  0  0  0  0  0  0
    7.9935    8.9656   23.8279 O   0  0  0  0  0  0  0  0  0  0  0  0
    9.9793   14.3157   22.2983 S   0  0  0  0  0  0  0  0  0  0  0  0
    5.2152   12.2791   26.1137 H   0  0  0  0  0  0  0  0  0  0  0  0
    6.0317   14.5328   25.4873 H   0  0  0  0  0  0  0  0  0  0  0  0
    6.2959   10.2716   25.2142 H   0  0  0  0  0  0  0  0  0  0  0  0
    7.9206   14.7907   23.9678 H   0  0  0  0  0  0  0  0  0  0  0  0
    9.9784    9.4810   22.2333 H   0  0  0  0  0  0  0  0  0  0  0  0
   10.7910   11.7154   21.6079 H   0  0  0  0  0  0  0  0  0  0  0  0
   10.5391    9.2517   24.5679 H   0  0  0  0  0  0  0  0  0  0  0  0
    9.6408    8.3871   25.8381 H   0  0  0  0  0  0  0  0  0  0  0  0
   10.8290    7.5221   24.8712 H   0  0  0  0  0  0  0  0  0  0  0  0
    8.5134    6.9940   24.0989 H   0  0  0  0  0  0  0  0  0  0  0  0
    9.4089    7.8609   22.8241 H   0  0  0  0  0  0  0  0  0  0  0  0
   12.0690   13.3743   21.7045 H   0  0  0  0  0  0  0  0  0  0  0  0
   10.9874   13.3921   20.3653 H   0  0  0  0  0  0  0  0  0  0  0  0
  1  2  1  0  0  0  0
  1  3  2  0  0  0  0
  2  4  2  0  0  0  0
  3  7  1  0  0  0  0
  4  8  1  0  0  0  0
  5  6  2  0  0  0  0
  5  9  1  0  0  0  0
  6 10  1  0  0  0  0
  7  8  1  0  0  0  0
  7  9  2  0  0  0  0
  8 10  2  0  0  0  0
  9 16  1  0  0  0  0
 10 17  1  0  0  0  0
 11 12  1  0  0  0  0
 12 16  1  0  0  0  0
 13 17  1  0  0  0  0
 14 17  2  0  0  0  0
 15 17  2  0  0  0  0
  1 18  1  0  0  0  0
  2 19  1  0  0  0  0
  3 20  1  0  0  0  0
  4 21  1  0  0  0  0
  5 22  1  0  0  0  0
  6 23  1  0  0  0  0
 11 24  1  0  0  0  0
 11 25  1  0  0  0  0
 11 26  1  0  0  0  0
 12 27  1  0  0  0  0
 12 28  1  0  0  0  0
 13 29  1  0  0  0  0
 13 30  1  0  0  0  0
M  END
> <Mol Weight>
251,30

> <Formula>
C12H13NO3S

> <ID>
EN300-91843

> <name>
Sulfonamides

> <LogP>
1,77

> <ROCS_ShapeQuery>
x0446_0A_x1080_0A_x0929_0A_x0812_0A_x0719_0A_x1140_0A_x0528_0A_x0310_0A

> <ROCS_TanimotoCombo>
0.361 

> <ROCS_ShapeTanimoto>
0.214 

> <ROCS_ColorTanimoto>
0.146 

> <ROCS_RefTversky>
0.196 

> <ROCS_RefColorTversky>
0.155 

> <ROCS_RefTverskyCombo>
0.351 

> <ROCS_FitTversky>
1.750 

> <ROCS_FitColorTversky>
0.729 

> <ROCS_FitTverskyCombo>
2.479 

> <ROCS_ColorScore>
-5.516

> <ROCS_Overlap>
2316.988

> <ROCS_Rank>
60                  

$$$$
untitled-dbase-1172_3
  -OEChem-02082415043D

 23 24  0     0  0  0  0  0  0999 V2000
    6.0260   13.0915   25.5324 C   0  0  0  0  0  0  0  0  0  0  0  0
    5.6090   11.7697   25.7089 C   0  0  0  0  0  0  0  0  0  0  0  0
    7.1758   13.3938   24.7900 C   0  0  0  0  0  0  0  0  0  0  0  0
    6.3223   10.7038   25.1525 C   0  0  0  0  0  0  0  0  0  0  0  0
    7.9084   12.3374   24.2212 C   0  0  0  0  0  0  0  0  0  0  0  0
    7.4606   11.0354   24.4199 C   0  0  0  0  0  0  0  0  0  0  0  0
    9.0825   12.2252   23.4307 C   0  0  0  0  0  0  0  0  0  0  0  0
    9.2697   10.8814   23.2029 C   0  0  0  0  0  0  0  0  0  0  0  0
   10.2863   10.1140   22.4675 C   0  0  0  0  0  0  0  0  0  0  0  0
   11.2864   12.6622   21.9966 N   0  0  0  0  0  0  0  0  0  0  0  0
    9.3211   14.3286   21.9168 O   0  0  0  0  0  0  0  0  0  0  0  0
   10.7178   14.1687   24.0076 O   0  0  0  0  0  0  0  0  0  0  0  0
    8.2912   10.1512   23.7989 O   0  0  0  0  0  0  0  0  0  0  0  0
   10.0683   13.4978   22.8721 S   0  0  0  0  0  0  0  0  0  0  0  0
    5.4500   13.8989   25.9772 H   0  0  0  0  0  0  0  0  0  0  0  0
    4.7128   11.5655   26.2898 H   0  0  0  0  0  0  0  0  0  0  0  0
    7.4853   14.4267   24.6629 H   0  0  0  0  0  0  0  0  0  0  0  0
    6.0055    9.6759   25.2847 H   0  0  0  0  0  0  0  0  0  0  0  0
   11.1330    9.8384   23.1205 H   0  0  0  0  0  0  0  0  0  0  0  0
    9.8788    9.1788   22.0420 H   0  0  0  0  0  0  0  0  0  0  0  0
   10.6991   10.6784   21.6112 H   0  0  0  0  0  0  0  0  0  0  0  0
   11.2770   12.7189   20.9709 H   0  0  0  0  0  0  0  0  0  0  0  0
   12.2293   12.6090   22.4008 H   0  0  0  0  0  0  0  0  0  0  0  0
  1  2  1  0  0  0  0
  1  3  2  0  0  0  0
  2  4  2  0  0  0  0
  3  5  1  0  0  0  0
  4  6  1  0  0  0  0
  5  6  2  0  0  0  0
  5  7  1  0  0  0  0
  6 13  1  0  0  0  0
  7  8  2  0  0  0  0
  7 14  1  0  0  0  0
  8  9  1  0  0  0  0
  8 13  1  0  0  0  0
 10 14  1  0  0  0  0
 11 14  2  0  0  0  0
 12 14  2  0  0  0  0
  1 15  1  0  0  0  0
  2 16  1  0  0  0  0
  3 17  1  0  0  0  0
  4 18  1  0  0  0  0
  9 19  1  0  0  0  0
  9 20  1  0  0  0  0
  9 21  1  0  0  0  0
 10 22  1  0  0  0  0
 10 23  1  0  0  0  0
M  END
> <Mol Weight>
211,24

> <Formula>
C9H9NO3S

> <ID>
EN300-43350856

> <name>
Sulfonamides

> <LogP>
0,94

> <ROCS_ShapeQuery>
x0446_0A_x1080_0A_x0929_0A_x0812_0A_x0719_0A_x1140_0A_x0528_0A_x0310_0A

> <ROCS_TanimotoCombo>
0.360 

> <ROCS_ShapeTanimoto>
0.209 

> <ROCS_ColorTanimoto>
0.151 

> <ROCS_RefTversky>
0.190 

> <ROCS_RefColorTversky>
0.159 

> <ROCS_RefTverskyCombo>
0.350 

> <ROCS_FitTversky>
1.863 

> <ROCS_FitColorTversky>
0.749 

> <ROCS_FitTverskyCombo>
2.612 

> <ROCS_ColorScore>
-5.678

> <ROCS_Overlap>
2246.507

> <ROCS_Rank>
61                  

$$$$
untitled-dbase-1785_0
  -OEChem-02082415043D

 20 21  0     0  0  0  0  0  0999 V2000
    7.4602   13.2380   24.2447 C   0  0  0  0  0  0  0  0  0  0  0  0
    6.4373   12.6218   24.9766 C   0  0  0  0  0  0  0  0  0  0  0  0
    6.9809   10.4463   24.0281 C   0  0  0  0  0  0  0  0  0  0  0  0
    8.2497   12.4443   23.3959 C   0  0  0  0  0  0  0  0  0  0  0  0
    7.9952   11.0803   23.3072 C   0  0  0  0  0  0  0  0  0  0  0  0
    6.2034   11.2496   24.8687 C   0  0  0  0  0  0  0  0  0  0  0  0
    9.3359   12.6553   22.5195 C   0  0  0  0  0  0  0  0  0  0  0  0
    9.7444   11.5341   21.9212 N   0  0  0  0  0  0  0  0  0  0  0  0
    8.9163   10.5992   22.4162 N   0  0  0  0  0  0  0  0  0  0  0  0
   11.3120   13.7103   21.0750 N   0  0  0  0  0  0  0  0  0  0  0  0
    9.1595   15.0549   21.5275 O   0  0  0  0  0  0  0  0  0  0  0  0
   10.7710   14.6345   23.4181 O   0  0  0  0  0  0  0  0  0  0  0  0
   10.0991   14.1532   22.2049 S   0  0  0  0  0  0  0  0  0  0  0  0
    4.9344   10.5298   25.7872 Cl  0  0  0  0  0  0  0  0  0  0  0  0
    7.6305   14.3062   24.3381 H   0  0  0  0  0  0  0  0  0  0  0  0
    5.8241   13.2345   25.6339 H   0  0  0  0  0  0  0  0  0  0  0  0
    6.8110    9.3786   23.9343 H   0  0  0  0  0  0  0  0  0  0  0  0
    9.0333    9.6436   22.1034 H   0  0  0  0  0  0  0  0  0  0  0  0
   12.1222   13.1770   21.4133 H   0  0  0  0  0  0  0  0  0  0  0  0
   11.0230   13.4653   20.1202 H   0  0  0  0  0  0  0  0  0  0  0  0
  1  2  2  0  0  0  0
  1  4  1  0  0  0  0
  2  6  1  0  0  0  0
  3  5  1  0  0  0  0
  3  6  2  0  0  0  0
  4  5  2  0  0  0  0
  4  7  1  0  0  0  0
  5  9  1  0  0  0  0
  6 14  1  0  0  0  0
  7  8  2  0  0  0  0
  7 13  1  0  0  0  0
  8  9  1  0  0  0  0
 10 13  1  0  0  0  0
 11 13  2  0  0  0  0
 12 13  2  0  0  0  0
  1 15  1  0  0  0  0
  2 16  1  0  0  0  0
  3 17  1  0  0  0  0
  9 18  1  0  0  0  0
 10 19  1  0  0  0  0
 10 20  1  0  0  0  0
M  END
> <Mol Weight>
231,65

> <Formula>
C7H6ClN3O2S

> <ID>
EN300-1618555

> <name>
Sulfonamides

> <LogP>
1,10

> <ROCS_ShapeQuery>
x0446_0A_x1080_0A_x0929_0A_x0812_0A_x0719_0A_x1140_0A_x0528_0A_x0310_0A

> <ROCS_TanimotoCombo>
0.360 

> <ROCS_ShapeTanimoto>
0.178 

> <ROCS_ColorTanimoto>
0.182 

> <ROCS_RefTversky>
0.166 

> <ROCS_RefColorTversky>
0.191 

> <ROCS_RefTverskyCombo>
0.357 

> <ROCS_FitTversky>
1.634 

> <ROCS_FitColorTversky>
0.798 

> <ROCS_FitTverskyCombo>
2.432 

> <ROCS_ColorScore>
-6.808

> <ROCS_Overlap>
1961.695

> <ROCS_Rank>
62                  

$$$$
untitled-dbase-2569_4
  -OEChem-02082415043D

 26 27  0     0  0  0  0  0  0999 V2000
    9.8692   11.7877   22.9680 C   0  0  0  0  0  0  0  0  0  0  0  0
    6.6063   11.2693   24.5765 C   0  0  0  0  0  0  0  0  0  0  0  0
    6.1343   12.5790   24.6943 C   0  0  0  0  0  0  0  0  0  0  0  0
   10.3094   10.4759   22.8655 C   0  0  0  0  0  0  0  0  0  0  0  0
    8.6226   12.0700   23.5427 C   0  0  0  0  0  0  0  0  0  0  0  0
    7.8445   10.9883   24.0056 C   0  0  0  0  0  0  0  0  0  0  0  0
    6.9060   13.6396   24.2361 C   0  0  0  0  0  0  0  0  0  0  0  0
    8.1482   13.3874   23.6611 C   0  0  0  0  0  0  0  0  0  0  0  0
    9.4783    9.4845   23.3463 C   0  0  0  0  0  0  0  0  0  0  0  0
    5.1382   15.0534   24.9655 C   0  0  0  0  0  0  0  0  0  0  0  0
    8.2691    9.7143   23.9074 N   0  0  0  0  0  0  0  0  0  0  0  0
    8.0245   16.0451   23.4994 N   0  0  0  0  0  0  0  0  0  0  0  0
   10.2769   14.8627   23.9170 O   0  0  0  0  0  0  0  0  0  0  0  0
    9.1888   14.6780   21.6521 O   0  0  0  0  0  0  0  0  0  0  0  0
    6.4220   14.9067   24.3616 O   0  0  0  0  0  0  0  0  0  0  0  0
    9.0830   14.7694   23.0969 S   0  0  0  0  0  0  0  0  0  0  0  0
    9.9302    7.8311   23.2670 Cl  0  0  0  0  0  0  0  0  0  0  0  0
   10.5234   12.5683   22.5903 H   0  0  0  0  0  0  0  0  0  0  0  0
    5.9821   10.4557   24.9417 H   0  0  0  0  0  0  0  0  0  0  0  0
    5.1631   12.7586   25.1474 H   0  0  0  0  0  0  0  0  0  0  0  0
   11.2739   10.2520   22.4230 H   0  0  0  0  0  0  0  0  0  0  0  0
    4.8717   16.1124   25.0041 H   0  0  0  0  0  0  0  0  0  0  0  0
    5.1594   14.6350   25.9750 H   0  0  0  0  0  0  0  0  0  0  0  0
    4.3998   14.5158   24.3659 H   0  0  0  0  0  0  0  0  0  0  0  0
    7.1649   16.1474   22.9462 H   0  0  0  0  0  0  0  0  0  0  0  0
    7.9084   16.2762   24.4936 H   0  0  0  0  0  0  0  0  0  0  0  0
  1  4  2  0  0  0  0
  1  5  1  0  0  0  0
  2  3  2  0  0  0  0
  2  6  1  0  0  0  0
  3  7  1  0  0  0  0
  4  9  1  0  0  0  0
  5  6  2  0  0  0  0
  5  8  1  0  0  0  0
  6 11  1  0  0  0  0
  7  8  2  0  0  0  0
  7 15  1  0  0  0  0
  8 16  1  0  0  0  0
  9 11  2  0  0  0  0
  9 17  1  0  0  0  0
 10 15  1  0  0  0  0
 12 16  1  0  0  0  0
 13 16  2  0  0  0  0
 14 16  2  0  0  0  0
  1 18  1  0  0  0  0
  2 19  1  0  0  0  0
  3 20  1  0  0  0  0
  4 21  1  0  0  0  0
 10 22  1  0  0  0  0
 10 23  1  0  0  0  0
 10 24  1  0  0  0  0
 12 25  1  0  0  0  0
 12 26  1  0  0  0  0
M  END
> <Mol Weight>
272,70

> <Formula>
C10H9ClN2O3S

> <ID>
EN300-371973

> <name>
Sulfonamides

> <LogP>
1,40

> <ROCS_ShapeQuery>
x0446_0A_x1080_0A_x0929_0A_x0812_0A_x0719_0A_x1140_0A_x0528_0A_x0310_0A

> <ROCS_TanimotoCombo>
0.360 

> <ROCS_ShapeTanimoto>
0.214 

> <ROCS_ColorTanimoto>
0.146 

> <ROCS_RefTversky>
0.196 

> <ROCS_RefColorTversky>
0.158 

> <ROCS_RefTverskyCombo>
0.354 

> <ROCS_FitTversky>
1.736 

> <ROCS_FitColorTversky>
0.660 

> <ROCS_FitTverskyCombo>
2.397 

> <ROCS_ColorScore>
-5.629

> <ROCS_Overlap>
2312.191

> <ROCS_Rank>
63                  

$$$$
untitled-dbase-2698_46
  -OEChem-02082415043D

 25 25  0     0  0  0  0  0  0999 V2000
    9.0578    9.7944   24.3528 C   0  0  0  0  0  0  0  0  0  0  0  0
    8.0347   10.5896   24.8691 C   0  0  0  0  0  0  0  0  0  0  0  0
    9.8862   11.6802   23.0900 C   0  0  0  0  0  0  0  0  0  0  0  0
    9.9836   10.3397   23.4632 C   0  0  0  0  0  0  0  0  0  0  0  0
    8.8631   12.4754   23.6062 C   0  0  0  0  0  0  0  0  0  0  0  0
    7.9373   11.9301   24.4958 C   0  0  0  0  0  0  0  0  0  0  0  0
   11.8944   10.1852   22.0558 C   0  0  0  0  0  0  0  0  0  0  0  0
    7.3937   13.5164   26.5677 N   0  0  0  0  0  0  0  0  0  0  0  0
    6.3930   14.0096   24.2437 O   0  0  0  0  0  0  0  0  0  0  0  0
    5.5573   12.0238   25.5497 O   0  0  0  0  0  0  0  0  0  0  0  0
    7.2006   14.1364   21.3029 O   0  0  0  0  0  0  0  0  0  0  0  0
    9.3535   15.4710   21.4444 O   0  0  0  0  0  0  0  0  0  0  0  0
   10.9824    9.5639   22.9602 O   0  0  0  0  0  0  0  0  0  0  0  0
    8.7881   13.7824   23.2290 O   0  0  0  0  0  0  0  0  0  0  0  0
    9.3401   13.1485   20.8111 F   0  0  0  0  0  0  0  0  0  0  0  0
    6.6461   12.9064   25.1583 S   0  0  0  0  0  0  0  0  0  0  0  0
    8.5966   14.2564   21.6738 S   0  0  0  0  0  0  0  0  0  0  0  0
    9.1292    8.7509   24.6475 H   0  0  0  0  0  0  0  0  0  0  0  0
    7.3190   10.1533   25.5608 H   0  0  0  0  0  0  0  0  0  0  0  0
   10.6079   12.1047   22.3964 H   0  0  0  0  0  0  0  0  0  0  0  0
   12.6401    9.4557   21.7306 H   0  0  0  0  0  0  0  0  0  0  0  0
   12.3845   11.0267   22.5519 H   0  0  0  0  0  0  0  0  0  0  0  0
   11.3409   10.5492   21.1869 H   0  0  0  0  0  0  0  0  0  0  0  0
    7.6493   14.5113   26.5849 H   0  0  0  0  0  0  0  0  0  0  0  0
    7.0790   13.1529   27.4755 H   0  0  0  0  0  0  0  0  0  0  0  0
  1  2  2  0  0  0  0
  1  4  1  0  0  0  0
  2  6  1  0  0  0  0
  3  4  2  0  0  0  0
  3  5  1  0  0  0  0
  4 13  1  0  0  0  0
  5  6  2  0  0  0  0
  5 14  1  0  0  0  0
  6 16  1  0  0  0  0
  7 13  1  0  0  0  0
  8 16  1  0  0  0  0
  9 16  2  0  0  0  0
 10 16  2  0  0  0  0
 11 17  2  0  0  0  0
 12 17  2  0  0  0  0
 14 17  1  0  0  0  0
 15 17  1  0  0  0  0
  1 18  1  0  0  0  0
  2 19  1  0  0  0  0
  3 20  1  0  0  0  0
  7 21  1  0  0  0  0
  7 22  1  0  0  0  0
  7 23  1  0  0  0  0
  8 24  1  0  0  0  0
  8 25  1  0  0  0  0
M  END
> <Mol Weight>
285,26

> <Formula>
C7H8FNO6S2

> <ID>
EN300-7489971

> <name>
Sulfonamides

> <LogP>
0,12

> <ROCS_ShapeQuery>
x0446_0A_x1080_0A_x0929_0A_x0812_0A_x0719_0A_x1140_0A_x0528_0A_x0310_0A

> <ROCS_TanimotoCombo>
0.359 

> <ROCS_ShapeTanimoto>
0.213 

> <ROCS_ColorTanimoto>
0.146 

> <ROCS_RefTversky>
0.195 

> <ROCS_RefColorTversky>
0.158 

> <ROCS_RefTverskyCombo>
0.353 

> <ROCS_FitTversky>
1.773 

> <ROCS_FitColorTversky>
0.662 

> <ROCS_FitTverskyCombo>
2.435 

> <ROCS_ColorScore>
-5.637

> <ROCS_Overlap>
2300.622

> <ROCS_Rank>
64                  

$$$$
untitled-dbase-2362_176
  -OEChem-02082415043D

 31 31  0     0  0  0  0  0  0999 V2000
   10.4475   11.1321   23.2913 C   0  0  0  0  0  0  0  0  0  0  0  0
    9.4936   10.2686   23.8297 C   0  0  0  0  0  0  0  0  0  0  0  0
    8.8536   12.9457   23.3761 C   0  0  0  0  0  0  0  0  0  0  0  0
   10.1276   12.4707   23.0645 C   0  0  0  0  0  0  0  0  0  0  0  0
    8.2197   10.7436   24.1413 C   0  0  0  0  0  0  0  0  0  0  0  0
    7.8997   12.0822   23.9145 C   0  0  0  0  0  0  0  0  0  0  0  0
   10.1210   14.7485   20.6740 C   0  0  0  0  0  0  0  0  0  0  0  0
   10.0010   14.8633   19.1906 C   0  0  0  0  0  0  0  0  0  0  0  0
    6.4735    9.1792   23.7421 C   0  0  0  0  0  0  0  0  0  0  0  0
   11.1479   13.3931   22.4881 C   0  0  0  0  0  0  0  0  0  0  0  0
    5.4943   12.4277   22.8193 N   0  0  0  0  0  0  0  0  0  0  0  0
   10.8995   13.6858   21.0993 N   0  0  0  0  0  0  0  0  0  0  0  0
    9.5521   15.5632   21.3911 O   0  0  0  0  0  0  0  0  0  0  0  0
    5.7225   11.8531   25.3219 O   0  0  0  0  0  0  0  0  0  0  0  0
    6.4147   14.1366   24.5132 O   0  0  0  0  0  0  0  0  0  0  0  0
    7.3035    9.8819   24.6648 O   0  0  0  0  0  0  0  0  0  0  0  0
    6.3088   12.7017   24.2954 S   0  0  0  0  0  0  0  0  0  0  0  0
   11.4375   10.7535   23.0514 H   0  0  0  0  0  0  0  0  0  0  0  0
    9.7493    9.2268   24.0036 H   0  0  0  0  0  0  0  0  0  0  0  0
    8.6077   13.9902   23.1984 H   0  0  0  0  0  0  0  0  0  0  0  0
    9.1418   14.2993   18.7933 H   0  0  0  0  0  0  0  0  0  0  0  0
    9.8444   15.9029   18.8606 H   0  0  0  0  0  0  0  0  0  0  0  0
   10.8719   14.5059   18.6182 H   0  0  0  0  0  0  0  0  0  0  0  0
    5.7892    8.5269   24.2901 H   0  0  0  0  0  0  0  0  0  0  0  0
    7.0971    8.5868   23.0678 H   0  0  0  0  0  0  0  0  0  0  0  0
    5.8967    9.9024   23.1607 H   0  0  0  0  0  0  0  0  0  0  0  0
   11.1673   14.3499   23.0286 H   0  0  0  0  0  0  0  0  0  0  0  0
   12.1592   12.9693   22.5575 H   0  0  0  0  0  0  0  0  0  0  0  0
    5.7423   13.0180   22.0159 H   0  0  0  0  0  0  0  0  0  0  0  0
    5.2670   11.4580   22.5675 H   0  0  0  0  0  0  0  0  0  0  0  0
   11.3173   13.0809   20.3957 H   0  0  0  0  0  0  0  0  0  0  0  0
  1  2  2  0  0  0  0
  1  4  1  0  0  0  0
  2  5  1  0  0  0  0
  3  4  2  0  0  0  0
  3  6  1  0  0  0  0
  4 10  1  0  0  0  0
  5  6  2  0  0  0  0
  5 16  1  0  0  0  0
  6 17  1  0  0  0  0
  7  8  1  0  0  0  0
  7 12  1  0  0  0  0
  7 13  2  0  0  0  0
  9 16  1  0  0  0  0
 10 12  1  0  0  0  0
 11 17  1  0  0  0  0
 14 17  2  0  0  0  0
 15 17  2  0  0  0  0
  1 18  1  0  0  0  0
  2 19  1  0  0  0  0
  3 20  1  0  0  0  0
  8 21  1  0  0  0  0
  8 22  1  0  0  0  0
  8 23  1  0  0  0  0
  9 24  1  0  0  0  0
  9 25  1  0  0  0  0
  9 26  1  0  0  0  0
 10 27  1  0  0  0  0
 10 28  1  0  0  0  0
 11 29  1  0  0  0  0
 11 30  1  0  0  0  0
 12 31  1  0  0  0  0
M  END
> <Mol Weight>
258,29

> <Formula>
C10H14N2O4S

> <ID>
EN300-1617964

> <name>
Sulfonamides

> <LogP>
-0,63

> <ROCS_ShapeQuery>
x0446_0A_x1080_0A_x0929_0A_x0812_0A_x0719_0A_x1140_0A_x0528_0A_x0310_0A

> <ROCS_TanimotoCombo>
0.359 

> <ROCS_ShapeTanimoto>
0.205 

> <ROCS_ColorTanimoto>
0.154 

> <ROCS_RefTversky>
0.189 

> <ROCS_RefColorTversky>
0.165 

> <ROCS_RefTverskyCombo>
0.354 

> <ROCS_FitTversky>
1.715 

> <ROCS_FitColorTversky>
0.692 

> <ROCS_FitTverskyCombo>
2.407 

> <ROCS_ColorScore>
-5.894

> <ROCS_Overlap>
2231.152

> <ROCS_Rank>
65                  

$$$$
untitled-dbase-1653_43
  -OEChem-02082415043D

 28 29  0     0  0  0  0  0  0999 V2000
    7.5628   12.5492   25.1871 C   0  0  0  0  0  0  0  0  0  0  0  0
    7.5668   11.1543   25.1297 C   0  0  0  0  0  0  0  0  0  0  0  0
    9.2654   12.6686   23.4503 C   0  0  0  0  0  0  0  0  0  0  0  0
    9.2516   11.2871   23.3962 C   0  0  0  0  0  0  0  0  0  0  0  0
    8.4057   13.3017   24.3519 C   0  0  0  0  0  0  0  0  0  0  0  0
    8.4154   10.5507   24.2222 C   0  0  0  0  0  0  0  0  0  0  0  0
   10.0851   10.3651   22.5946 C   0  0  0  0  0  0  0  0  0  0  0  0
    9.3082    9.0696   22.8338 C   0  0  0  0  0  0  0  0  0  0  0  0
    8.3748   14.7922   24.4226 C   0  0  0  0  0  0  0  0  0  0  0  0
    7.3560   15.4295   23.4744 C   0  0  0  0  0  0  0  0  0  0  0  0
    6.3580   15.8608   21.0518 N   0  0  0  0  0  0  0  0  0  0  0  0
    8.8965   15.5934   21.3703 O   0  0  0  0  0  0  0  0  0  0  0  0
    7.3939   13.5785   21.6305 O   0  0  0  0  0  0  0  0  0  0  0  0
    8.5395    9.1949   24.0540 O   0  0  0  0  0  0  0  0  0  0  0  0
    7.6359   15.0024   21.7844 S   0  0  0  0  0  0  0  0  0  0  0  0
    6.8964   13.0509   25.8843 H   0  0  0  0  0  0  0  0  0  0  0  0
    6.9263   10.5698   25.7805 H   0  0  0  0  0  0  0  0  0  0  0  0
    9.9217   13.2426   22.8040 H   0  0  0  0  0  0  0  0  0  0  0  0
   10.0597   10.6524   21.5387 H   0  0  0  0  0  0  0  0  0  0  0  0
   11.1200   10.2894   22.9379 H   0  0  0  0  0  0  0  0  0  0  0  0
    8.6327    8.8454   22.0018 H   0  0  0  0  0  0  0  0  0  0  0  0
    9.9891    8.2174   22.9546 H   0  0  0  0  0  0  0  0  0  0  0  0
    9.3720   15.1911   24.1694 H   0  0  0  0  0  0  0  0  0  0  0  0
    8.1762   15.1371   25.4518 H   0  0  0  0  0  0  0  0  0  0  0  0
    6.3452   15.0801   23.7082 H   0  0  0  0  0  0  0  0  0  0  0  0
    7.3655   16.5220   23.5359 H   0  0  0  0  0  0  0  0  0  0  0  0
    6.5967   16.6899   20.4939 H   0  0  0  0  0  0  0  0  0  0  0  0
    5.5733   15.3177   20.6713 H   0  0  0  0  0  0  0  0  0  0  0  0
  1  2  2  0  0  0  0
  1  5  1  0  0  0  0
  2  6  1  0  0  0  0
  3  4  1  0  0  0  0
  3  5  2  0  0  0  0
  4  6  2  0  0  0  0
  4  7  1  0  0  0  0
  5  9  1  0  0  0  0
  6 14  1  0  0  0  0
  7  8  1  0  0  0  0
  8 14  1  0  0  0  0
  9 10  1  0  0  0  0
 10 15  1  0  0  0  0
 11 15  1  0  0  0  0
 12 15  2  0  0  0  0
 13 15  2  0  0  0  0
  1 16  1  0  0  0  0
  2 17  1  0  0  0  0
  3 18  1  0  0  0  0
  7 19  1  0  0  0  0
  7 20  1  0  0  0  0
  8 21  1  0  0  0  0
  8 22  1  0  0  0  0
  9 23  1  0  0  0  0
  9 24  1  0  0  0  0
 10 25  1  0  0  0  0
 10 26  1  0  0  0  0
 11 27  1  0  0  0  0
 11 28  1  0  0  0  0
M  END
> <Mol Weight>
227,28

> <Formula>
C10H13NO3S

> <ID>
EN300-156116

> <name>
Sulfonamides

> <LogP>
0,51

> <ROCS_ShapeQuery>
x0446_0A_x1080_0A_x0929_0A_x0812_0A_x0719_0A_x1140_0A_x0528_0A_x0310_0A

> <ROCS_TanimotoCombo>
0.359 

> <ROCS_ShapeTanimoto>
0.203 

> <ROCS_ColorTanimoto>
0.156 

> <ROCS_RefTversky>
0.186 

> <ROCS_RefColorTversky>
0.164 

> <ROCS_RefTverskyCombo>
0.350 

> <ROCS_FitTversky>
1.789 

> <ROCS_FitColorTversky>
0.769 

> <ROCS_FitTverskyCombo>
2.558 

> <ROCS_ColorScore>
-5.830

> <ROCS_Overlap>
2199.547

> <ROCS_Rank>
66                  

$$$$
untitled-dbase-2302_1
  -OEChem-02082415043D

 27 28  0     0  0  0  0  0  0999 V2000
    6.0771   11.4742   25.2450 C   0  0  0  0  0  0  0  0  0  0  0  0
    6.8730   10.5731   24.5320 C   0  0  0  0  0  0  0  0  0  0  0  0
    7.3547   13.3594   24.4017 C   0  0  0  0  0  0  0  0  0  0  0  0
    9.6739   11.3825   22.3834 C   0  0  0  0  0  0  0  0  0  0  0  0
    8.1704   12.4702   23.6741 C   0  0  0  0  0  0  0  0  0  0  0  0
    6.3124   12.8463   25.1824 C   0  0  0  0  0  0  0  0  0  0  0  0
    7.9113   11.1004   23.7559 C   0  0  0  0  0  0  0  0  0  0  0  0
    9.2850   12.6332   22.8046 C   0  0  0  0  0  0  0  0  0  0  0  0
    5.4660   13.7579   25.9367 C   0  0  0  0  0  0  0  0  0  0  0  0
    5.0849   16.0560   26.4505 C   0  0  0  0  0  0  0  0  0  0  0  0
    8.8392   10.4645   22.9623 N   0  0  0  0  0  0  0  0  0  0  0  0
   11.2776   13.5818   21.3098 N   0  0  0  0  0  0  0  0  0  0  0  0
    4.5216   13.4039   26.6544 O   0  0  0  0  0  0  0  0  0  0  0  0
    9.0818   14.9093   21.5590 O   0  0  0  0  0  0  0  0  0  0  0  0
   10.6462   14.7334   23.5261 O   0  0  0  0  0  0  0  0  0  0  0  0
    5.8439   15.0603   25.7561 O   0  0  0  0  0  0  0  0  0  0  0  0
   10.0201   14.1058   22.3543 S   0  0  0  0  0  0  0  0  0  0  0  0
    5.2641   11.0854   25.8547 H   0  0  0  0  0  0  0  0  0  0  0  0
    6.6892    9.5051   24.5816 H   0  0  0  0  0  0  0  0  0  0  0  0
    7.5337   14.4305   24.3565 H   0  0  0  0  0  0  0  0  0  0  0  0
   10.4687   11.0618   21.7242 H   0  0  0  0  0  0  0  0  0  0  0  0
    5.4867   17.0463   26.2224 H   0  0  0  0  0  0  0  0  0  0  0  0
    5.1354   15.8695   27.5262 H   0  0  0  0  0  0  0  0  0  0  0  0
    4.0443   16.0029   26.1220 H   0  0  0  0  0  0  0  0  0  0  0  0
    8.8957    9.4645   22.8273 H   0  0  0  0  0  0  0  0  0  0  0  0
   12.0913   13.1104   21.7234 H   0  0  0  0  0  0  0  0  0  0  0  0
   11.0243   13.2316   20.3779 H   0  0  0  0  0  0  0  0  0  0  0  0
  1  2  2  0  0  0  0
  1  6  1  0  0  0  0
  2  7  1  0  0  0  0
  3  5  1  0  0  0  0
  3  6  2  0  0  0  0
  4  8  2  0  0  0  0
  4 11  1  0  0  0  0
  5  7  2  0  0  0  0
  5  8  1  0  0  0  0
  6  9  1  0  0  0  0
  7 11  1  0  0  0  0
  8 17  1  0  0  0  0
  9 13  2  0  0  0  0
  9 16  1  0  0  0  0
 10 16  1  0  0  0  0
 12 17  1  0  0  0  0
 14 17  2  0  0  0  0
 15 17  2  0  0  0  0
  1 18  1  0  0  0  0
  2 19  1  0  0  0  0
  3 20  1  0  0  0  0
  4 21  1  0  0  0  0
 10 22  1  0  0  0  0
 10 23  1  0  0  0  0
 10 24  1  0  0  0  0
 11 25  1  0  0  0  0
 12 26  1  0  0  0  0
 12 27  1  0  0  0  0
M  END
> <Mol Weight>
254,26

> <Formula>
C10H10N2O4S

> <ID>
EN300-28265738

> <name>
Sulfonamides

> <LogP>
0,68

> <ROCS_ShapeQuery>
x0446_0A_x1080_0A_x0929_0A_x0812_0A_x0719_0A_x1140_0A_x0528_0A_x0310_0A

> <ROCS_TanimotoCombo>
0.359 

> <ROCS_ShapeTanimoto>
0.198 

> <ROCS_ColorTanimoto>
0.161 

> <ROCS_RefTversky>
0.184 

> <ROCS_RefColorTversky>
0.172 

> <ROCS_RefTverskyCombo>
0.356 

> <ROCS_FitTversky>
1.623 

> <ROCS_FitColorTversky>
0.720 

> <ROCS_FitTverskyCombo>
2.343 

> <ROCS_ColorScore>
-6.139

> <ROCS_Overlap>
2166.726

> <ROCS_Rank>
67                  

$$$$
untitled-dbase-1755_0
  -OEChem-02082415043D

 21 22  0     0  0  0  0  0  0999 V2000
    6.8644   10.5859   24.5489 C   0  0  0  0  0  0  0  0  0  0  0  0
    6.0725   11.4909   25.2615 C   0  0  0  0  0  0  0  0  0  0  0  0
    7.3549   13.3703   24.4125 C   0  0  0  0  0  0  0  0  0  0  0  0
    9.6645   11.3820   22.3944 C   0  0  0  0  0  0  0  0  0  0  0  0
    8.1666   12.4771   23.6854 C   0  0  0  0  0  0  0  0  0  0  0  0
    7.9032   11.1082   23.7702 C   0  0  0  0  0  0  0  0  0  0  0  0
    9.2803   12.6348   22.8138 C   0  0  0  0  0  0  0  0  0  0  0  0
    6.3122   12.8621   25.1958 C   0  0  0  0  0  0  0  0  0  0  0  0
    8.8278   10.4678   22.9764 N   0  0  0  0  0  0  0  0  0  0  0  0
   11.2729   13.5735   21.3127 N   0  0  0  0  0  0  0  0  0  0  0  0
    9.0820   14.9087   21.5635 O   0  0  0  0  0  0  0  0  0  0  0  0
   10.6499   14.7321   23.5277 O   0  0  0  0  0  0  0  0  0  0  0  0
   10.0192   14.1037   22.3587 S   0  0  0  0  0  0  0  0  0  0  0  0
    5.3118   13.9476   26.0843 Cl  0  0  0  0  0  0  0  0  0  0  0  0
    6.6768    9.5185   24.6005 H   0  0  0  0  0  0  0  0  0  0  0  0
    5.2600   11.1029   25.8722 H   0  0  0  0  0  0  0  0  0  0  0  0
    7.5399   14.4401   24.3615 H   0  0  0  0  0  0  0  0  0  0  0  0
   10.4574   11.0562   21.7356 H   0  0  0  0  0  0  0  0  0  0  0  0
    8.8800    9.4675   22.8420 H   0  0  0  0  0  0  0  0  0  0  0  0
   12.0860   13.1004   21.7256 H   0  0  0  0  0  0  0  0  0  0  0  0
   11.0166   13.2221   20.3821 H   0  0  0  0  0  0  0  0  0  0  0  0
  1  2  2  0  0  0  0
  1  6  1  0  0  0  0
  2  8  1  0  0  0  0
  3  5  1  0  0  0  0
  3  8  2  0  0  0  0
  4  7  2  0  0  0  0
  4  9  1  0  0  0  0
  5  6  2  0  0  0  0
  5  7  1  0  0  0  0
  6  9  1  0  0  0  0
  7 13  1  0  0  0  0
  8 14  1  0  0  0  0
 10 13  1  0  0  0  0
 11 13  2  0  0  0  0
 12 13  2  0  0  0  0
  1 15  1  0  0  0  0
  2 16  1  0  0  0  0
  3 17  1  0  0  0  0
  4 18  1  0  0  0  0
  9 19  1  0  0  0  0
 10 20  1  0  0  0  0
 10 21  1  0  0  0  0
M  END
> <Mol Weight>
230,67

> <Formula>
C8H7ClN2O2S

> <ID>
EN300-1275599

> <name>
Sulfonamides

> <LogP>
1,28

> <ROCS_ShapeQuery>
x0446_0A_x1080_0A_x0929_0A_x0812_0A_x0719_0A_x1140_0A_x0528_0A_x0310_0A

> <ROCS_TanimotoCombo>
0.358 

> <ROCS_ShapeTanimoto>
0.193 

> <ROCS_ColorTanimoto>
0.165 

> <ROCS_RefTversky>
0.178 

> <ROCS_RefColorTversky>
0.172 

> <ROCS_RefTverskyCombo>
0.350 

> <ROCS_FitTversky>
1.756 

> <ROCS_FitColorTversky>
0.809 

> <ROCS_FitTverskyCombo>
2.565 

> <ROCS_ColorScore>
-6.132

> <ROCS_Overlap>
2100.538

> <ROCS_Rank>
68                  

$$$$
untitled-dbase-2637_57
  -OEChem-02082415043D

 28 28  0     0  0  0  0  0  0999 V2000
    8.9067   10.1186   23.5585 C   0  0  0  0  0  0  0  0  0  0  0  0
    7.9204   10.7560   24.3112 C   0  0  0  0  0  0  0  0  0  0  0  0
    8.7603   12.9043   23.5926 C   0  0  0  0  0  0  0  0  0  0  0  0
    9.7466   12.2670   22.8399 C   0  0  0  0  0  0  0  0  0  0  0  0
    9.8199   10.8741   22.8228 C   0  0  0  0  0  0  0  0  0  0  0  0
    7.8472   12.1488   24.3282 C   0  0  0  0  0  0  0  0  0  0  0  0
   10.4060   14.2874   21.5570 C   0  0  0  0  0  0  0  0  0  0  0  0
   12.0126    9.9563   22.7492 C   0  0  0  0  0  0  0  0  0  0  0  0
   11.6165   14.8302   20.8334 C   0  0  0  0  0  0  0  0  0  0  0  0
    7.4134   13.1323   26.7674 N   0  0  0  0  0  0  0  0  0  0  0  0
   10.6548   13.0375   22.1098 N   0  0  0  0  0  0  0  0  0  0  0  0
    9.3619   14.9334   21.5843 O   0  0  0  0  0  0  0  0  0  0  0  0
    6.3747   14.2629   24.6966 O   0  0  0  0  0  0  0  0  0  0  0  0
    5.4987   12.0233   25.4479 O   0  0  0  0  0  0  0  0  0  0  0  0
   10.7764   10.2323   22.0942 O   0  0  0  0  0  0  0  0  0  0  0  0
    6.6118   12.9455   25.2700 S   0  0  0  0  0  0  0  0  0  0  0  0
   12.5739   15.7550   22.0011 Cl  0  0  0  0  0  0  0  0  0  0  0  0
    8.9592    9.0333   23.5507 H   0  0  0  0  0  0  0  0  0  0  0  0
    7.2149   10.1570   24.8809 H   0  0  0  0  0  0  0  0  0  0  0  0
    8.7031   13.9905   23.6068 H   0  0  0  0  0  0  0  0  0  0  0  0
   12.6854    9.4429   22.0579 H   0  0  0  0  0  0  0  0  0  0  0  0
   11.8293    9.3320   23.6273 H   0  0  0  0  0  0  0  0  0  0  0  0
   12.4667   10.8991   23.0633 H   0  0  0  0  0  0  0  0  0  0  0  0
   11.3526   15.4831   19.9976 H   0  0  0  0  0  0  0  0  0  0  0  0
   12.2184   13.9986   20.4562 H   0  0  0  0  0  0  0  0  0  0  0  0
    7.5732   12.2921   27.3366 H   0  0  0  0  0  0  0  0  0  0  0  0
    8.1712   13.8234   26.8256 H   0  0  0  0  0  0  0  0  0  0  0  0
   11.5841   12.6473   21.9701 H   0  0  0  0  0  0  0  0  0  0  0  0
  1  2  2  0  0  0  0
  1  5  1  0  0  0  0
  2  6  1  0  0  0  0
  3  4  1  0  0  0  0
  3  6  2  0  0  0  0
  4  5  2  0  0  0  0
  4 11  1  0  0  0  0
  5 15  1  0  0  0  0
  6 16  1  0  0  0  0
  7  9  1  0  0  0  0
  7 11  1  0  0  0  0
  7 12  2  0  0  0  0
  8 15  1  0  0  0  0
  9 17  1  0  0  0  0
 10 16  1  0  0  0  0
 13 16  2  0  0  0  0
 14 16  2  0  0  0  0
  1 18  1  0  0  0  0
  2 19  1  0  0  0  0
  3 20  1  0  0  0  0
  8 21  1  0  0  0  0
  8 22  1  0  0  0  0
  8 23  1  0  0  0  0
  9 24  1  0  0  0  0
  9 25  1  0  0  0  0
 10 26  1  0  0  0  0
 10 27  1  0  0  0  0
 11 28  1  0  0  0  0
M  END
> <Mol Weight>
278,71

> <Formula>
C9H11ClN2O4S

> <ID>
EN300-107670

> <name>
Sulfonamides

> <LogP>
0,20

> <ROCS_ShapeQuery>
x0446_0A_x1080_0A_x0929_0A_x0812_0A_x0719_0A_x1140_0A_x0528_0A_x0310_0A

> <ROCS_TanimotoCombo>
0.358 

> <ROCS_ShapeTanimoto>
0.220 

> <ROCS_ColorTanimoto>
0.138 

> <ROCS_RefTversky>
0.200 

> <ROCS_RefColorTversky>
0.150 

> <ROCS_RefTverskyCombo>
0.350 

> <ROCS_FitTversky>
1.823 

> <ROCS_FitColorTversky>
0.629 

> <ROCS_FitTverskyCombo>
2.453 

> <ROCS_ColorScore>
-5.358

> <ROCS_Overlap>
2363.049

> <ROCS_Rank>
69                  

$$$$
untitled-dbase-2635_2106
  -OEChem-02082415043D

 40 40  0     1  0  0  0  0  0999 V2000
   11.0907   13.4819   23.1149 C   0  0  0  0  0  0  0  0  0  0  0  0
    7.6040   11.0057   22.8304 C   0  0  0  0  0  0  0  0  0  0  0  0
    8.9579   10.3691   23.1077 C   0  0  0  0  0  0  0  0  0  0  0  0
    8.7076   12.2465   24.6188 C   0  0  0  0  0  0  0  0  0  0  0  0
    7.3264   11.8079   24.1011 C   0  0  1  0  0  0  0  0  0  0  0  0
    9.7446   11.4923   23.7770 C   0  0  2  0  0  0  0  0  0  0  0  0
   13.5575   14.9104   22.9605 C   0  0  0  0  0  0  0  0  0  0  0  0
   12.7004   15.7843   20.7671 C   0  0  0  0  0  0  0  0  0  0  0  0
   11.4663   16.3092   22.8907 C   0  0  0  0  0  0  0  0  0  0  0  0
    6.3785   12.9732   23.8654 C   0  0  0  0  0  0  0  0  0  0  0  0
   12.3121   15.2726   22.1526 C   0  0  0  0  0  0  0  0  0  0  0  0
    5.7832   15.2609   22.6557 N   0  0  0  0  0  0  0  0  0  0  0  0
   10.3512   12.3615   22.7952 N   0  0  0  0  0  0  0  0  0  0  0  0
   11.3279   13.8826   24.2497 O   0  0  0  0  0  0  0  0  0  0  0  0
    8.2215   14.7305   23.2803 O   0  0  0  0  0  0  0  0  0  0  0  0
    7.1143   13.4503   21.4040 O   0  0  0  0  0  0  0  0  0  0  0  0
   11.5267   14.0890   21.9709 O   0  0  0  0  0  0  0  0  0  0  0  0
    7.0423   14.1111   22.6972 S   0  0  0  0  0  0  0  0  0  0  0  0
    7.6629   11.6621   21.9511 H   0  0  0  0  0  0  0  0  0  0  0  0
    6.8283   10.2546   22.6390 H   0  0  0  0  0  0  0  0  0  0  0  0
    8.8400    9.5336   23.8062 H   0  0  0  0  0  0  0  0  0  0  0  0
    9.4318    9.9829   22.2020 H   0  0  0  0  0  0  0  0  0  0  0  0
    8.8404   13.3337   24.5478 H   0  0  0  0  0  0  0  0  0  0  0  0
    8.8091   11.9897   25.6806 H   0  0  0  0  0  0  0  0  0  0  0  0
    6.8716   11.1384   24.8476 H   0  0  0  0  0  0  0  0  0  0  0  0
   10.5522   11.1013   24.3931 H   0  0  0  0  0  0  0  0  0  0  0  0
   13.2831   14.5427   23.9557 H   0  0  0  0  0  0  0  0  0  0  0  0
   14.1547   14.1423   22.4585 H   0  0  0  0  0  0  0  0  0  0  0  0
   14.1900   15.7912   23.1200 H   0  0  0  0  0  0  0  0  0  0  0  0
   11.8099   16.0453   20.1839 H   0  0  0  0  0  0  0  0  0  0  0  0
   13.2258   15.0090   20.1978 H   0  0  0  0  0  0  0  0  0  0  0  0
   13.3456   16.6666   20.8284 H   0  0  0  0  0  0  0  0  0  0  0  0
   10.5729   16.5691   22.3114 H   0  0  0  0  0  0  0  0  0  0  0  0
   11.1475   15.9445   23.8725 H   0  0  0  0  0  0  0  0  0  0  0  0
   12.0262   17.2410   23.0303 H   0  0  0  0  0  0  0  0  0  0  0  0
    6.2048   13.5207   24.7929 H   0  0  0  0  0  0  0  0  0  0  0  0
    5.4249   12.6191   23.4718 H   0  0  0  0  0  0  0  0  0  0  0  0
    4.9022   14.9882   22.2029 H   0  0  0  0  0  0  0  0  0  0  0  0
    5.6565   15.8601   23.4806 H   0  0  0  0  0  0  0  0  0  0  0  0
   10.2262   12.1347   21.8126 H   0  0  0  0  0  0  0  0  0  0  0  0
  1 13  1  0  0  0  0
  1 14  2  0  0  0  0
  1 17  1  0  0  0  0
  2  3  1  0  0  0  0
  2  5  1  0  0  0  0
  3  6  1  0  0  0  0
  4  5  1  0  0  0  0
  4  6  1  0  0  0  0
  5 10  1  6  0  0  0
  6 13  1  6  0  0  0
  7 11  1  0  0  0  0
  8 11  1  0  0  0  0
  9 11  1  0  0  0  0
 10 18  1  0  0  0  0
 11 17  1  0  0  0  0
 12 18  1  0  0  0  0
 15 18  2  0  0  0  0
 16 18  2  0  0  0  0
  2 19  1  0  0  0  0
  2 20  1  0  0  0  0
  3 21  1  0  0  0  0
  3 22  1  0  0  0  0
  4 23  1  0  0  0  0
  4 24  1  0  0  0  0
  5 25  1  0  0  0  0
  6 26  1  0  0  0  0
  7 27  1  0  0  0  0
  7 28  1  0  0  0  0
  7 29  1  0  0  0  0
  8 30  1  0  0  0  0
  8 31  1  0  0  0  0
  8 32  1  0  0  0  0
  9 33  1  0  0  0  0
  9 34  1  0  0  0  0
  9 35  1  0  0  0  0
 10 36  1  0  0  0  0
 10 37  1  0  0  0  0
 12 38  1  0  0  0  0
 12 39  1  0  0  0  0
 13 40  1  0  0  0  0
M  END
> <Mol Weight>
278,37

> <Formula>
C11H22N2O4S

> <ID>
EN300-746189

> <name>
Sulfonamides

> <LogP>
0,29

> <ROCS_ShapeQuery>
x0446_0A_x1080_0A_x0929_0A_x0812_0A_x0719_0A_x1140_0A_x0528_0A_x0310_0A

> <ROCS_TanimotoCombo>
0.358 

> <ROCS_ShapeTanimoto>
0.220 

> <ROCS_ColorTanimoto>
0.138 

> <ROCS_RefTversky>
0.200 

> <ROCS_RefColorTversky>
0.150 

> <ROCS_RefTverskyCombo>
0.351 

> <ROCS_FitTversky>
1.783 

> <ROCS_FitColorTversky>
0.631 

> <ROCS_FitTverskyCombo>
2.414 

> <ROCS_ColorScore>
-5.368

> <ROCS_Overlap>
2365.017

> <ROCS_Rank>
70                  

$$$$
untitled-dbase-1313_3
  -OEChem-02082415043D

 23 24  0     0  0  0  0  0  0999 V2000
    7.1180   11.6289   21.0089 C   0  0  0  0  0  0  0  0  0  0  0  0
    7.2195   10.6554   22.0028 C   0  0  0  0  0  0  0  0  0  0  0  0
    7.9402   12.7556   21.0461 C   0  0  0  0  0  0  0  0  0  0  0  0
    8.1433   10.8129   23.0363 C   0  0  0  0  0  0  0  0  0  0  0  0
    8.9857   11.9272   23.0582 C   0  0  0  0  0  0  0  0  0  0  0  0
    8.8744   12.9068   22.0711 C   0  0  0  0  0  0  0  0  0  0  0  0
    8.8936   10.2573   25.1609 C   0  0  0  0  0  0  0  0  0  0  0  0
   10.1963   10.9254   24.7663 C   0  0  0  0  0  0  0  0  0  0  0  0
   11.2080   13.8232   21.1659 N   0  0  0  0  0  0  0  0  0  0  0  0
    9.1753   15.3953   21.3712 O   0  0  0  0  0  0  0  0  0  0  0  0
   10.3139   14.5728   23.4628 O   0  0  0  0  0  0  0  0  0  0  0  0
    8.1811    9.8343   23.9951 O   0  0  0  0  0  0  0  0  0  0  0  0
    9.9352   12.1217   24.0269 O   0  0  0  0  0  0  0  0  0  0  0  0
    9.8731   14.3440   22.0952 S   0  0  0  0  0  0  0  0  0  0  0  0
    6.4002   11.5079   20.2025 H   0  0  0  0  0  0  0  0  0  0  0  0
    6.5843    9.7750   21.9581 H   0  0  0  0  0  0  0  0  0  0  0  0
    7.8401   13.5116   20.2716 H   0  0  0  0  0  0  0  0  0  0  0  0
    9.0652    9.3839   25.8021 H   0  0  0  0  0  0  0  0  0  0  0  0
    8.2550   10.9608   25.7040 H   0  0  0  0  0  0  0  0  0  0  0  0
   10.8021   11.1818   25.6440 H   0  0  0  0  0  0  0  0  0  0  0  0
   10.7851   10.2614   24.1261 H   0  0  0  0  0  0  0  0  0  0  0  0
   11.8479   13.1375   21.5851 H   0  0  0  0  0  0  0  0  0  0  0  0
   11.0722   13.7005   20.1551 H   0  0  0  0  0  0  0  0  0  0  0  0
  1  2  1  0  0  0  0
  1  3  2  0  0  0  0
  2  4  2  0  0  0  0
  3  6  1  0  0  0  0
  4  5  1  0  0  0  0
  4 12  1  0  0  0  0
  5  6  2  0  0  0  0
  5 13  1  0  0  0  0
  6 14  1  0  0  0  0
  7  8  1  0  0  0  0
  7 12  1  0  0  0  0
  8 13  1  0  0  0  0
  9 14  1  0  0  0  0
 10 14  2  0  0  0  0
 11 14  2  0  0  0  0
  1 15  1  0  0  0  0
  2 16  1  0  0  0  0
  3 17  1  0  0  0  0
  7 18  1  0  0  0  0
  7 19  1  0  0  0  0
  8 20  1  0  0  0  0
  8 21  1  0  0  0  0
  9 22  1  0  0  0  0
  9 23  1  0  0  0  0
M  END
> <Mol Weight>
215,22

> <Formula>
C8H9NO4S

> <ID>
EN300-120195

> <name>
Sulfonamides

> <LogP>
0,09

> <ROCS_ShapeQuery>
x0446_0A_x1080_0A_x0929_0A_x0812_0A_x0719_0A_x1140_0A_x0528_0A_x0310_0A

> <ROCS_TanimotoCombo>
0.358 

> <ROCS_ShapeTanimoto>
0.155 

> <ROCS_ColorTanimoto>
0.203 

> <ROCS_RefTversky>
0.148 

> <ROCS_RefColorTversky>
0.209 

> <ROCS_RefTverskyCombo>
0.357 

> <ROCS_FitTversky>
1.446 

> <ROCS_FitColorTversky>
0.875 

> <ROCS_FitTverskyCombo>
2.322 

> <ROCS_ColorScore>
-7.461

> <ROCS_Overlap>
1743.718

> <ROCS_Rank>
71                  

$$$$
untitled-dbase-1819_37
  -OEChem-02082415043D

 34 35  0     1  0  0  0  0  0999 V2000
    6.3637   12.8515   25.8661 C   0  0  0  0  0  0  0  0  0  0  0  0
    5.7599   12.8949   24.4633 C   0  0  0  0  0  0  0  0  0  0  0  0
    7.2675   11.6248   25.8922 C   0  0  0  0  0  0  0  0  0  0  0  0
    6.3573   11.7105   23.7094 C   0  0  0  0  0  0  0  0  0  0  0  0
    9.6860   10.4871   22.5396 C   0  0  0  0  0  0  0  0  0  0  0  0
    8.8440   12.3218   24.0285 C   0  0  0  0  0  0  0  0  0  0  0  0
    8.4717    9.6728   22.9652 C   0  0  0  0  0  0  0  0  0  0  0  0
    9.3825   11.9802   22.6374 C   0  0  1  0  0  0  0  0  0  0  0  0
    7.6762   11.3970   24.4305 C   0  0  0  0  0  0  0  0  0  0  0  0
   11.8967   14.8667   21.3971 C   0  0  0  0  0  0  0  0  0  0  0  0
   10.5818   12.7467   22.3771 N   0  0  0  0  0  0  0  0  0  0  0  0
   10.7574   14.9301   23.7527 O   0  0  0  0  0  0  0  0  0  0  0  0
    9.3048   14.8572   21.6933 O   0  0  0  0  0  0  0  0  0  0  0  0
    8.0552   10.0267   24.2829 O   0  0  0  0  0  0  0  0  0  0  0  0
   10.4969   14.4476   22.4106 S   0  0  0  0  0  0  0  0  0  0  0  0
    6.9266   13.7622   26.0926 H   0  0  0  0  0  0  0  0  0  0  0  0
    5.5666   12.7630   26.6122 H   0  0  0  0  0  0  0  0  0  0  0  0
    4.6687   12.7958   24.5261 H   0  0  0  0  0  0  0  0  0  0  0  0
    5.9730   13.8422   23.9557 H   0  0  0  0  0  0  0  0  0  0  0  0
    8.1477   11.8334   26.5167 H   0  0  0  0  0  0  0  0  0  0  0  0
    6.7426   10.7625   26.3232 H   0  0  0  0  0  0  0  0  0  0  0  0
    5.6476   10.8735   23.6840 H   0  0  0  0  0  0  0  0  0  0  0  0
    6.5499   12.0041   22.6651 H   0  0  0  0  0  0  0  0  0  0  0  0
   10.5292   10.2421   23.1984 H   0  0  0  0  0  0  0  0  0  0  0  0
    9.9863   10.2182   21.5208 H   0  0  0  0  0  0  0  0  0  0  0  0
    9.6557   12.2046   24.7609 H   0  0  0  0  0  0  0  0  0  0  0  0
    8.5393   13.3754   24.0711 H   0  0  0  0  0  0  0  0  0  0  0  0
    7.6444    9.7958   22.2632 H   0  0  0  0  0  0  0  0  0  0  0  0
    8.7288    8.6111   22.9768 H   0  0  0  0  0  0  0  0  0  0  0  0
    8.6280   12.2497   21.8764 H   0  0  0  0  0  0  0  0  0  0  0  0
   11.9619   15.9540   21.3326 H   0  0  0  0  0  0  0  0  0  0  0  0
   12.7941   14.4567   21.8629 H   0  0  0  0  0  0  0  0  0  0  0  0
   11.7471   14.4331   20.4072 H   0  0  0  0  0  0  0  0  0  0  0  0
   11.4340   12.3095   22.7420 H   0  0  0  0  0  0  0  0  0  0  0  0
  1  2  1  0  0  0  0
  1  3  1  0  0  0  0
  2  4  1  0  0  0  0
  3  9  1  0  0  0  0
  4  9  1  0  0  0  0
  5  7  1  0  0  0  0
  5  8  1  0  0  0  0
  6  8  1  0  0  0  0
  6  9  1  0  0  0  0
  7 14  1  0  0  0  0
  8 11  1  0  0  0  0
  9 14  1  0  0  0  0
 10 15  1  0  0  0  0
 11 15  1  0  0  0  0
 12 15  2  0  0  0  0
 13 15  2  0  0  0  0
  1 16  1  0  0  0  0
  1 17  1  0  0  0  0
  2 18  1  0  0  0  0
  2 19  1  0  0  0  0
  3 20  1  0  0  0  0
  3 21  1  0  0  0  0
  4 22  1  0  0  0  0
  4 23  1  0  0  0  0
  5 24  1  0  0  0  0
  5 25  1  0  0  0  0
  6 26  1  0  0  0  0
  6 27  1  0  0  0  0
  7 28  1  0  0  0  0
  7 29  1  0  0  0  0
  8 30  1  0  0  0  0
 10 31  1  0  0  0  0
 10 32  1  0  0  0  0
 10 33  1  0  0  0  0
 11 34  1  0  0  0  0
M  END
> <Mol Weight>
233,33

> <Formula>
C10H19NO3S

> <ID>
EN300-7511690

> <name>
Sulfonamides

> <LogP>
-0,07

> <ROCS_ShapeQuery>
x0446_0A_x1080_0A_x0929_0A_x0812_0A_x0719_0A_x1140_0A_x0528_0A_x0310_0A

> <ROCS_TanimotoCombo>
0.358 

> <ROCS_ShapeTanimoto>
0.199 

> <ROCS_ColorTanimoto>
0.159 

> <ROCS_RefTversky>
0.183 

> <ROCS_RefColorTversky>
0.166 

> <ROCS_RefTverskyCombo>
0.349 

> <ROCS_FitTversky>
1.780 

> <ROCS_FitColorTversky>
0.781 

> <ROCS_FitTverskyCombo>
2.562 

> <ROCS_ColorScore>
-5.912

> <ROCS_Overlap>
2161.096

> <ROCS_Rank>
72                  

$$$$
untitled-dbase-1767_201
  -OEChem-02082415043D

 24 24  0     0  0  0  0  0  0999 V2000
    7.9916   12.4806   23.9567 C   0  0  0  0  0  0  0  0  0  0  0  0
    8.6019   10.3317   23.6748 C   0  0  0  0  0  0  0  0  0  0  0  0
    7.5632   11.1365   24.0876 C   0  0  0  0  0  0  0  0  0  0  0  0
    9.2790   12.4561   23.4676 C   0  0  0  0  0  0  0  0  0  0  0  0
   10.1219   13.5745   23.1734 C   0  0  0  0  0  0  0  0  0  0  0  0
   10.1512   14.2404   21.8140 C   0  0  0  0  0  0  0  0  0  0  0  0
   10.9141   10.6734   22.8044 C   0  0  0  0  0  0  0  0  0  0  0  0
    9.6396   11.1446   23.2998 N   0  0  0  0  0  0  0  0  0  0  0  0
   11.0846   13.6958   20.9720 N   0  0  0  0  0  0  0  0  0  0  0  0
    5.1216   10.5336   23.2046 N   0  0  0  0  0  0  0  0  0  0  0  0
   10.8950   14.1177   23.9838 O   0  0  0  0  0  0  0  0  0  0  0  0
    9.3793   15.1581   21.5909 O   0  0  0  0  0  0  0  0  0  0  0  0
    6.1521    9.2453   25.1855 O   0  0  0  0  0  0  0  0  0  0  0  0
    5.4396   11.6401   25.5092 O   0  0  0  0  0  0  0  0  0  0  0  0
    6.0435   10.6104   24.6512 S   0  0  0  0  0  0  0  0  0  0  0  0
    7.4228   13.3698   24.1938 H   0  0  0  0  0  0  0  0  0  0  0  0
    8.6894    9.2548   23.6161 H   0  0  0  0  0  0  0  0  0  0  0  0
   10.8421   10.5865   21.7171 H   0  0  0  0  0  0  0  0  0  0  0  0
   11.6975   11.3848   23.0801 H   0  0  0  0  0  0  0  0  0  0  0  0
   11.1391    9.7016   23.2526 H   0  0  0  0  0  0  0  0  0  0  0  0
   11.1801   14.0755   20.0360 H   0  0  0  0  0  0  0  0  0  0  0  0
   11.6840   12.9256   21.2516 H   0  0  0  0  0  0  0  0  0  0  0  0
    4.8356   11.4145   22.7600 H   0  0  0  0  0  0  0  0  0  0  0  0
    5.3200    9.7775   22.5381 H   0  0  0  0  0  0  0  0  0  0  0  0
  1  3  1  0  0  0  0
  1  4  2  0  0  0  0
  2  3  2  0  0  0  0
  2  8  1  0  0  0  0
  3 15  1  0  0  0  0
  4  5  1  0  0  0  0
  4  8  1  0  0  0  0
  5  6  1  0  0  0  0
  5 11  2  0  0  0  0
  6  9  1  0  0  0  0
  6 12  2  0  0  0  0
  7  8  1  0  0  0  0
 10 15  1  0  0  0  0
 13 15  2  0  0  0  0
 14 15  2  0  0  0  0
  1 16  1  0  0  0  0
  2 17  1  0  0  0  0
  7 18  1  0  0  0  0
  7 19  1  0  0  0  0
  7 20  1  0  0  0  0
  9 21  1  0  0  0  0
  9 22  1  0  0  0  0
 10 23  1  0  0  0  0
 10 24  1  0  0  0  0
M  END
> <Mol Weight>
231,23

> <Formula>
C7H9N3O4S

> <ID>
EN300-211989

> <name>
Sulfonamides

> <LogP>
-1,49

> <ROCS_ShapeQuery>
x0446_0A_x1080_0A_x0929_0A_x0812_0A_x0719_0A_x1140_0A_x0528_0A_x0310_0A

> <ROCS_TanimotoCombo>
0.358 

> <ROCS_ShapeTanimoto>
0.193 

> <ROCS_ColorTanimoto>
0.164 

> <ROCS_RefTversky>
0.179 

> <ROCS_RefColorTversky>
0.175 

> <ROCS_RefTverskyCombo>
0.354 

> <ROCS_FitTversky>
1.714 

> <ROCS_FitColorTversky>
0.733 

> <ROCS_FitTverskyCombo>
2.447 

> <ROCS_ColorScore>
-6.240

> <ROCS_Overlap>
2110.960

> <ROCS_Rank>
73                  

$$$$
untitled-dbase-2719_62
  -OEChem-02082415043D

 30 31  0     0  0  0  0  0  0999 V2000
    6.0568   12.3781   25.4369 C   0  0  0  0  0  0  0  0  0  0  0  0
    6.5139   13.6444   25.0842 C   0  0  0  0  0  0  0  0  0  0  0  0
    6.6800   11.2416   24.9208 C   0  0  0  0  0  0  0  0  0  0  0  0
    7.5961   13.7790   24.2141 C   0  0  0  0  0  0  0  0  0  0  0  0
    9.4922   10.3599   22.6446 C   0  0  0  0  0  0  0  0  0  0  0  0
    9.9494   11.6262   22.2919 C   0  0  0  0  0  0  0  0  0  0  0  0
    7.7706   11.3583   24.0437 C   0  0  0  0  0  0  0  0  0  0  0  0
    8.2355   12.6460   23.6850 C   0  0  0  0  0  0  0  0  0  0  0  0
    8.4100   10.2253   23.5148 C   0  0  0  0  0  0  0  0  0  0  0  0
    9.3261   12.7627   22.8079 C   0  0  0  0  0  0  0  0  0  0  0  0
    7.5687    8.1347   22.7548 C   0  0  0  0  0  0  0  0  0  0  0  0
    6.4172    8.7938   22.0322 C   0  0  0  0  0  0  0  0  0  0  0  0
   11.2422   13.8030   21.2745 N   0  0  0  0  0  0  0  0  0  0  0  0
    8.9644   14.9876   21.5071 O   0  0  0  0  0  0  0  0  0  0  0  0
   10.5487   14.9665   23.4660 O   0  0  0  0  0  0  0  0  0  0  0  0
    7.9976    8.9626   23.8320 O   0  0  0  0  0  0  0  0  0  0  0  0
    5.3922    9.0053   22.8935 F   0  0  0  0  0  0  0  0  0  0  0  0
    6.7995   10.0067   21.5632 F   0  0  0  0  0  0  0  0  0  0  0  0
    9.9778   14.3141   22.3004 S   0  0  0  0  0  0  0  0  0  0  0  0
    5.2138   12.2741   26.1139 H   0  0  0  0  0  0  0  0  0  0  0  0
    6.0279   14.5285   25.4867 H   0  0  0  0  0  0  0  0  0  0  0  0
    6.2975   10.2674   25.2164 H   0  0  0  0  0  0  0  0  0  0  0  0
    7.9175   14.7877   23.9683 H   0  0  0  0  0  0  0  0  0  0  0  0
    9.9829    9.4794   22.2384 H   0  0  0  0  0  0  0  0  0  0  0  0
   10.7932   11.7144   21.6122 H   0  0  0  0  0  0  0  0  0  0  0  0
    7.2730    7.1656   23.1663 H   0  0  0  0  0  0  0  0  0  0  0  0
    8.4191    7.9970   22.0814 H   0  0  0  0  0  0  0  0  0  0  0  0
    6.0569    8.1892   21.1955 H   0  0  0  0  0  0  0  0  0  0  0  0
   11.1265   13.9436   20.2635 H   0  0  0  0  0  0  0  0  0  0  0  0
   12.2074   13.9280   21.6033 H   0  0  0  0  0  0  0  0  0  0  0  0
  1  2  1  0  0  0  0
  1  3  2  0  0  0  0
  2  4  2  0  0  0  0
  3  7  1  0  0  0  0
  4  8  1  0  0  0  0
  5  6  2  0  0  0  0
  5  9  1  0  0  0  0
  6 10  1  0  0  0  0
  7  8  1  0  0  0  0
  7  9  2  0  0  0  0
  8 10  2  0  0  0  0
  9 16  1  0  0  0  0
 10 19  1  0  0  0  0
 11 12  1  0  0  0  0
 11 16  1  0  0  0  0
 12 17  1  0  0  0  0
 12 18  1  0  0  0  0
 13 19  1  0  0  0  0
 14 19  2  0  0  0  0
 15 19  2  0  0  0  0
  1 20  1  0  0  0  0
  2 21  1  0  0  0  0
  3 22  1  0  0  0  0
  4 23  1  0  0  0  0
  5 24  1  0  0  0  0
  6 25  1  0  0  0  0
 11 26  1  0  0  0  0
 11 27  1  0  0  0  0
 12 28  1  0  0  0  0
 13 29  1  0  0  0  0
 13 30  1  0  0  0  0
M  END
> <Mol Weight>
287,28

> <Formula>
C12H11F2NO3S

> <ID>
EN300-372008

> <name>
Sulfonamides

> <LogP>
1,88

> <ROCS_ShapeQuery>
x0446_0A_x1080_0A_x0929_0A_x0812_0A_x0719_0A_x1140_0A_x0528_0A_x0310_0A

> <ROCS_TanimotoCombo>
0.358 

> <ROCS_ShapeTanimoto>
0.211 

> <ROCS_ColorTanimoto>
0.146 

> <ROCS_RefTversky>
0.195 

> <ROCS_RefColorTversky>
0.155 

> <ROCS_RefTverskyCombo>
0.350 

> <ROCS_FitTversky>
1.631 

> <ROCS_FitColorTversky>
0.729 

> <ROCS_FitTverskyCombo>
2.360 

> <ROCS_ColorScore>
-5.516

> <ROCS_Overlap>
2306.380

> <ROCS_Rank>
74                  

$$$$
untitled-dbase-1787_2
  -OEChem-02082415043D

 20 21  0     0  0  0  0  0  0999 V2000
    9.2934   10.8169   23.1820 C   0  0  0  0  0  0  0  0  0  0  0  0
    9.1172   12.1676   23.3706 C   0  0  0  0  0  0  0  0  0  0  0  0
    7.5293   10.9877   24.3768 C   0  0  0  0  0  0  0  0  0  0  0  0
    6.3481   10.8533   25.1643 C   0  0  0  0  0  0  0  0  0  0  0  0
    5.7324   11.9544   25.6367 C   0  0  0  0  0  0  0  0  0  0  0  0
    6.2430   13.2883   25.3634 C   0  0  0  0  0  0  0  0  0  0  0  0
    7.3547   13.4231   24.6222 C   0  0  0  0  0  0  0  0  0  0  0  0
    8.3091   10.0926   23.8056 N   0  0  0  0  0  0  0  0  0  0  0  0
    7.9860   12.2810   24.1373 N   0  0  0  0  0  0  0  0  0  0  0  0
   11.2876   12.7691   21.9450 N   0  0  0  0  0  0  0  0  0  0  0  0
    9.2203   14.3083   21.8942 O   0  0  0  0  0  0  0  0  0  0  0  0
   10.6261   14.2007   23.9822 O   0  0  0  0  0  0  0  0  0  0  0  0
   10.0541   13.5614   22.8143 S   0  0  0  0  0  0  0  0  0  0  0  0
   10.5450   10.0683   22.3012 Cl  0  0  0  0  0  0  0  0  0  0  0  0
    5.9579    9.8637   25.3744 H   0  0  0  0  0  0  0  0  0  0  0  0
    4.8330   11.8724   26.2374 H   0  0  0  0  0  0  0  0  0  0  0  0
    5.7143   14.1449   25.7635 H   0  0  0  0  0  0  0  0  0  0  0  0
    7.7785   14.3914   24.3872 H   0  0  0  0  0  0  0  0  0  0  0  0
   11.9935   12.2506   22.4820 H   0  0  0  0  0  0  0  0  0  0  0  0
   11.0350   12.3249   21.0539 H   0  0  0  0  0  0  0  0  0  0  0  0
  1  2  2  0  0  0  0
  1  8  1  0  0  0  0
  1 14  1  0  0  0  0
  2  9  1  0  0  0  0
  2 13  1  0  0  0  0
  3  4  1  0  0  0  0
  3  8  2  0  0  0  0
  3  9  1  0  0  0  0
  4  5  2  0  0  0  0
  5  6  1  0  0  0  0
  6  7  2  0  0  0  0
  7  9  1  0  0  0  0
 10 13  1  0  0  0  0
 11 13  2  0  0  0  0
 12 13  2  0  0  0  0
  4 15  1  0  0  0  0
  5 16  1  0  0  0  0
  6 17  1  0  0  0  0
  7 18  1  0  0  0  0
 10 19  1  0  0  0  0
 10 20  1  0  0  0  0
M  END
> <Mol Weight>
231,65

> <Formula>
C7H6ClN3O2S

> <ID>
EN300-59807

> <name>
Sulfonamides

> <LogP>
0,28

> <ROCS_ShapeQuery>
x0446_0A_x1080_0A_x0929_0A_x0812_0A_x0719_0A_x1140_0A_x0528_0A_x0310_0A

> <ROCS_TanimotoCombo>
0.358 

> <ROCS_ShapeTanimoto>
0.209 

> <ROCS_ColorTanimoto>
0.148 

> <ROCS_RefTversky>
0.191 

> <ROCS_RefColorTversky>
0.160 

> <ROCS_RefTverskyCombo>
0.351 

> <ROCS_FitTversky>
1.869 

> <ROCS_FitColorTversky>
0.669 

> <ROCS_FitTverskyCombo>
2.538 

> <ROCS_ColorScore>
-5.708

> <ROCS_Overlap>
2251.376

> <ROCS_Rank>
75                  

$$$$
untitled-dbase-2601_0
  -OEChem-02082415043D

 20 21  0     0  0  0  0  0  0999 V2000
    6.9851   10.4456   24.0336 C   0  0  0  0  0  0  0  0  0  0  0  0
    6.2074   11.2501   24.8728 C   0  0  0  0  0  0  0  0  0  0  0  0
    7.4619   13.2383   24.2437 C   0  0  0  0  0  0  0  0  0  0  0  0
    8.2517   12.4435   23.3962 C   0  0  0  0  0  0  0  0  0  0  0  0
    7.9984   11.0790   23.3107 C   0  0  0  0  0  0  0  0  0  0  0  0
    6.4400   12.6228   24.9775 C   0  0  0  0  0  0  0  0  0  0  0  0
    9.3372   12.6534   22.5188 C   0  0  0  0  0  0  0  0  0  0  0  0
    9.7464   11.5313   21.9227 N   0  0  0  0  0  0  0  0  0  0  0  0
    8.9195   10.5967   22.4203 N   0  0  0  0  0  0  0  0  0  0  0  0
   11.3116   13.7074   21.0712 N   0  0  0  0  0  0  0  0  0  0  0  0
    9.1584   15.0511   21.5226 O   0  0  0  0  0  0  0  0  0  0  0  0
   10.7713   14.6354   23.4129 O   0  0  0  0  0  0  0  0  0  0  0  0
   10.0990   14.1512   22.2010 S   0  0  0  0  0  0  0  0  0  0  0  0
    5.3607   13.6697   26.1270 Br  0  0  0  0  0  0  0  0  0  0  0  0
    6.8061    9.3794   23.9509 H   0  0  0  0  0  0  0  0  0  0  0  0
    5.4112   10.7807   25.4469 H   0  0  0  0  0  0  0  0  0  0  0  0
    7.6453   14.3060   24.3232 H   0  0  0  0  0  0  0  0  0  0  0  0
    9.0369    9.6405   22.1093 H   0  0  0  0  0  0  0  0  0  0  0  0
   12.1225   13.1753   21.4099 H   0  0  0  0  0  0  0  0  0  0  0  0
   11.0223   13.4605   20.1169 H   0  0  0  0  0  0  0  0  0  0  0  0
  1  2  2  0  0  0  0
  1  5  1  0  0  0  0
  2  6  1  0  0  0  0
  3  4  1  0  0  0  0
  3  6  2  0  0  0  0
  4  5  2  0  0  0  0
  4  7  1  0  0  0  0
  5  9  1  0  0  0  0
  6 14  1  0  0  0  0
  7  8  2  0  0  0  0
  7 13  1  0  0  0  0
  8  9  1  0  0  0  0
 10 13  1  0  0  0  0
 11 13  2  0  0  0  0
 12 13  2  0  0  0  0
  1 15  1  0  0  0  0
  2 16  1  0  0  0  0
  3 17  1  0  0  0  0
  9 18  1  0  0  0  0
 10 19  1  0  0  0  0
 10 20  1  0  0  0  0
M  END
> <Mol Weight>
276,11

> <Formula>
C7H6BrN3O2S

> <ID>
EN300-1618413

> <name>
Sulfonamides

> <LogP>
1,27

> <ROCS_ShapeQuery>
x0446_0A_x1080_0A_x0929_0A_x0812_0A_x0719_0A_x1140_0A_x0528_0A_x0310_0A

> <ROCS_TanimotoCombo>
0.358 

> <ROCS_ShapeTanimoto>
0.180 

> <ROCS_ColorTanimoto>
0.177 

> <ROCS_RefTversky>
0.168 

> <ROCS_RefColorTversky>
0.191 

> <ROCS_RefTverskyCombo>
0.359 

> <ROCS_FitTversky>
1.657 

> <ROCS_FitColorTversky>
0.718 

> <ROCS_FitTverskyCombo>
2.376 

> <ROCS_ColorScore>
-6.810

> <ROCS_Overlap>
1983.789

> <ROCS_Rank>
76                  

$$$$
untitled-dbase-2767_394
  -OEChem-02082415043D

 32 33  0     0  0  0  0  0  0999 V2000
   14.2436   16.7591   23.3385 C   0  0  0  0  0  0  0  0  0  0  0  0
   14.3315   15.3672   23.3241 C   0  0  0  0  0  0  0  0  0  0  0  0
   13.2908   17.4060   22.5514 C   0  0  0  0  0  0  0  0  0  0  0  0
    8.8917   10.0523   23.7128 C   0  0  0  0  0  0  0  0  0  0  0  0
    9.8083   10.7922   22.9658 C   0  0  0  0  0  0  0  0  0  0  0  0
   13.4668   14.6220   22.5225 C   0  0  0  0  0  0  0  0  0  0  0  0
   12.4260   16.6608   21.7498 C   0  0  0  0  0  0  0  0  0  0  0  0
    7.8912   10.7045   24.4335 C   0  0  0  0  0  0  0  0  0  0  0  0
    8.7241   12.8365   23.6603 C   0  0  0  0  0  0  0  0  0  0  0  0
    9.7245   12.1843   22.9395 C   0  0  0  0  0  0  0  0  0  0  0  0
   12.5140   15.2688   21.7353 C   0  0  0  0  0  0  0  0  0  0  0  0
    7.8075   12.0966   24.4073 C   0  0  0  0  0  0  0  0  0  0  0  0
   10.4590   14.1554   21.5657 C   0  0  0  0  0  0  0  0  0  0  0  0
    7.3388   13.1510   26.8101 N   0  0  0  0  0  0  0  0  0  0  0  0
   10.6411   12.9244   22.1922 N   0  0  0  0  0  0  0  0  0  0  0  0
    9.4383   14.8339   21.5522 O   0  0  0  0  0  0  0  0  0  0  0  0
    6.3159   14.2100   24.6941 O   0  0  0  0  0  0  0  0  0  0  0  0
    5.4473   11.9879   25.5038 O   0  0  0  0  0  0  0  0  0  0  0  0
   11.6477   14.5221   20.9300 O   0  0  0  0  0  0  0  0  0  0  0  0
    6.5557   12.9125   25.3103 S   0  0  0  0  0  0  0  0  0  0  0  0
   14.9163   17.3396   23.9630 H   0  0  0  0  0  0  0  0  0  0  0  0
   15.0735   14.8633   23.9368 H   0  0  0  0  0  0  0  0  0  0  0  0
   13.2227   18.4900   22.5633 H   0  0  0  0  0  0  0  0  0  0  0  0
    8.9562    8.9684   23.7330 H   0  0  0  0  0  0  0  0  0  0  0  0
   10.5832   10.2729   22.4076 H   0  0  0  0  0  0  0  0  0  0  0  0
   13.5415   13.5380   22.5146 H   0  0  0  0  0  0  0  0  0  0  0  0
   11.6870   17.1701   21.1373 H   0  0  0  0  0  0  0  0  0  0  0  0
    7.1825   10.1186   25.0126 H   0  0  0  0  0  0  0  0  0  0  0  0
    8.6581   13.9222   23.6402 H   0  0  0  0  0  0  0  0  0  0  0  0
    7.4980   12.3298   27.4066 H   0  0  0  0  0  0  0  0  0  0  0  0
    8.0909   13.8492   26.8556 H   0  0  0  0  0  0  0  0  0  0  0  0
   11.5721   12.5071   22.0906 H   0  0  0  0  0  0  0  0  0  0  0  0
  1  2  1  0  0  0  0
  1  3  2  0  0  0  0
  2  6  2  0  0  0  0
  3  7  1  0  0  0  0
  4  5  1  0  0  0  0
  4  8  2  0  0  0  0
  5 10  2  0  0  0  0
  6 11  1  0  0  0  0
  7 11  2  0  0  0  0
  8 12  1  0  0  0  0
  9 10  1  0  0  0  0
  9 12  2  0  0  0  0
 10 15  1  0  0  0  0
 11 19  1  0  0  0  0
 12 20  1  0  0  0  0
 13 15  1  0  0  0  0
 13 16  2  0  0  0  0
 13 19  1  0  0  0  0
 14 20  1  0  0  0  0
 17 20  2  0  0  0  0
 18 20  2  0  0  0  0
  1 21  1  0  0  0  0
  2 22  1  0  0  0  0
  3 23  1  0  0  0  0
  4 24  1  0  0  0  0
  5 25  1  0  0  0  0
  6 26  1  0  0  0  0
  7 27  1  0  0  0  0
  8 28  1  0  0  0  0
  9 29  1  0  0  0  0
 14 30  1  0  0  0  0
 14 31  1  0  0  0  0
 15 32  1  0  0  0  0
M  END
> <Mol Weight>
292,31

> <Formula>
C13H12N2O4S

> <ID>
EN300-39484

> <name>
Sulfonamides

> <LogP>
2,09

> <ROCS_ShapeQuery>
x0446_0A_x1080_0A_x0929_0A_x0812_0A_x0719_0A_x1140_0A_x0528_0A_x0310_0A

> <ROCS_TanimotoCombo>
0.357 

> <ROCS_ShapeTanimoto>
0.220 

> <ROCS_ColorTanimoto>
0.138 

> <ROCS_RefTversky>
0.202 

> <ROCS_RefColorTversky>
0.150 

> <ROCS_RefTverskyCombo>
0.352 

> <ROCS_FitTversky>
1.644 

> <ROCS_FitColorTversky>
0.628 

> <ROCS_FitTverskyCombo>
2.271 

> <ROCS_ColorScore>
-5.344

> <ROCS_Overlap>
2388.814

> <ROCS_Rank>
77                  

$$$$
untitled-dbase-554_46
  -OEChem-02082415043D

 21 21  0     0  0  0  0  0  0999 V2000
    9.3984   10.0228   23.5780 C   0  0  0  0  0  0  0  0  0  0  0  0
   10.1198   11.1919   23.4767 C   0  0  0  0  0  0  0  0  0  0  0  0
    7.5886   11.2043   24.3252 C   0  0  0  0  0  0  0  0  0  0  0  0
    8.3102   12.3733   24.2246 C   0  0  0  0  0  0  0  0  0  0  0  0
    7.6820   13.6955   24.5938 C   0  0  0  0  0  0  0  0  0  0  0  0
    8.2489   14.8664   23.8002 C   0  0  0  0  0  0  0  0  0  0  0  0
    8.1198   10.0080   24.0040 N   0  0  0  0  0  0  0  0  0  0  0  0
    9.5887   12.3882   23.7982 N   0  0  0  0  0  0  0  0  0  0  0  0
    6.3466   15.2531   21.9883 N   0  0  0  0  0  0  0  0  0  0  0  0
    8.8085   15.6909   21.3848 O   0  0  0  0  0  0  0  0  0  0  0  0
    8.0144   13.3143   21.7113 O   0  0  0  0  0  0  0  0  0  0  0  0
    7.9651   14.7226   22.0637 S   0  0  0  0  0  0  0  0  0  0  0  0
    9.8260    9.0619   23.3197 H   0  0  0  0  0  0  0  0  0  0  0  0
   11.1472   11.2030   23.1342 H   0  0  0  0  0  0  0  0  0  0  0  0
    6.5604   11.1847   24.6667 H   0  0  0  0  0  0  0  0  0  0  0  0
    7.8544   13.8768   25.6628 H   0  0  0  0  0  0  0  0  0  0  0  0
    6.5932   13.6480   24.4652 H   0  0  0  0  0  0  0  0  0  0  0  0
    7.7592   15.7960   24.1077 H   0  0  0  0  0  0  0  0  0  0  0  0
    9.3278   14.9827   23.9413 H   0  0  0  0  0  0  0  0  0  0  0  0
    5.6217   14.6328   22.3695 H   0  0  0  0  0  0  0  0  0  0  0  0
    6.1627   16.2514   22.1470 H   0  0  0  0  0  0  0  0  0  0  0  0
  1  2  2  0  0  0  0
  1  7  1  0  0  0  0
  2  8  1  0  0  0  0
  3  4  1  0  0  0  0
  3  7  2  0  0  0  0
  4  5  1  0  0  0  0
  4  8  2  0  0  0  0
  5  6  1  0  0  0  0
  6 12  1  0  0  0  0
  9 12  1  0  0  0  0
 10 12  2  0  0  0  0
 11 12  2  0  0  0  0
  1 13  1  0  0  0  0
  2 14  1  0  0  0  0
  3 15  1  0  0  0  0
  5 16  1  0  0  0  0
  5 17  1  0  0  0  0
  6 18  1  0  0  0  0
  6 19  1  0  0  0  0
  9 20  1  0  0  0  0
  9 21  1  0  0  0  0
M  END
> <Mol Weight>
187,22

> <Formula>
C6H9N3O2S

> <ID>
EN300-1120885

> <name>
Sulfonamides

> <LogP>
-1,78

> <ROCS_ShapeQuery>
x0446_0A_x1080_0A_x0929_0A_x0812_0A_x0719_0A_x1140_0A_x0528_0A_x0310_0A

> <ROCS_TanimotoCombo>
0.357 

> <ROCS_ShapeTanimoto>
0.181 

> <ROCS_ColorTanimoto>
0.176 

> <ROCS_RefTversky>
0.167 

> <ROCS_RefColorTversky>
0.182 

> <ROCS_RefTverskyCombo>
0.349 

> <ROCS_FitTversky>
1.810 

> <ROCS_FitColorTversky>
0.856 

> <ROCS_FitTverskyCombo>
2.666 

> <ROCS_ColorScore>
-6.477

> <ROCS_Overlap>
1972.635

> <ROCS_Rank>
78                  

$$$$
untitled-dbase-1254_0
  -OEChem-02082415043D

 21 22  0     0  0  0  0  0  0999 V2000
    7.3555   13.3711   24.4130 C   0  0  0  0  0  0  0  0  0  0  0  0
    6.3129   12.8635   25.1967 C   0  0  0  0  0  0  0  0  0  0  0  0
    6.8649   10.5868   24.5512 C   0  0  0  0  0  0  0  0  0  0  0  0
    9.6647   11.3815   22.3958 C   0  0  0  0  0  0  0  0  0  0  0  0
    8.1670   12.4774   23.6863 C   0  0  0  0  0  0  0  0  0  0  0  0
    7.9035   11.1087   23.7720 C   0  0  0  0  0  0  0  0  0  0  0  0
    6.0731   11.4924   25.2633 C   0  0  0  0  0  0  0  0  0  0  0  0
    9.2807   12.6345   22.8145 C   0  0  0  0  0  0  0  0  0  0  0  0
    8.8280   10.4677   22.9784 N   0  0  0  0  0  0  0  0  0  0  0  0
   11.2728   13.5735   21.3129 N   0  0  0  0  0  0  0  0  0  0  0  0
    9.0814   14.9080   21.5636 O   0  0  0  0  0  0  0  0  0  0  0  0
   10.6496   14.7326   23.5277 O   0  0  0  0  0  0  0  0  0  0  0  0
    5.0678   11.0338   26.0219 F   0  0  0  0  0  0  0  0  0  0  0  0
   10.0189   14.1035   22.3590 S   0  0  0  0  0  0  0  0  0  0  0  0
    7.5288   14.4426   24.3716 H   0  0  0  0  0  0  0  0  0  0  0  0
    5.6834   13.5479   25.7591 H   0  0  0  0  0  0  0  0  0  0  0  0
    6.6775    9.5198   24.6044 H   0  0  0  0  0  0  0  0  0  0  0  0
   10.4565   11.0559   21.7355 H   0  0  0  0  0  0  0  0  0  0  0  0
    8.8803    9.4673   22.8451 H   0  0  0  0  0  0  0  0  0  0  0  0
   12.0861   13.1009   21.7258 H   0  0  0  0  0  0  0  0  0  0  0  0
   11.0165   13.2219   20.3824 H   0  0  0  0  0  0  0  0  0  0  0  0
  1  2  2  0  0  0  0
  1  5  1  0  0  0  0
  2  7  1  0  0  0  0
  3  6  1  0  0  0  0
  3  7  2  0  0  0  0
  4  8  2  0  0  0  0
  4  9  1  0  0  0  0
  5  6  2  0  0  0  0
  5  8  1  0  0  0  0
  6  9  1  0  0  0  0
  7 13  1  0  0  0  0
  8 14  1  0  0  0  0
 10 14  1  0  0  0  0
 11 14  2  0  0  0  0
 12 14  2  0  0  0  0
  1 15  1  0  0  0  0
  2 16  1  0  0  0  0
  3 17  1  0  0  0  0
  4 18  1  0  0  0  0
  9 19  1  0  0  0  0
 10 20  1  0  0  0  0
 10 21  1  0  0  0  0
M  END
> <Mol Weight>
214,21

> <Formula>
C8H7FN2O2S

> <ID>
EN300-1275580

> <name>
Sulfonamides

> <LogP>
0,82

> <ROCS_ShapeQuery>
x0446_0A_x1080_0A_x0929_0A_x0812_0A_x0719_0A_x1140_0A_x0528_0A_x0310_0A

> <ROCS_TanimotoCombo>
0.357 

> <ROCS_ShapeTanimoto>
0.192 

> <ROCS_ColorTanimoto>
0.165 

> <ROCS_RefTversky>
0.177 

> <ROCS_RefColorTversky>
0.172 

> <ROCS_RefTverskyCombo>
0.350 

> <ROCS_FitTversky>
1.734 

> <ROCS_FitColorTversky>
0.809 

> <ROCS_FitTverskyCombo>
2.543 

> <ROCS_ColorScore>
-6.133

> <ROCS_Overlap>
2092.674

> <ROCS_Rank>
79                  

$$$$
untitled-dbase-1344_83
  -OEChem-02082415043D

 27 27  0     0  0  0  0  0  0999 V2000
    8.8661   10.2127   24.6924 C   0  0  0  0  0  0  0  0  0  0  0  0
    9.8339   10.4131   23.7082 C   0  0  0  0  0  0  0  0  0  0  0  0
    7.7459   11.0421   24.7483 C   0  0  0  0  0  0  0  0  0  0  0  0
    9.6816   11.4429   22.7798 C   0  0  0  0  0  0  0  0  0  0  0  0
    7.5937   12.0719   23.8199 C   0  0  0  0  0  0  0  0  0  0  0  0
    8.5615   12.2723   22.8356 C   0  0  0  0  0  0  0  0  0  0  0  0
    5.6351   15.0802   24.5369 C   0  0  0  0  0  0  0  0  0  0  0  0
    6.3857   12.9468   23.8982 C   0  0  0  0  0  0  0  0  0  0  0  0
    8.4206   13.3688   21.8313 C   0  0  0  0  0  0  0  0  0  0  0  0
   10.9860   13.5830   21.1804 N   0  0  0  0  0  0  0  0  0  0  0  0
    9.5070   15.6843   21.2974 O   0  0  0  0  0  0  0  0  0  0  0  0
   10.1483   14.4974   23.4341 O   0  0  0  0  0  0  0  0  0  0  0  0
    6.7530   14.2082   24.4413 O   0  0  0  0  0  0  0  0  0  0  0  0
    9.7921   14.4594   22.0257 S   0  0  0  0  0  0  0  0  0  0  0  0
    8.9854    9.4113   25.4155 H   0  0  0  0  0  0  0  0  0  0  0  0
   10.7060    9.7671   23.6655 H   0  0  0  0  0  0  0  0  0  0  0  0
    6.9983   10.8786   25.5201 H   0  0  0  0  0  0  0  0  0  0  0  0
   10.4409   11.5907   22.0163 H   0  0  0  0  0  0  0  0  0  0  0  0
    5.9535   16.0374   24.9570 H   0  0  0  0  0  0  0  0  0  0  0  0
    4.8714   14.6266   25.1737 H   0  0  0  0  0  0  0  0  0  0  0  0
    5.2241   15.2422   23.5376 H   0  0  0  0  0  0  0  0  0  0  0  0
    5.9434   13.1056   22.9060 H   0  0  0  0  0  0  0  0  0  0  0  0
    5.6137   12.4974   24.5363 H   0  0  0  0  0  0  0  0  0  0  0  0
    7.5034   13.9490   21.9779 H   0  0  0  0  0  0  0  0  0  0  0  0
    8.4311   12.9920   20.8030 H   0  0  0  0  0  0  0  0  0  0  0  0
   11.2989   13.9530   20.2744 H   0  0  0  0  0  0  0  0  0  0  0  0
   11.7355   13.1445   21.7297 H   0  0  0  0  0  0  0  0  0  0  0  0
  1  2  1  0  0  0  0
  1  3  2  0  0  0  0
  2  4  2  0  0  0  0
  3  5  1  0  0  0  0
  4  6  1  0  0  0  0
  5  6  2  0  0  0  0
  5  8  1  0  0  0  0
  6  9  1  0  0  0  0
  7 13  1  0  0  0  0
  8 13  1  0  0  0  0
  9 14  1  0  0  0  0
 10 14  1  0  0  0  0
 11 14  2  0  0  0  0
 12 14  2  0  0  0  0
  1 15  1  0  0  0  0
  2 16  1  0  0  0  0
  3 17  1  0  0  0  0
  4 18  1  0  0  0  0
  7 19  1  0  0  0  0
  7 20  1  0  0  0  0
  7 21  1  0  0  0  0
  8 22  1  0  0  0  0
  8 23  1  0  0  0  0
  9 24  1  0  0  0  0
  9 25  1  0  0  0  0
 10 26  1  0  0  0  0
 10 27  1  0  0  0  0
M  END
> <Mol Weight>
215,27

> <Formula>
C9H13NO3S

> <ID>
EN300-213965

> <name>
Sulfonamides

> <LogP>
0,22

> <ROCS_ShapeQuery>
x0446_0A_x1080_0A_x0929_0A_x0812_0A_x0719_0A_x1140_0A_x0528_0A_x0310_0A

> <ROCS_TanimotoCombo>
0.357 

> <ROCS_ShapeTanimoto>
0.188 

> <ROCS_ColorTanimoto>
0.169 

> <ROCS_RefTversky>
0.174 

> <ROCS_RefColorTversky>
0.172 

> <ROCS_RefTverskyCombo>
0.346 

> <ROCS_FitTversky>
1.754 

> <ROCS_FitColorTversky>
0.924 

> <ROCS_FitTverskyCombo>
2.678 

> <ROCS_ColorScore>
-6.111

> <ROCS_Overlap>
2049.882

> <ROCS_Rank>
80                  

$$$$
untitled-dbase-1626_42
  -OEChem-02082415043D

 29 30  0     0  0  0  0  0  0999 V2000
    5.8002   12.0312   25.4151 C   0  0  0  0  0  0  0  0  0  0  0  0
    6.6641   10.9624   25.1710 C   0  0  0  0  0  0  0  0  0  0  0  0
    6.0556   13.2774   24.8502 C   0  0  0  0  0  0  0  0  0  0  0  0
    8.0596   12.3939   23.8090 C   0  0  0  0  0  0  0  0  0  0  0  0
    7.7927   11.1213   24.3539 C   0  0  0  0  0  0  0  0  0  0  0  0
    7.1800   13.4593   24.0478 C   0  0  0  0  0  0  0  0  0  0  0  0
    9.2689   12.6055   22.9310 C   0  0  0  0  0  0  0  0  0  0  0  0
   10.3346   11.5404   23.1887 C   0  0  0  0  0  0  0  0  0  0  0  0
    9.7106   10.1503   23.1540 C   0  0  0  0  0  0  0  0  0  0  0  0
    6.5997   16.1420   21.3341 C   0  0  0  0  0  0  0  0  0  0  0  0
    8.6476   10.0473   24.1350 N   0  0  0  0  0  0  0  0  0  0  0  0
    7.4092   14.7560   23.4864 N   0  0  0  0  0  0  0  0  0  0  0  0
    9.0773   15.4085   21.6354 O   0  0  0  0  0  0  0  0  0  0  0  0
    7.3543   13.6458   21.1168 O   0  0  0  0  0  0  0  0  0  0  0  0
    7.7434   14.8623   21.8021 S   0  0  0  0  0  0  0  0  0  0  0  0
    4.9291   11.8902   26.0487 H   0  0  0  0  0  0  0  0  0  0  0  0
    6.4528    9.9996   25.6313 H   0  0  0  0  0  0  0  0  0  0  0  0
    5.3716   14.1001   25.0423 H   0  0  0  0  0  0  0  0  0  0  0  0
    8.9961   12.5621   21.8704 H   0  0  0  0  0  0  0  0  0  0  0  0
    9.6804   13.6011   23.1366 H   0  0  0  0  0  0  0  0  0  0  0  0
   11.1265   11.6077   22.4318 H   0  0  0  0  0  0  0  0  0  0  0  0
   10.8068   11.7173   24.1616 H   0  0  0  0  0  0  0  0  0  0  0  0
    9.3037    9.9477   22.1579 H   0  0  0  0  0  0  0  0  0  0  0  0
   10.4709    9.3873   23.3582 H   0  0  0  0  0  0  0  0  0  0  0  0
    6.7024   16.3207   20.2626 H   0  0  0  0  0  0  0  0  0  0  0  0
    5.5895   15.8043   21.5704 H   0  0  0  0  0  0  0  0  0  0  0  0
    6.8432   17.0441   21.8974 H   0  0  0  0  0  0  0  0  0  0  0  0
    8.6742    9.2945   24.8125 H   0  0  0  0  0  0  0  0  0  0  0  0
    7.9799   15.3768   24.0812 H   0  0  0  0  0  0  0  0  0  0  0  0
  1  2  1  0  0  0  0
  1  3  2  0  0  0  0
  2  5  2  0  0  0  0
  3  6  1  0  0  0  0
  4  5  1  0  0  0  0
  4  6  2  0  0  0  0
  4  7  1  0  0  0  0
  5 11  1  0  0  0  0
  6 12  1  0  0  0  0
  7  8  1  0  0  0  0
  8  9  1  0  0  0  0
  9 11  1  0  0  0  0
 10 15  1  0  0  0  0
 12 15  1  0  0  0  0
 13 15  2  0  0  0  0
 14 15  2  0  0  0  0
  1 16  1  0  0  0  0
  2 17  1  0  0  0  0
  3 18  1  0  0  0  0
  7 19  1  0  0  0  0
  7 20  1  0  0  0  0
  8 21  1  0  0  0  0
  8 22  1  0  0  0  0
  9 23  1  0  0  0  0
  9 24  1  0  0  0  0
 10 25  1  0  0  0  0
 10 26  1  0  0  0  0
 10 27  1  0  0  0  0
 11 28  1  0  0  0  0
 12 29  1  0  0  0  0
M  END
> <Mol Weight>
226,29

> <Formula>
C10H14N2O2S

> <ID>
EN300-43134

> <name>
Sulfonamides

> <LogP>
0,30

> <ROCS_ShapeQuery>
x0446_0A_x1080_0A_x0929_0A_x0812_0A_x0719_0A_x1140_0A_x0528_0A_x0310_0A

> <ROCS_TanimotoCombo>
0.357 

> <ROCS_ShapeTanimoto>
0.207 

> <ROCS_ColorTanimoto>
0.150 

> <ROCS_RefTversky>
0.190 

> <ROCS_RefColorTversky>
0.158 

> <ROCS_RefTverskyCombo>
0.347 

> <ROCS_FitTversky>
1.819 

> <ROCS_FitColorTversky>
0.743 

> <ROCS_FitTverskyCombo>
2.562 

> <ROCS_ColorScore>
-5.620

> <ROCS_Overlap>
2236.922

> <ROCS_Rank>
81                  

$$$$
untitled-dbase-2829_2544
  -OEChem-02082415043D

 38 39  0     1  0  0  0  0  0999 V2000
   12.7724   15.1688   21.9994 C   0  0  0  0  0  0  0  0  0  0  0  0
   13.2033   14.5076   23.1495 C   0  0  0  0  0  0  0  0  0  0  0  0
   11.7058   14.6581   21.2596 C   0  0  0  0  0  0  0  0  0  0  0  0
   12.5678   13.3357   23.5598 C   0  0  0  0  0  0  0  0  0  0  0  0
   11.0702   13.4863   21.6699 C   0  0  0  0  0  0  0  0  0  0  0  0
   11.5011   12.8250   22.8200 C   0  0  0  0  0  0  0  0  0  0  0  0
    8.5590   10.9376   23.6504 C   0  0  0  0  0  0  0  0  0  0  0  0
    5.6388   12.4809   25.3087 C   0  0  0  0  0  0  0  0  0  0  0  0
    6.5740   13.6748   25.1367 C   0  0  0  0  0  0  0  0  0  0  0  0
    6.5462   11.2860   25.0671 C   0  0  0  0  0  0  0  0  0  0  0  0
    7.5270   13.2329   24.0231 C   0  0  2  0  0  0  0  0  0  0  0  0
   10.8171   11.5643   23.2607 C   0  0  0  0  0  0  0  0  0  0  0  0
    7.0037   13.6196   22.6407 C   0  0  0  0  0  0  0  0  0  0  0  0
    7.5917   11.7769   24.1824 N   0  0  0  0  0  0  0  0  0  0  0  0
    6.1749   15.5852   21.0594 N   0  0  0  0  0  0  0  0  0  0  0  0
    8.6201    9.7302   23.8724 O   0  0  0  0  0  0  0  0  0  0  0  0
    6.9330   16.0986   23.4633 O   0  0  0  0  0  0  0  0  0  0  0  0
    8.6523   15.4333   21.7350 O   0  0  0  0  0  0  0  0  0  0  0  0
    9.4454   11.6096   22.8524 O   0  0  0  0  0  0  0  0  0  0  0  0
    7.3162   15.3154   22.2986 S   0  0  0  0  0  0  0  0  0  0  0  0
   13.2666   16.0820   21.6808 H   0  0  0  0  0  0  0  0  0  0  0  0
   14.0331   14.9057   23.7262 H   0  0  0  0  0  0  0  0  0  0  0  0
   11.3693   15.1733   20.3648 H   0  0  0  0  0  0  0  0  0  0  0  0
   12.9105   12.8272   24.4571 H   0  0  0  0  0  0  0  0  0  0  0  0
   10.2401   13.0957   21.0872 H   0  0  0  0  0  0  0  0  0  0  0  0
    5.1731   12.4588   26.2978 H   0  0  0  0  0  0  0  0  0  0  0  0
    4.8443   12.5120   24.5545 H   0  0  0  0  0  0  0  0  0  0  0  0
    6.0291   14.5950   24.9066 H   0  0  0  0  0  0  0  0  0  0  0  0
    7.1370   13.8338   26.0646 H   0  0  0  0  0  0  0  0  0  0  0  0
    7.0226   10.9493   25.9955 H   0  0  0  0  0  0  0  0  0  0  0  0
    6.0215   10.4381   24.6144 H   0  0  0  0  0  0  0  0  0  0  0  0
    8.5245   13.6585   24.1617 H   0  0  0  0  0  0  0  0  0  0  0  0
   11.2933   10.6841   22.8156 H   0  0  0  0  0  0  0  0  0  0  0  0
   10.8645   11.4579   24.3498 H   0  0  0  0  0  0  0  0  0  0  0  0
    5.9281   13.4630   22.5880 H   0  0  0  0  0  0  0  0  0  0  0  0
    7.4983   13.0290   21.8722 H   0  0  0  0  0  0  0  0  0  0  0  0
    5.3590   16.1689   21.2811 H   0  0  0  0  0  0  0  0  0  0  0  0
    6.5299   15.7156   20.1041 H   0  0  0  0  0  0  0  0  0  0  0  0
  1  2  1  0  0  0  0
  1  3  2  0  0  0  0
  2  4  2  0  0  0  0
  3  5  1  0  0  0  0
  4  6  1  0  0  0  0
  5  6  2  0  0  0  0
  6 12  1  0  0  0  0
  7 14  1  0  0  0  0
  7 16  2  0  0  0  0
  7 19  1  0  0  0  0
  8  9  1  0  0  0  0
  8 10  1  0  0  0  0
  9 11  1  0  0  0  0
 10 14  1  0  0  0  0
 11 13  1  0  0  0  0
 11 14  1  0  0  0  0
 12 19  1  0  0  0  0
 13 20  1  0  0  0  0
 15 20  1  0  0  0  0
 17 20  2  0  0  0  0
 18 20  2  0  0  0  0
  1 21  1  0  0  0  0
  2 22  1  0  0  0  0
  3 23  1  0  0  0  0
  4 24  1  0  0  0  0
  5 25  1  0  0  0  0
  8 26  1  0  0  0  0
  8 27  1  0  0  0  0
  9 28  1  0  0  0  0
  9 29  1  0  0  0  0
 10 30  1  0  0  0  0
 10 31  1  0  0  0  0
 11 32  1  0  0  0  0
 12 33  1  0  0  0  0
 12 34  1  0  0  0  0
 13 35  1  0  0  0  0
 13 36  1  0  0  0  0
 15 37  1  0  0  0  0
 15 38  1  0  0  0  0
M  END
> <Mol Weight>
298,36

> <Formula>
C13H18N2O4S

> <ID>
EN300-349369

> <name>
Sulfonamides

> <LogP>
0,67

> <ROCS_ShapeQuery>
x0446_0A_x1080_0A_x0929_0A_x0812_0A_x0719_0A_x1140_0A_x0528_0A_x0310_0A

> <ROCS_TanimotoCombo>
0.357 

> <ROCS_ShapeTanimoto>
0.237 

> <ROCS_ColorTanimoto>
0.119 

> <ROCS_RefTversky>
0.215 

> <ROCS_RefColorTversky>
0.129 

> <ROCS_RefTverskyCombo>
0.344 

> <ROCS_FitTversky>
1.771 

> <ROCS_FitColorTversky>
0.608 

> <ROCS_FitTverskyCombo>
2.379 

> <ROCS_ColorScore>
-4.601

> <ROCS_Overlap>
2540.683

> <ROCS_Rank>
82                  

$$$$
untitled-dbase-1361_17
  -OEChem-02082415043D

 22 22  0     0  0  0  0  0  0999 V2000
    7.8793   10.2725   23.9744 C   0  0  0  0  0  0  0  0  0  0  0  0
    9.2625   10.1071   23.9041 C   0  0  0  0  0  0  0  0  0  0  0  0
    7.3219   11.5453   23.8512 C   0  0  0  0  0  0  0  0  0  0  0  0
   10.0884   11.2143   23.7107 C   0  0  0  0  0  0  0  0  0  0  0  0
    8.1478   12.6526   23.6578 C   0  0  0  0  0  0  0  0  0  0  0  0
    9.5311   12.4871   23.5875 C   0  0  0  0  0  0  0  0  0  0  0  0
    7.5189   14.0026   23.5313 C   0  0  0  0  0  0  0  0  0  0  0  0
    6.3899   15.6755   21.8056 N   0  0  0  0  0  0  0  0  0  0  0  0
   10.3926   13.6020   23.3928 N   0  3  0  0  0  0  0  0  0  0  0  0
   10.6885   13.9419   22.2229 O   0  5  0  0  0  0  0  0  0  0  0  0
   10.8308   14.2115   24.3970 O   0  0  0  0  0  0  0  0  0  0  0  0
    8.8943   15.1211   21.6118 O   0  0  0  0  0  0  0  0  0  0  0  0
    7.1834   13.3576   21.0214 O   0  0  0  0  0  0  0  0  0  0  0  0
    7.6083   14.4827   21.8375 S   0  0  0  0  0  0  0  0  0  0  0  0
    7.2360    9.4104   24.1248 H   0  0  0  0  0  0  0  0  0  0  0  0
    9.6965    9.1162   24.0017 H   0  0  0  0  0  0  0  0  0  0  0  0
    6.2428   11.6626   23.9062 H   0  0  0  0  0  0  0  0  0  0  0  0
   11.1650   11.0705   23.6591 H   0  0  0  0  0  0  0  0  0  0  0  0
    8.0412   14.7587   24.1261 H   0  0  0  0  0  0  0  0  0  0  0  0
    6.4647   13.9961   23.8265 H   0  0  0  0  0  0  0  0  0  0  0  0
    5.4139   15.3638   21.8821 H   0  0  0  0  0  0  0  0  0  0  0  0
    6.5793   16.5648   22.2840 H   0  0  0  0  0  0  0  0  0  0  0  0
  1  2  1  0  0  0  0
  1  3  2  0  0  0  0
  2  4  2  0  0  0  0
  3  5  1  0  0  0  0
  4  6  1  0  0  0  0
  5  6  2  0  0  0  0
  5  7  1  0  0  0  0
  6  9  1  0  0  0  0
  7 14  1  0  0  0  0
  8 14  1  0  0  0  0
  9 10  1  0  0  0  0
  9 11  2  0  0  0  0
 12 14  2  0  0  0  0
 13 14  2  0  0  0  0
  1 15  1  0  0  0  0
  2 16  1  0  0  0  0
  3 17  1  0  0  0  0
  4 18  1  0  0  0  0
  7 19  1  0  0  0  0
  7 20  1  0  0  0  0
  8 21  1  0  0  0  0
  8 22  1  0  0  0  0
M  CHG  2   9   1  10  -1
M  END
> <Mol Weight>
216,21

> <Formula>
C7H8N2O4S

> <ID>
EN300-108163

> <name>
Sulfonamides

> <LogP>
0,28

> <ROCS_ShapeQuery>
x0446_0A_x1080_0A_x0929_0A_x0812_0A_x0719_0A_x1140_0A_x0528_0A_x0310_0A

> <ROCS_TanimotoCombo>
0.357 

> <ROCS_ShapeTanimoto>
0.199 

> <ROCS_ColorTanimoto>
0.158 

> <ROCS_RefTversky>
0.182 

> <ROCS_RefColorTversky>
0.165 

> <ROCS_RefTverskyCombo>
0.348 

> <ROCS_FitTversky>
1.814 

> <ROCS_FitColorTversky>
0.778 

> <ROCS_FitTverskyCombo>
2.592 

> <ROCS_ColorScore>
-5.893

> <ROCS_Overlap>
2151.415

> <ROCS_Rank>
83                  

$$$$
untitled-dbase-2414_15
  -OEChem-02082415043D

 27 27  0     0  0  0  0  0  0999 V2000
    8.9077   10.0595   23.7000 C   0  0  0  0  0  0  0  0  0  0  0  0
    7.9071   10.7211   24.4118 C   0  0  0  0  0  0  0  0  0  0  0  0
    8.7715   12.8455   23.6519 C   0  0  0  0  0  0  0  0  0  0  0  0
    9.8402   10.7907   22.9642 C   0  0  0  0  0  0  0  0  0  0  0  0
    9.7721   12.1837   22.9401 C   0  0  0  0  0  0  0  0  0  0  0  0
    7.8390   12.1141   24.3877 C   0  0  0  0  0  0  0  0  0  0  0  0
   10.4613   14.1676   21.6165 C   0  0  0  0  0  0  0  0  0  0  0  0
   10.9010   10.0553   22.2115 C   0  0  0  0  0  0  0  0  0  0  0  0
   11.6879   14.6897   20.9049 C   0  0  0  0  0  0  0  0  0  0  0  0
    7.3558   13.1684   26.7877 N   0  0  0  0  0  0  0  0  0  0  0  0
   10.6969   12.9335   22.2090 N   0  0  0  0  0  0  0  0  0  0  0  0
    9.4175   14.8144   21.6030 O   0  0  0  0  0  0  0  0  0  0  0  0
    6.3675   14.2430   24.6631 O   0  0  0  0  0  0  0  0  0  0  0  0
    5.4660   12.0288   25.4583 O   0  0  0  0  0  0  0  0  0  0  0  0
    6.5863   12.9418   25.2790 S   0  0  0  0  0  0  0  0  0  0  0  0
   12.6204   15.6463   22.0673 Cl  0  0  0  0  0  0  0  0  0  0  0  0
    8.9522    8.9738   23.7252 H   0  0  0  0  0  0  0  0  0  0  0  0
    7.1858   10.1417   24.9818 H   0  0  0  0  0  0  0  0  0  0  0  0
    8.7172   13.9317   23.6340 H   0  0  0  0  0  0  0  0  0  0  0  0
   10.5554    9.8244   21.1975 H   0  0  0  0  0  0  0  0  0  0  0  0
   11.8204   10.6492   22.1415 H   0  0  0  0  0  0  0  0  0  0  0  0
   11.1641    9.1166   22.7142 H   0  0  0  0  0  0  0  0  0  0  0  0
   11.4430   15.3193   20.0458 H   0  0  0  0  0  0  0  0  0  0  0  0
   12.2971   13.8478   20.5641 H   0  0  0  0  0  0  0  0  0  0  0  0
    7.4997   12.3442   27.3839 H   0  0  0  0  0  0  0  0  0  0  0  0
    8.1150   13.8582   26.8427 H   0  0  0  0  0  0  0  0  0  0  0  0
   11.6286   12.5394   22.1006 H   0  0  0  0  0  0  0  0  0  0  0  0
  1  2  2  0  0  0  0
  1  4  1  0  0  0  0
  2  6  1  0  0  0  0
  3  5  1  0  0  0  0
  3  6  2  0  0  0  0
  4  5  2  0  0  0  0
  4  8  1  0  0  0  0
  5 11  1  0  0  0  0
  6 15  1  0  0  0  0
  7  9  1  0  0  0  0
  7 11  1  0  0  0  0
  7 12  2  0  0  0  0
  9 16  1  0  0  0  0
 10 15  1  0  0  0  0
 13 15  2  0  0  0  0
 14 15  2  0  0  0  0
  1 17  1  0  0  0  0
  2 18  1  0  0  0  0
  3 19  1  0  0  0  0
  8 20  1  0  0  0  0
  8 21  1  0  0  0  0
  8 22  1  0  0  0  0
  9 23  1  0  0  0  0
  9 24  1  0  0  0  0
 10 25  1  0  0  0  0
 10 26  1  0  0  0  0
 11 27  1  0  0  0  0
M  END
> <Mol Weight>
262,71

> <Formula>
C9H11ClN2O3S

> <ID>
EN300-107669

> <name>
Sulfonamides

> <LogP>
0,87

> <ROCS_ShapeQuery>
x0446_0A_x1080_0A_x0929_0A_x0812_0A_x0719_0A_x1140_0A_x0528_0A_x0310_0A

> <ROCS_TanimotoCombo>
0.357 

> <ROCS_ShapeTanimoto>
0.217 

> <ROCS_ColorTanimoto>
0.140 

> <ROCS_RefTversky>
0.197 

> <ROCS_RefColorTversky>
0.149 

> <ROCS_RefTverskyCombo>
0.346 

> <ROCS_FitTversky>
1.857 

> <ROCS_FitColorTversky>
0.701 

> <ROCS_FitTverskyCombo>
2.558 

> <ROCS_ColorScore>
-5.302

> <ROCS_Overlap>
2323.772

> <ROCS_Rank>
84                  

$$$$
untitled-dbase-1495_14
  -OEChem-02082415043D

 29 29  0     1  0  0  0  0  0999 V2000
    7.0373   13.7921   23.1673 C   0  0  0  0  0  0  0  0  0  0  0  0
    8.6483   10.6907   24.7795 C   0  0  0  0  0  0  0  0  0  0  0  0
    9.3041   10.1940   23.4897 C   0  0  0  0  0  0  0  0  0  0  0  0
    8.0919   12.1135   24.6745 C   0  0  0  0  0  0  0  0  0  0  0  0
   10.0035   11.3231   22.7433 C   0  0  0  0  0  0  0  0  0  0  0  0
    7.7749   12.4879   23.2280 C   0  0  2  0  0  0  0  0  0  0  0  0
    9.0384   12.4563   22.3473 C   0  0  1  0  0  0  0  0  0  0  0  0
    5.9805   15.2857   21.6719 C   0  0  0  0  0  0  0  0  0  0  0  0
   11.1094   13.6269   21.1534 N   0  0  0  0  0  0  0  0  0  0  0  0
    6.7935   14.4875   24.1441 O   0  0  0  0  0  0  0  0  0  0  0  0
    9.0510   15.0211   21.8135 O   0  0  0  0  0  0  0  0  0  0  0  0
   10.5870   14.1445   23.6184 O   0  0  0  0  0  0  0  0  0  0  0  0
    6.6946   14.0624   21.8756 O   0  0  0  0  0  0  0  0  0  0  0  0
    9.9350   13.9946   22.3315 S   0  0  0  0  0  0  0  0  0  0  0  0
    7.8354   10.0020   25.0625 H   0  0  0  0  0  0  0  0  0  0  0  0
    9.3827   10.6412   25.6010 H   0  0  0  0  0  0  0  0  0  0  0  0
   10.0242    9.4041   23.7262 H   0  0  0  0  0  0  0  0  0  0  0  0
    8.5388    9.7476   22.8446 H   0  0  0  0  0  0  0  0  0  0  0  0
    7.1771   12.1769   25.2686 H   0  0  0  0  0  0  0  0  0  0  0  0
    8.8115   12.8116   25.1065 H   0  0  0  0  0  0  0  0  0  0  0  0
   10.8232   11.7239   23.3598 H   0  0  0  0  0  0  0  0  0  0  0  0
   10.4858   10.9189   21.8395 H   0  0  0  0  0  0  0  0  0  0  0  0
    7.0617   11.7336   22.8264 H   0  0  0  0  0  0  0  0  0  0  0  0
    8.7448   12.2988   21.3133 H   0  0  0  0  0  0  0  0  0  0  0  0
    5.7561   15.4049   20.6091 H   0  0  0  0  0  0  0  0  0  0  0  0
    6.5857   16.1249   22.0239 H   0  0  0  0  0  0  0  0  0  0  0  0
    5.0463   15.2503   22.2374 H   0  0  0  0  0  0  0  0  0  0  0  0
   11.8480   12.9584   21.4048 H   0  0  0  0  0  0  0  0  0  0  0  0
   10.8018   13.5557   20.1757 H   0  0  0  0  0  0  0  0  0  0  0  0
  1  6  1  6  0  0  0
  1 10  2  0  0  0  0
  1 13  1  0  0  0  0
  2  3  1  0  0  0  0
  2  4  1  0  0  0  0
  3  5  1  0  0  0  0
  4  6  1  0  0  0  0
  5  7  1  0  0  0  0
  6  7  1  0  0  0  0
  7 14  1  6  0  0  0
  8 13  1  0  0  0  0
  9 14  1  0  0  0  0
 11 14  2  0  0  0  0
 12 14  2  0  0  0  0
  2 15  1  0  0  0  0
  2 16  1  0  0  0  0
  3 17  1  0  0  0  0
  3 18  1  0  0  0  0
  4 19  1  0  0  0  0
  4 20  1  0  0  0  0
  5 21  1  0  0  0  0
  5 22  1  0  0  0  0
  6 23  1  0  0  0  0
  7 24  1  0  0  0  0
  8 25  1  0  0  0  0
  8 26  1  0  0  0  0
  8 27  1  0  0  0  0
  9 28  1  0  0  0  0
  9 29  1  0  0  0  0
M  END
> <Mol Weight>
221,27

> <Formula>
C8H15NO4S

> <ID>
EN300-735809

> <name>
Sulfonamides

> <LogP>
0,09

> <ROCS_ShapeQuery>
x0446_0A_x1080_0A_x0929_0A_x0812_0A_x0719_0A_x1140_0A_x0528_0A_x0310_0A

> <ROCS_TanimotoCombo>
0.356 

> <ROCS_ShapeTanimoto>
0.192 

> <ROCS_ColorTanimoto>
0.164 

> <ROCS_RefTversky>
0.177 

> <ROCS_RefColorTversky>
0.167 

> <ROCS_RefTverskyCombo>
0.344 

> <ROCS_FitTversky>
1.790 

> <ROCS_FitColorTversky>
0.901 

> <ROCS_FitTverskyCombo>
2.691 

> <ROCS_ColorScore>
-5.957

> <ROCS_Overlap>
2087.192

> <ROCS_Rank>
85                  

$$$$
untitled-dbase-891_0
  -OEChem-02082415043D

 20 21  0     0  0  0  0  0  0999 V2000
    7.0200   11.6277   21.1199 C   0  0  0  0  0  0  0  0  0  0  0  0
    7.1476   10.6442   22.1036 C   0  0  0  0  0  0  0  0  0  0  0  0
    7.8569   12.7574   21.1245 C   0  0  0  0  0  0  0  0  0  0  0  0
    8.1172   10.8255   23.0683 C   0  0  0  0  0  0  0  0  0  0  0  0
    8.9365   11.9312   23.0728 C   0  0  0  0  0  0  0  0  0  0  0  0
    8.8310   12.9167   22.1130 C   0  0  0  0  0  0  0  0  0  0  0  0
    9.4670   10.6750   24.7528 C   0  0  0  0  0  0  0  0  0  0  0  0
   11.1727   13.7643   21.1626 N   0  0  0  0  0  0  0  0  0  0  0  0
    9.1940   15.3974   21.4145 O   0  0  0  0  0  0  0  0  0  0  0  0
   10.3494   14.5327   23.4797 O   0  0  0  0  0  0  0  0  0  0  0  0
    8.3868    9.9783   24.0986 O   0  0  0  0  0  0  0  0  0  0  0  0
    9.8213   11.9149   24.1067 O   0  0  0  0  0  0  0  0  0  0  0  0
    9.8685   14.3153   22.1208 S   0  0  0  0  0  0  0  0  0  0  0  0
    6.2675   11.5202   20.3432 H   0  0  0  0  0  0  0  0  0  0  0  0
    6.5036    9.7720   22.1045 H   0  0  0  0  0  0  0  0  0  0  0  0
    7.7355   13.5071   20.3461 H   0  0  0  0  0  0  0  0  0  0  0  0
    9.1708   10.8901   25.7859 H   0  0  0  0  0  0  0  0  0  0  0  0
   10.3477   10.0226   24.7672 H   0  0  0  0  0  0  0  0  0  0  0  0
   11.2776   14.1564   20.2188 H   0  0  0  0  0  0  0  0  0  0  0  0
   12.0650   13.5645   21.6307 H   0  0  0  0  0  0  0  0  0  0  0  0
  1  2  1  0  0  0  0
  1  3  2  0  0  0  0
  2  4  2  0  0  0  0
  3  6  1  0  0  0  0
  4  5  1  0  0  0  0
  4 11  1  0  0  0  0
  5  6  2  0  0  0  0
  5 12  1  0  0  0  0
  6 13  1  0  0  0  0
  7 11  1  0  0  0  0
  7 12  1  0  0  0  0
  8 13  1  0  0  0  0
  9 13  2  0  0  0  0
 10 13  2  0  0  0  0
  1 14  1  0  0  0  0
  2 15  1  0  0  0  0
  3 16  1  0  0  0  0
  7 17  1  0  0  0  0
  7 18  1  0  0  0  0
  8 19  1  0  0  0  0
  8 20  1  0  0  0  0
M  END
> <Mol Weight>
201,20

> <Formula>
C7H7NO4S

> <ID>
EN300-372006

> <name>
Sulfonamides

> <LogP>
0,20

> <ROCS_ShapeQuery>
x0446_0A_x1080_0A_x0929_0A_x0812_0A_x0719_0A_x1140_0A_x0528_0A_x0310_0A

> <ROCS_TanimotoCombo>
0.356 

> <ROCS_ShapeTanimoto>
0.151 

> <ROCS_ColorTanimoto>
0.205 

> <ROCS_RefTversky>
0.144 

> <ROCS_RefColorTversky>
0.211 

> <ROCS_RefTverskyCombo>
0.355 

> <ROCS_FitTversky>
1.457 

> <ROCS_FitColorTversky>
0.881 

> <ROCS_FitTverskyCombo>
2.338 

> <ROCS_ColorScore>
-7.524

> <ROCS_Overlap>
1701.595

> <ROCS_Rank>
86                  

$$$$
untitled-dbase-1783_2
  -OEChem-02082415043D

 20 21  0     0  0  0  0  0  0999 V2000
    7.3966   13.2833   24.3874 C   0  0  0  0  0  0  0  0  0  0  0  0
    6.3962   12.6790   25.1466 C   0  0  0  0  0  0  0  0  0  0  0  0
    9.7396   11.4034   22.3098 C   0  0  0  0  0  0  0  0  0  0  0  0
    8.2363   12.4522   23.6285 C   0  0  0  0  0  0  0  0  0  0  0  0
    9.3359   12.6452   22.7510 C   0  0  0  0  0  0  0  0  0  0  0  0
    8.0063   11.0809   23.6910 C   0  0  0  0  0  0  0  0  0  0  0  0
    6.2787   11.2959   25.1166 C   0  0  0  0  0  0  0  0  0  0  0  0
    7.0572   10.4474   24.4057 N   0  0  0  0  0  0  0  0  0  0  0  0
    8.9262   10.4623   22.8858 N   0  0  0  0  0  0  0  0  0  0  0  0
   11.2957   13.6470   21.2475 N   0  0  0  0  0  0  0  0  0  0  0  0
    9.0809   14.9337   21.5382 O   0  0  0  0  0  0  0  0  0  0  0  0
   10.6697   14.7584   23.4857 O   0  0  0  0  0  0  0  0  0  0  0  0
   10.0410   14.1353   22.3127 S   0  0  0  0  0  0  0  0  0  0  0  0
    5.0560   10.5129   26.0405 Cl  0  0  0  0  0  0  0  0  0  0  0  0
    7.5151   14.3620   24.3890 H   0  0  0  0  0  0  0  0  0  0  0  0
    5.7293   13.2918   25.7451 H   0  0  0  0  0  0  0  0  0  0  0  0
   10.5318   11.1036   21.6379 H   0  0  0  0  0  0  0  0  0  0  0  0
    8.9940    9.4646   22.7397 H   0  0  0  0  0  0  0  0  0  0  0  0
   12.1219   13.1842   21.6458 H   0  0  0  0  0  0  0  0  0  0  0  0
   11.0382   13.3051   20.3136 H   0  0  0  0  0  0  0  0  0  0  0  0
  1  2  2  0  0  0  0
  1  4  1  0  0  0  0
  2  7  1  0  0  0  0
  3  5  2  0  0  0  0
  3  9  1  0  0  0  0
  4  5  1  0  0  0  0
  4  6  2  0  0  0  0
  5 13  1  0  0  0  0
  6  8  1  0  0  0  0
  6  9  1  0  0  0  0
  7  8  2  0  0  0  0
  7 14  1  0  0  0  0
 10 13  1  0  0  0  0
 11 13  2  0  0  0  0
 12 13  2  0  0  0  0
  1 15  1  0  0  0  0
  2 16  1  0  0  0  0
  3 17  1  0  0  0  0
  9 18  1  0  0  0  0
 10 19  1  0  0  0  0
 10 20  1  0  0  0  0
M  END
> <Mol Weight>
231,65

> <Formula>
C7H6ClN3O2S

> <ID>
EN300-27733780

> <name>
Sulfonamides

> <LogP>
0,65

> <ROCS_ShapeQuery>
x0446_0A_x1080_0A_x0929_0A_x0812_0A_x0719_0A_x1140_0A_x0528_0A_x0310_0A

> <ROCS_TanimotoCombo>
0.356 

> <ROCS_ShapeTanimoto>
0.193 

> <ROCS_ColorTanimoto>
0.163 

> <ROCS_RefTversky>
0.178 

> <ROCS_RefColorTversky>
0.174 

> <ROCS_RefTverskyCombo>
0.352 

> <ROCS_FitTversky>
1.745 

> <ROCS_FitColorTversky>
0.728 

> <ROCS_FitTverskyCombo>
2.473 

> <ROCS_ColorScore>
-6.212

> <ROCS_Overlap>
2098.105

> <ROCS_Rank>
87                  

$$$$
untitled-dbase-1756_0
  -OEChem-02082415043D

 21 22  0     0  0  0  0  0  0999 V2000
    7.3546   13.3707   24.4125 C   0  0  0  0  0  0  0  0  0  0  0  0
    6.3119   12.8626   25.1958 C   0  0  0  0  0  0  0  0  0  0  0  0
    6.8644   10.5862   24.5500 C   0  0  0  0  0  0  0  0  0  0  0  0
    9.6647   11.3818   22.3954 C   0  0  0  0  0  0  0  0  0  0  0  0
    8.1665   12.4772   23.6858 C   0  0  0  0  0  0  0  0  0  0  0  0
    7.9032   11.1084   23.7711 C   0  0  0  0  0  0  0  0  0  0  0  0
    9.2803   12.6347   22.8143 C   0  0  0  0  0  0  0  0  0  0  0  0
    6.0724   11.4915   25.2620 C   0  0  0  0  0  0  0  0  0  0  0  0
    8.8280   10.4678   22.9777 N   0  0  0  0  0  0  0  0  0  0  0  0
   11.2733   13.5736   21.3138 N   0  0  0  0  0  0  0  0  0  0  0  0
    9.0820   14.9084   21.5635 O   0  0  0  0  0  0  0  0  0  0  0  0
   10.6491   14.7325   23.5284 O   0  0  0  0  0  0  0  0  0  0  0  0
   10.0191   14.1039   22.3592 S   0  0  0  0  0  0  0  0  0  0  0  0
    4.7779   10.8993   26.2339 Cl  0  0  0  0  0  0  0  0  0  0  0  0
    7.5272   14.4423   24.3711 H   0  0  0  0  0  0  0  0  0  0  0  0
    5.6893   13.5600   25.7520 H   0  0  0  0  0  0  0  0  0  0  0  0
    6.6860    9.5162   24.5921 H   0  0  0  0  0  0  0  0  0  0  0  0
   10.4580   11.0563   21.7370 H   0  0  0  0  0  0  0  0  0  0  0  0
    8.8791    9.4676   22.8414 H   0  0  0  0  0  0  0  0  0  0  0  0
   12.0863   13.1008   21.7271 H   0  0  0  0  0  0  0  0  0  0  0  0
   11.0173   13.2220   20.3831 H   0  0  0  0  0  0  0  0  0  0  0  0
  1  2  2  0  0  0  0
  1  5  1  0  0  0  0
  2  8  1  0  0  0  0
  3  6  1  0  0  0  0
  3  8  2  0  0  0  0
  4  7  2  0  0  0  0
  4  9  1  0  0  0  0
  5  6  2  0  0  0  0
  5  7  1  0  0  0  0
  6  9  1  0  0  0  0
  7 13  1  0  0  0  0
  8 14  1  0  0  0  0
 10 13  1  0  0  0  0
 11 13  2  0  0  0  0
 12 13  2  0  0  0  0
  1 15  1  0  0  0  0
  2 16  1  0  0  0  0
  3 17  1  0  0  0  0
  4 18  1  0  0  0  0
  9 19  1  0  0  0  0
 10 20  1  0  0  0  0
 10 21  1  0  0  0  0
M  END
> <Mol Weight>
230,67

> <Formula>
C8H7ClN2O2S

> <ID>
EN300-1275576

> <name>
Sulfonamides

> <LogP>
1,28

> <ROCS_ShapeQuery>
x0446_0A_x1080_0A_x0929_0A_x0812_0A_x0719_0A_x1140_0A_x0528_0A_x0310_0A

> <ROCS_TanimotoCombo>
0.356 

> <ROCS_ShapeTanimoto>
0.191 

> <ROCS_ColorTanimoto>
0.165 

> <ROCS_RefTversky>
0.176 

> <ROCS_RefColorTversky>
0.172 

> <ROCS_RefTverskyCombo>
0.348 

> <ROCS_FitTversky>
1.738 

> <ROCS_FitColorTversky>
0.809 

> <ROCS_FitTverskyCombo>
2.547 

> <ROCS_ColorScore>
-6.133

> <ROCS_Overlap>
2079.132

> <ROCS_Rank>
88                  

$$$$
untitled-dbase-2130_3
  -OEChem-02082415043D

 26 28  0     0  0  0  0  0  0999 V2000
    5.9181   13.1690   24.8281 C   0  0  0  0  0  0  0  0  0  0  0  0
    5.4009   11.8752   24.9244 C   0  0  0  0  0  0  0  0  0  0  0  0
    7.2545   13.3876   24.4674 C   0  0  0  0  0  0  0  0  0  0  0  0
   10.5328   12.9183   23.5462 C   0  0  0  0  0  0  0  0  0  0  0  0
    6.1972   10.7557   24.6659 C   0  0  0  0  0  0  0  0  0  0  0  0
   11.7547   12.3332   23.1875 C   0  0  0  0  0  0  0  0  0  0  0  0
   10.8148   10.0946   23.3688 C   0  0  0  0  0  0  0  0  0  0  0  0
    8.0755   12.2761   24.2019 C   0  0  0  0  0  0  0  0  0  0  0  0
    9.4351   12.0815   23.8196 C   0  0  0  0  0  0  0  0  0  0  0  0
    7.5219   11.0042   24.3099 C   0  0  0  0  0  0  0  0  0  0  0  0
    9.6125   10.7048   23.7225 C   0  0  0  0  0  0  0  0  0  0  0  0
   11.8907   10.9459   23.1012 C   0  0  0  0  0  0  0  0  0  0  0  0
   14.3698   11.6726   22.4448 N   0  0  0  0  0  0  0  0  0  0  0  0
   13.9517    9.5142   23.7910 O   0  0  0  0  0  0  0  0  0  0  0  0
   13.2874    9.6006   21.3623 O   0  0  0  0  0  0  0  0  0  0  0  0
    8.4535   10.0540   24.0199 O   0  0  0  0  0  0  0  0  0  0  0  0
   13.4344   10.2584   22.6522 S   0  0  0  0  0  0  0  0  0  0  0  0
    5.2750   14.0204   25.0354 H   0  0  0  0  0  0  0  0  0  0  0  0
    4.3599   11.7353   25.2048 H   0  0  0  0  0  0  0  0  0  0  0  0
    7.6415   14.3998   24.3970 H   0  0  0  0  0  0  0  0  0  0  0  0
   10.4436   13.9989   23.6088 H   0  0  0  0  0  0  0  0  0  0  0  0
    5.8027    9.7491   24.7375 H   0  0  0  0  0  0  0  0  0  0  0  0
   12.6027   12.9805   22.9760 H   0  0  0  0  0  0  0  0  0  0  0  0
   10.9039    9.0158   23.3072 H   0  0  0  0  0  0  0  0  0  0  0  0
   15.0897   11.8811   23.1475 H   0  0  0  0  0  0  0  0  0  0  0  0
   14.6334   11.9397   21.4886 H   0  0  0  0  0  0  0  0  0  0  0  0
  1  2  1  0  0  0  0
  1  3  2  0  0  0  0
  2  5  2  0  0  0  0
  3  8  1  0  0  0  0
  4  6  2  0  0  0  0
  4  9  1  0  0  0  0
  5 10  1  0  0  0  0
  6 12  1  0  0  0  0
  7 11  1  0  0  0  0
  7 12  2  0  0  0  0
  8  9  1  0  0  0  0
  8 10  2  0  0  0  0
  9 11  2  0  0  0  0
 10 16  1  0  0  0  0
 11 16  1  0  0  0  0
 12 17  1  0  0  0  0
 13 17  1  0  0  0  0
 14 17  2  0  0  0  0
 15 17  2  0  0  0  0
  1 18  1  0  0  0  0
  2 19  1  0  0  0  0
  3 20  1  0  0  0  0
  4 21  1  0  0  0  0
  5 22  1  0  0  0  0
  6 23  1  0  0  0  0
  7 24  1  0  0  0  0
 13 25  1  0  0  0  0
 13 26  1  0  0  0  0
M  END
> <Mol Weight>
247,27

> <Formula>
C12H9NO3S

> <ID>
EN300-264690

> <name>
Sulfonamides

> <LogP>
1,76

> <ROCS_ShapeQuery>
x0446_0A_x1080_0A_x0929_0A_x0812_0A_x0719_0A_x1140_0A_x0528_0A_x0310_0A

> <ROCS_TanimotoCombo>
0.356 

> <ROCS_ShapeTanimoto>
0.207 

> <ROCS_ColorTanimoto>
0.149 

> <ROCS_RefTversky>
0.191 

> <ROCS_RefColorTversky>
0.160 

> <ROCS_RefTverskyCombo>
0.352 

> <ROCS_FitTversky>
1.666 

> <ROCS_FitColorTversky>
0.670 

> <ROCS_FitTverskyCombo>
2.335 

> <ROCS_ColorScore>
-5.725

> <ROCS_Overlap>
2257.493

> <ROCS_Rank>
89                  

$$$$
untitled-dbase-2625_1662
  -OEChem-02082415043D

 31 31  0     0  0  0  0  0  0999 V2000
   10.0277   11.3342   24.2169 C   0  0  0  0  0  0  0  0  0  0  0  0
    8.5985   11.9869   22.3816 C   0  0  0  0  0  0  0  0  0  0  0  0
    9.0004   11.6162   25.1173 C   0  0  0  0  0  0  0  0  0  0  0  0
    7.5711   12.2689   23.2820 C   0  0  0  0  0  0  0  0  0  0  0  0
    9.8268   11.5196   22.8491 C   0  0  0  0  0  0  0  0  0  0  0  0
    7.7721   12.0835   24.6498 C   0  0  0  0  0  0  0  0  0  0  0  0
   11.8661   15.7566   22.4015 C   0  0  0  0  0  0  0  0  0  0  0  0
   10.9383   11.2154   21.8748 C   0  0  0  0  0  0  0  0  0  0  0  0
   11.8376   12.4187   21.6027 C   0  0  0  0  0  0  0  0  0  0  0  0
    7.2371   12.0456   27.2608 N   0  0  0  0  0  0  0  0  0  0  0  0
   11.0941   13.5687   21.0574 N   0  0  0  0  0  0  0  0  0  0  0  0
    6.2234   13.8665   25.7434 O   0  0  0  0  0  0  0  0  0  0  0  0
    5.3974   11.4947   25.5435 O   0  0  0  0  0  0  0  0  0  0  0  0
   10.1070   14.0906   23.3915 O   0  0  0  0  0  0  0  0  0  0  0  0
    9.4628   15.5179   21.4156 O   0  0  0  0  0  0  0  0  0  0  0  0
    6.4854   12.4344   25.7764 S   0  0  0  0  0  0  0  0  0  0  0  0
   10.4432   14.7248   22.1318 S   0  0  0  0  0  0  0  0  0  0  0  0
   10.9814   10.9709   24.5903 H   0  0  0  0  0  0  0  0  0  0  0  0
    8.4330   12.1348   21.3177 H   0  0  0  0  0  0  0  0  0  0  0  0
    9.1676   11.4688   26.1810 H   0  0  0  0  0  0  0  0  0  0  0  0
    6.6182   12.6329   22.9070 H   0  0  0  0  0  0  0  0  0  0  0  0
   11.5857   16.5576   23.0873 H   0  0  0  0  0  0  0  0  0  0  0  0
   12.6590   15.1439   22.8331 H   0  0  0  0  0  0  0  0  0  0  0  0
   12.1802   16.1679   21.4410 H   0  0  0  0  0  0  0  0  0  0  0  0
   10.4913   10.8762   20.9318 H   0  0  0  0  0  0  0  0  0  0  0  0
   11.5364   10.3731   22.2455 H   0  0  0  0  0  0  0  0  0  0  0  0
   12.3014   12.7561   22.5350 H   0  0  0  0  0  0  0  0  0  0  0  0
   12.6353   12.1747   20.8934 H   0  0  0  0  0  0  0  0  0  0  0  0
    7.4913   12.8177   27.8890 H   0  0  0  0  0  0  0  0  0  0  0  0
    6.9277   11.1970   27.7501 H   0  0  0  0  0  0  0  0  0  0  0  0
   11.4652   13.9203   20.1652 H   0  0  0  0  0  0  0  0  0  0  0  0
  1  3  2  0  0  0  0
  1  5  1  0  0  0  0
  2  4  1  0  0  0  0
  2  5  2  0  0  0  0
  3  6  1  0  0  0  0
  4  6  2  0  0  0  0
  5  8  1  0  0  0  0
  6 16  1  0  0  0  0
  7 17  1  0  0  0  0
  8  9  1  0  0  0  0
  9 11  1  0  0  0  0
 10 16  1  0  0  0  0
 11 17  1  0  0  0  0
 12 16  2  0  0  0  0
 13 16  2  0  0  0  0
 14 17  2  0  0  0  0
 15 17  2  0  0  0  0
  1 18  1  0  0  0  0
  2 19  1  0  0  0  0
  3 20  1  0  0  0  0
  4 21  1  0  0  0  0
  7 22  1  0  0  0  0
  7 23  1  0  0  0  0
  7 24  1  0  0  0  0
  8 25  1  0  0  0  0
  8 26  1  0  0  0  0
  9 27  1  0  0  0  0
  9 28  1  0  0  0  0
 10 29  1  0  0  0  0
 10 30  1  0  0  0  0
 11 31  1  0  0  0  0
M  END
> <Mol Weight>
278,34

> <Formula>
C9H14N2O4S2

> <ID>
EN300-172749

> <name>
Sulfonamides

> <LogP>
-0,69

> <ROCS_ShapeQuery>
x0446_0A_x1080_0A_x0929_0A_x0812_0A_x0719_0A_x1140_0A_x0528_0A_x0310_0A

> <ROCS_TanimotoCombo>
0.356 

> <ROCS_ShapeTanimoto>
0.190 

> <ROCS_ColorTanimoto>
0.166 

> <ROCS_RefTversky>
0.177 

> <ROCS_RefColorTversky>
0.176 

> <ROCS_RefTverskyCombo>
0.353 

> <ROCS_FitTversky>
1.641 

> <ROCS_FitColorTversky>
0.739 

> <ROCS_FitTverskyCombo>
2.380 

> <ROCS_ColorScore>
-6.293

> <ROCS_Overlap>
2082.949

> <ROCS_Rank>
90                  

$$$$
untitled-dbase-2012_0
  -OEChem-02082415043D

 23 24  0     0  0  0  0  0  0999 V2000
    6.8863   10.5580   24.4897 C   0  0  0  0  0  0  0  0  0  0  0  0
    6.0804   11.4542   25.1977 C   0  0  0  0  0  0  0  0  0  0  0  0
    7.3539   13.3470   24.3652 C   0  0  0  0  0  0  0  0  0  0  0  0
    9.6982   11.3843   22.3620 C   0  0  0  0  0  0  0  0  0  0  0  0
    8.1796   12.4628   23.6428 C   0  0  0  0  0  0  0  0  0  0  0  0
    7.9273   11.0915   23.7215 C   0  0  0  0  0  0  0  0  0  0  0  0
    6.3088   12.8276   25.1378 C   0  0  0  0  0  0  0  0  0  0  0  0
    9.2995   12.6325   22.7815 C   0  0  0  0  0  0  0  0  0  0  0  0
    8.8643   10.4613   22.9341 N   0  0  0  0  0  0  0  0  0  0  0  0
   11.2973   13.5930   21.3011 N   0  0  0  0  0  0  0  0  0  0  0  0
    5.4716   13.7121   25.8694 N   0  3  0  0  0  0  0  0  0  0  0  0
    4.5383   13.2346   26.5583 O   0  5  0  0  0  0  0  0  0  0  0  0
    5.6890   14.9460   25.8056 O   0  0  0  0  0  0  0  0  0  0  0  0
    9.0927   14.9084   21.5360 O   0  0  0  0  0  0  0  0  0  0  0  0
   10.6444   14.7396   23.5138 O   0  0  0  0  0  0  0  0  0  0  0  0
   10.0298   14.1094   22.3373 S   0  0  0  0  0  0  0  0  0  0  0  0
    6.7076    9.4891   24.5370 H   0  0  0  0  0  0  0  0  0  0  0  0
    5.2655   11.0581   25.8004 H   0  0  0  0  0  0  0  0  0  0  0  0
    7.5297   14.4189   24.3210 H   0  0  0  0  0  0  0  0  0  0  0  0
   10.4991   11.0674   21.7086 H   0  0  0  0  0  0  0  0  0  0  0  0
    8.9268    9.4619   22.7979 H   0  0  0  0  0  0  0  0  0  0  0  0
   12.1106   13.1256   21.7200 H   0  0  0  0  0  0  0  0  0  0  0  0
   11.0523   13.2421   20.3672 H   0  0  0  0  0  0  0  0  0  0  0  0
  1  2  2  0  0  0  0
  1  6  1  0  0  0  0
  2  7  1  0  0  0  0
  3  5  1  0  0  0  0
  3  7  2  0  0  0  0
  4  8  2  0  0  0  0
  4  9  1  0  0  0  0
  5  6  2  0  0  0  0
  5  8  1  0  0  0  0
  6  9  1  0  0  0  0
  7 11  1  0  0  0  0
  8 16  1  0  0  0  0
 10 16  1  0  0  0  0
 11 12  1  0  0  0  0
 11 13  2  0  0  0  0
 14 16  2  0  0  0  0
 15 16  2  0  0  0  0
  1 17  1  0  0  0  0
  2 18  1  0  0  0  0
  3 19  1  0  0  0  0
  4 20  1  0  0  0  0
  9 21  1  0  0  0  0
 10 22  1  0  0  0  0
 10 23  1  0  0  0  0
M  CHG  2  11   1  12  -1
M  END
> <Mol Weight>
241,22

> <Formula>
C8H7N3O4S

> <ID>
EN300-76290

> <name>
Sulfonamides

> <LogP>
0,62

> <ROCS_ShapeQuery>
x0446_0A_x1080_0A_x0929_0A_x0812_0A_x0719_0A_x1140_0A_x0528_0A_x0310_0A

> <ROCS_TanimotoCombo>
0.356 

> <ROCS_ShapeTanimoto>
0.198 

> <ROCS_ColorTanimoto>
0.158 

> <ROCS_RefTversky>
0.183 

> <ROCS_RefColorTversky>
0.173 

> <ROCS_RefTverskyCombo>
0.356 

> <ROCS_FitTversky>
1.664 

> <ROCS_FitColorTversky>
0.650 

> <ROCS_FitTverskyCombo>
2.314 

> <ROCS_ColorScore>
-6.170

> <ROCS_Overlap>
2161.818

> <ROCS_Rank>
91                  

$$$$
untitled-dbase-2020_10
  -OEChem-02082415043D

 22 23  0     0  0  0  0  0  0999 V2000
    9.0651    9.8903   24.6237 C   0  0  0  0  0  0  0  0  0  0  0  0
    8.1764   10.9046   24.9802 C   0  0  0  0  0  0  0  0  0  0  0  0
    9.9768   10.0939   23.5878 C   0  0  0  0  0  0  0  0  0  0  0  0
    8.1994   12.1226   24.3007 C   0  0  0  0  0  0  0  0  0  0  0  0
    9.9997   11.3119   22.9083 C   0  0  0  0  0  0  0  0  0  0  0  0
    9.1111   12.3262   23.2647 C   0  0  0  0  0  0  0  0  0  0  0  0
    9.1353   13.5859   22.5629 C   0  0  0  0  0  0  0  0  0  0  0  0
    8.1540   14.5160   22.2839 C   0  0  0  0  0  0  0  0  0  0  0  0
    8.5711   15.6279   21.5694 N   0  0  0  0  0  0  0  0  0  0  0  0
    9.8639   15.5697   21.2919 N   0  0  0  0  0  0  0  0  0  0  0  0
    5.8414   15.8302   22.1111 N   0  0  0  0  0  0  0  0  0  0  0  0
    5.8900   13.2534   22.0520 O   0  0  0  0  0  0  0  0  0  0  0  0
    6.4027   14.4470   24.2108 O   0  0  0  0  0  0  0  0  0  0  0  0
   10.5937   14.1828   21.8835 S   0  0  0  0  0  0  0  0  0  0  0  0
    6.5078   14.3851   22.7497 S   0  0  0  0  0  0  0  0  0  0  0  0
    9.0476    8.9422   25.1533 H   0  0  0  0  0  0  0  0  0  0  0  0
    7.4665   10.7458   25.7867 H   0  0  0  0  0  0  0  0  0  0  0  0
   10.6695    9.3045   23.3110 H   0  0  0  0  0  0  0  0  0  0  0  0
    7.5020   12.9043   24.5921 H   0  0  0  0  0  0  0  0  0  0  0  0
   10.7157   11.4546   22.1024 H   0  0  0  0  0  0  0  0  0  0  0  0
    6.0785   16.7192   22.5683 H   0  0  0  0  0  0  0  0  0  0  0  0
    5.7259   15.9048   21.0931 H   0  0  0  0  0  0  0  0  0  0  0  0
  1  2  1  0  0  0  0
  1  3  2  0  0  0  0
  2  4  2  0  0  0  0
  3  5  1  0  0  0  0
  4  6  1  0  0  0  0
  5  6  2  0  0  0  0
  6  7  1  0  0  0  0
  7  8  2  0  0  0  0
  7 14  1  0  0  0  0
  8  9  1  0  0  0  0
  8 15  1  0  0  0  0
  9 10  2  0  0  0  0
 10 14  1  0  0  0  0
 11 15  1  0  0  0  0
 12 15  2  0  0  0  0
 13 15  2  0  0  0  0
  1 16  1  0  0  0  0
  2 17  1  0  0  0  0
  3 18  1  0  0  0  0
  4 19  1  0  0  0  0
  5 20  1  0  0  0  0
 11 21  1  0  0  0  0
 11 22  1  0  0  0  0
M  END
> <Mol Weight>
241,28

> <Formula>
C8H7N3O2S2

> <ID>
EN300-6760189

> <name>
Sulfonamides

> <LogP>
1,41

> <ROCS_ShapeQuery>
x0446_0A_x1080_0A_x0929_0A_x0812_0A_x0719_0A_x1140_0A_x0528_0A_x0310_0A

> <ROCS_TanimotoCombo>
0.356 

> <ROCS_ShapeTanimoto>
0.196 

> <ROCS_ColorTanimoto>
0.160 

> <ROCS_RefTversky>
0.181 

> <ROCS_RefColorTversky>
0.172 

> <ROCS_RefTverskyCombo>
0.353 

> <ROCS_FitTversky>
1.739 

> <ROCS_FitColorTversky>
0.694 

> <ROCS_FitTverskyCombo>
2.434 

> <ROCS_ColorScore>
-6.138

> <ROCS_Overlap>
2131.779

> <ROCS_Rank>
92                  

$$$$
untitled-dbase-1220_2
  -OEChem-02082415043D

 25 26  0     1  0  0  0  0  0999 V2000
    5.9784   13.3647   24.8418 C   0  0  0  0  0  0  0  0  0  0  0  0
    5.5756   12.0395   24.9831 C   0  0  0  0  0  0  0  0  0  0  0  0
    7.2466   13.6586   24.3397 C   0  0  0  0  0  0  0  0  0  0  0  0
    6.4398   11.0074   24.6221 C   0  0  0  0  0  0  0  0  0  0  0  0
    8.1250   12.6299   23.9646 C   0  0  0  0  0  0  0  0  0  0  0  0
    7.7069   11.2990   24.1077 C   0  0  0  0  0  0  0  0  0  0  0  0
   10.4002   11.7291   23.4908 C   0  0  0  0  0  0  0  0  0  0  0  0
    9.6463   10.4959   23.0131 C   0  0  0  0  0  0  0  0  0  0  0  0
    9.4959   12.9541   23.4421 C   0  0  1  0  0  0  0  0  0  0  0  0
   10.8796   13.3104   21.2039 N   0  0  0  0  0  0  0  0  0  0  0  0
    8.3912   12.6683   21.0916 O   0  0  0  0  0  0  0  0  0  0  0  0
    9.0416   14.9853   21.8624 O   0  0  0  0  0  0  0  0  0  0  0  0
    8.4938   10.2160   23.8114 O   0  0  0  0  0  0  0  0  0  0  0  0
    9.2988   13.5596   21.7886 S   0  0  0  0  0  0  0  0  0  0  0  0
    5.3079   14.1700   25.1271 H   0  0  0  0  0  0  0  0  0  0  0  0
    4.5907   11.8099   25.3788 H   0  0  0  0  0  0  0  0  0  0  0  0
    7.5490   14.6988   24.2457 H   0  0  0  0  0  0  0  0  0  0  0  0
    6.1197    9.9758   24.7436 H   0  0  0  0  0  0  0  0  0  0  0  0
   10.7118   11.5643   24.5306 H   0  0  0  0  0  0  0  0  0  0  0  0
   11.3061   11.8794   22.8937 H   0  0  0  0  0  0  0  0  0  0  0  0
    9.3399   10.5808   21.9643 H   0  0  0  0  0  0  0  0  0  0  0  0
   10.3032    9.6219   23.0813 H   0  0  0  0  0  0  0  0  0  0  0  0
    9.9509   13.7670   24.0188 H   0  0  0  0  0  0  0  0  0  0  0  0
   11.6248   13.9207   21.5614 H   0  0  0  0  0  0  0  0  0  0  0  0
   11.1816   12.3428   21.0363 H   0  0  0  0  0  0  0  0  0  0  0  0
  1  2  1  0  0  0  0
  1  3  2  0  0  0  0
  2  4  2  0  0  0  0
  3  5  1  0  0  0  0
  4  6  1  0  0  0  0
  5  6  2  0  0  0  0
  5  9  1  0  0  0  0
  6 13  1  0  0  0  0
  7  8  1  0  0  0  0
  7  9  1  0  0  0  0
  8 13  1  0  0  0  0
  9 14  1  0  0  0  0
 10 14  1  0  0  0  0
 11 14  2  0  0  0  0
 12 14  2  0  0  0  0
  1 15  1  0  0  0  0
  2 16  1  0  0  0  0
  3 17  1  0  0  0  0
  4 18  1  0  0  0  0
  7 19  1  0  0  0  0
  7 20  1  0  0  0  0
  8 21  1  0  0  0  0
  8 22  1  0  0  0  0
  9 23  1  0  0  0  0
 10 24  1  0  0  0  0
 10 25  1  0  0  0  0
M  END
> <Mol Weight>
213,25

> <Formula>
C9H11NO3S

> <ID>
EN300-679556

> <name>
Sulfonamides

> <LogP>
0,28

> <ROCS_ShapeQuery>
x0446_0A_x1080_0A_x0929_0A_x0812_0A_x0719_0A_x1140_0A_x0528_0A_x0310_0A

> <ROCS_TanimotoCombo>
0.356 

> <ROCS_ShapeTanimoto>
0.205 

> <ROCS_ColorTanimoto>
0.151 

> <ROCS_RefTversky>
0.187 

> <ROCS_RefColorTversky>
0.159 

> <ROCS_RefTverskyCombo>
0.346 

> <ROCS_FitTversky>
1.847 

> <ROCS_FitColorTversky>
0.747 

> <ROCS_FitTverskyCombo>
2.594 

> <ROCS_ColorScore>
-5.656

> <ROCS_Overlap>
2208.603

> <ROCS_Rank>
93                  

$$$$
untitled-dbase-2360_42
  -OEChem-02082415043D

 24 25  0     0  0  0  0  0  0999 V2000
    5.7948   12.6697   25.7748 C   0  0  0  0  0  0  0  0  0  0  0  0
    5.5881   11.3001   25.7035 C   0  0  0  0  0  0  0  0  0  0  0  0
    6.9082   13.2304   25.1515 C   0  0  0  0  0  0  0  0  0  0  0  0
    6.4969   10.5029   25.0099 C   0  0  0  0  0  0  0  0  0  0  0  0
    7.8223   12.4426   24.4557 C   0  0  0  0  0  0  0  0  0  0  0  0
    7.6128   11.0532   24.3836 C   0  0  0  0  0  0  0  0  0  0  0  0
    9.7397   12.1994   23.2042 C   0  0  0  0  0  0  0  0  0  0  0  0
    9.5358   10.8470   23.1341 C   0  0  0  0  0  0  0  0  0  0  0  0
   12.0412   14.7030   21.0611 C   0  0  0  0  0  0  0  0  0  0  0  0
    8.8889   13.0069   23.8627 N   0  0  0  0  0  0  0  0  0  0  0  0
    8.4752   10.2632   23.7204 N   0  0  0  0  0  0  0  0  0  0  0  0
   10.8585   12.8365   22.5876 N   0  0  0  0  0  0  0  0  0  0  0  0
    9.5072   14.8175   21.6381 O   0  0  0  0  0  0  0  0  0  0  0  0
   11.1799   15.2823   23.4632 O   0  0  0  0  0  0  0  0  0  0  0  0
   10.7698   14.5312   22.2933 S   0  0  0  0  0  0  0  0  0  0  0  0
   10.5820    9.7673   22.3105 Cl  0  0  0  0  0  0  0  0  0  0  0  0
    5.0948   13.3022   26.3119 H   0  0  0  0  0  0  0  0  0  0  0  0
    4.7249   10.8511   26.1845 H   0  0  0  0  0  0  0  0  0  0  0  0
    7.0576   14.3066   25.2144 H   0  0  0  0  0  0  0  0  0  0  0  0
    6.3222    9.4299   24.9622 H   0  0  0  0  0  0  0  0  0  0  0  0
   12.1004   15.7533   20.7714 H   0  0  0  0  0  0  0  0  0  0  0  0
   12.9866   14.3716   21.4932 H   0  0  0  0  0  0  0  0  0  0  0  0
   11.7749   14.0841   20.2030 H   0  0  0  0  0  0  0  0  0  0  0  0
   11.7764   12.5075   22.9304 H   0  0  0  0  0  0  0  0  0  0  0  0
  1  2  1  0  0  0  0
  1  3  2  0  0  0  0
  2  4  2  0  0  0  0
  3  5  1  0  0  0  0
  4  6  1  0  0  0  0
  5  6  1  0  0  0  0
  5 10  2  0  0  0  0
  6 11  2  0  0  0  0
  7  8  2  0  0  0  0
  7 10  1  0  0  0  0
  7 12  1  0  0  0  0
  8 11  1  0  0  0  0
  8 16  1  0  0  0  0
  9 15  1  0  0  0  0
 12 15  1  0  0  0  0
 13 15  2  0  0  0  0
 14 15  2  0  0  0  0
  1 17  1  0  0  0  0
  2 18  1  0  0  0  0
  3 19  1  0  0  0  0
  4 20  1  0  0  0  0
  9 21  1  0  0  0  0
  9 22  1  0  0  0  0
  9 23  1  0  0  0  0
 12 24  1  0  0  0  0
M  END
> <Mol Weight>
257,69

> <Formula>
C9H8ClN3O2S

> <ID>
EN300-24567939

> <name>
Sulfonamides

> <LogP>
1,09

> <ROCS_ShapeQuery>
x0446_0A_x1080_0A_x0929_0A_x0812_0A_x0719_0A_x1140_0A_x0528_0A_x0310_0A

> <ROCS_TanimotoCombo>
0.355 

> <ROCS_ShapeTanimoto>
0.227 

> <ROCS_ColorTanimoto>
0.128 

> <ROCS_RefTversky>
0.205 

> <ROCS_RefColorTversky>
0.141 

> <ROCS_RefTverskyCombo>
0.346 

> <ROCS_FitTversky>
1.882 

> <ROCS_FitColorTversky>
0.590 

> <ROCS_FitTverskyCombo>
2.472 

> <ROCS_ColorScore>
-5.030

> <ROCS_Overlap>
2419.830

> <ROCS_Rank>
94                  

$$$$
untitled-dbase-2473_5
  -OEChem-02082415043D

 33 34  0     0  0  0  0  0  0999 V2000
    6.0566   12.3754   25.4323 C   0  0  0  0  0  0  0  0  0  0  0  0
    6.5149   13.6419   25.0820 C   0  0  0  0  0  0  0  0  0  0  0  0
    6.6785   11.2393   24.9136 C   0  0  0  0  0  0  0  0  0  0  0  0
    7.5969   13.7772   24.2118 C   0  0  0  0  0  0  0  0  0  0  0  0
    9.4888   10.3594   22.6345 C   0  0  0  0  0  0  0  0  0  0  0  0
    9.9472   11.6259   22.2842 C   0  0  0  0  0  0  0  0  0  0  0  0
    7.7688   11.3567   24.0363 C   0  0  0  0  0  0  0  0  0  0  0  0
    8.2349   12.6447   23.6801 C   0  0  0  0  0  0  0  0  0  0  0  0
    8.4068   10.2241   23.5048 C   0  0  0  0  0  0  0  0  0  0  0  0
    9.3253   12.7621   22.8028 C   0  0  0  0  0  0  0  0  0  0  0  0
    9.4078    8.7571   25.7502 C   0  0  0  0  0  0  0  0  0  0  0  0
    8.3146    6.7469   24.6939 C   0  0  0  0  0  0  0  0  0  0  0  0
    8.9442    8.1107   24.4537 C   0  0  0  0  0  0  0  0  0  0  0  0
   11.2418   13.8036   21.2709 N   0  0  0  0  0  0  0  0  0  0  0  0
    8.9654   14.9901   21.5067 O   0  0  0  0  0  0  0  0  0  0  0  0
   10.5504   14.9632   23.4650 O   0  0  0  0  0  0  0  0  0  0  0  0
    7.9933    8.9612   23.8196 O   0  0  0  0  0  0  0  0  0  0  0  0
    9.9784   14.3139   22.2982 S   0  0  0  0  0  0  0  0  0  0  0  0
    5.2138   12.2709   26.1094 H   0  0  0  0  0  0  0  0  0  0  0  0
    6.0300   14.5257   25.4865 H   0  0  0  0  0  0  0  0  0  0  0  0
    6.2950   10.2649   25.2074 H   0  0  0  0  0  0  0  0  0  0  0  0
    7.9192   14.7861   23.9679 H   0  0  0  0  0  0  0  0  0  0  0  0
    9.9784    9.4792   22.2262 H   0  0  0  0  0  0  0  0  0  0  0  0
   10.7908   11.7147   21.6043 H   0  0  0  0  0  0  0  0  0  0  0  0
    8.5779    8.8764   26.4534 H   0  0  0  0  0  0  0  0  0  0  0  0
   10.1834    8.1463   26.2245 H   0  0  0  0  0  0  0  0  0  0  0  0
    9.8530    9.7407   25.5634 H   0  0  0  0  0  0  0  0  0  0  0  0
    7.4588    6.8182   25.3719 H   0  0  0  0  0  0  0  0  0  0  0  0
    9.0486    6.0594   25.1278 H   0  0  0  0  0  0  0  0  0  0  0  0
    7.9796    6.2964   23.7531 H   0  0  0  0  0  0  0  0  0  0  0  0
    9.7954    8.0055   23.7731 H   0  0  0  0  0  0  0  0  0  0  0  0
   11.1259   13.9464   20.2601 H   0  0  0  0  0  0  0  0  0  0  0  0
   12.2073   13.9268   21.5995 H   0  0  0  0  0  0  0  0  0  0  0  0
  1  2  1  0  0  0  0
  1  3  2  0  0  0  0
  2  4  2  0  0  0  0
  3  7  1  0  0  0  0
  4  8  1  0  0  0  0
  5  6  2  0  0  0  0
  5  9  1  0  0  0  0
  6 10  1  0  0  0  0
  7  8  1  0  0  0  0
  7  9  2  0  0  0  0
  8 10  2  0  0  0  0
  9 17  1  0  0  0  0
 10 18  1  0  0  0  0
 11 13  1  0  0  0  0
 12 13  1  0  0  0  0
 13 17  1  0  0  0  0
 14 18  1  0  0  0  0
 15 18  2  0  0  0  0
 16 18  2  0  0  0  0
  1 19  1  0  0  0  0
  2 20  1  0  0  0  0
  3 21  1  0  0  0  0
  4 22  1  0  0  0  0
  5 23  1  0  0  0  0
  6 24  1  0  0  0  0
 11 25  1  0  0  0  0
 11 26  1  0  0  0  0
 11 27  1  0  0  0  0
 12 28  1  0  0  0  0
 12 29  1  0  0  0  0
 12 30  1  0  0  0  0
 13 31  1  0  0  0  0
 14 32  1  0  0  0  0
 14 33  1  0  0  0  0
M  END
> <Mol Weight>
265,33

> <Formula>
C13H15NO3S

> <ID>
EN300-72115

> <name>
Sulfonamides

> <LogP>
2,18

> <ROCS_ShapeQuery>
x0446_0A_x1080_0A_x0929_0A_x0812_0A_x0719_0A_x1140_0A_x0528_0A_x0310_0A

> <ROCS_TanimotoCombo>
0.355 

> <ROCS_ShapeTanimoto>
0.213 

> <ROCS_ColorTanimoto>
0.143 

> <ROCS_RefTversky>
0.196 

> <ROCS_RefColorTversky>
0.155 

> <ROCS_RefTverskyCombo>
0.350 

> <ROCS_FitTversky>
1.692 

> <ROCS_FitColorTversky>
0.648 

> <ROCS_FitTverskyCombo>
2.339 

> <ROCS_ColorScore>
-5.516

> <ROCS_Overlap>
2308.152

> <ROCS_Rank>
95                  

$$$$
untitled-dbase-2573_153
  -OEChem-02082415043D

 33 33  0     0  0  0  0  0  0999 V2000
    8.8226    9.6968   24.0368 C   0  0  0  0  0  0  0  0  0  0  0  0
    9.7840   10.3611   23.2833 C   0  0  0  0  0  0  0  0  0  0  0  0
    7.8229   10.4231   24.6742 C   0  0  0  0  0  0  0  0  0  0  0  0
    9.7022   11.7417   23.1993 C   0  0  0  0  0  0  0  0  0  0  0  0
    7.8290   11.8009   24.5281 C   0  0  0  0  0  0  0  0  0  0  0  0
   10.8076   13.7652   22.2021 C   0  0  0  0  0  0  0  0  0  0  0  0
   12.5106   15.2413   23.3501 C   0  0  0  0  0  0  0  0  0  0  0  0
   14.2057   13.9677   22.0034 C   0  0  0  0  0  0  0  0  0  0  0  0
   13.1211   16.0153   21.0344 C   0  0  0  0  0  0  0  0  0  0  0  0
   12.9297   14.8049   21.9470 C   0  0  0  0  0  0  0  0  0  0  0  0
    8.7460   12.4814   23.8045 N   0  0  0  0  0  0  0  0  0  0  0  0
    7.3763   13.1715   26.7690 N   0  0  0  0  0  0  0  0  0  0  0  0
   10.6833   12.4085   22.4307 N   0  0  0  0  0  0  0  0  0  0  0  0
   10.0899   14.6650   22.6213 O   0  0  0  0  0  0  0  0  0  0  0  0
    6.5568   14.0712   24.4965 O   0  0  0  0  0  0  0  0  0  0  0  0
    5.4279   12.0570   25.5047 O   0  0  0  0  0  0  0  0  0  0  0  0
   11.8988   13.9816   21.4003 O   0  0  0  0  0  0  0  0  0  0  0  0
    6.6407   12.8319   25.2625 S   0  0  0  0  0  0  0  0  0  0  0  0
    8.8529    8.6152   24.1259 H   0  0  0  0  0  0  0  0  0  0  0  0
   10.5675    9.8016   22.7824 H   0  0  0  0  0  0  0  0  0  0  0  0
    7.0657    9.9185   25.2642 H   0  0  0  0  0  0  0  0  0  0  0  0
   11.5950   15.8424   23.3140 H   0  0  0  0  0  0  0  0  0  0  0  0
   12.3362   14.3812   24.0048 H   0  0  0  0  0  0  0  0  0  0  0  0
   13.2785   15.8750   23.8083 H   0  0  0  0  0  0  0  0  0  0  0  0
   14.5102   13.6524   20.9988 H   0  0  0  0  0  0  0  0  0  0  0  0
   14.0449   13.0494   22.5797 H   0  0  0  0  0  0  0  0  0  0  0  0
   15.0329   14.5221   22.4583 H   0  0  0  0  0  0  0  0  0  0  0  0
   13.4217   15.7025   20.0279 H   0  0  0  0  0  0  0  0  0  0  0  0
   12.2040   16.6078   20.9526 H   0  0  0  0  0  0  0  0  0  0  0  0
   13.9219   16.6631   21.4090 H   0  0  0  0  0  0  0  0  0  0  0  0
    7.4214   12.4180   27.4659 H   0  0  0  0  0  0  0  0  0  0  0  0
    8.1922   13.7956   26.7791 H   0  0  0  0  0  0  0  0  0  0  0  0
   11.3842   11.8163   21.9918 H   0  0  0  0  0  0  0  0  0  0  0  0
  1  2  2  0  0  0  0
  1  3  1  0  0  0  0
  2  4  1  0  0  0  0
  3  5  2  0  0  0  0
  4 11  2  0  0  0  0
  4 13  1  0  0  0  0
  5 11  1  0  0  0  0
  5 18  1  0  0  0  0
  6 13  1  0  0  0  0
  6 14  2  0  0  0  0
  6 17  1  0  0  0  0
  7 10  1  0  0  0  0
  8 10  1  0  0  0  0
  9 10  1  0  0  0  0
 10 17  1  0  0  0  0
 12 18  1  0  0  0  0
 15 18  2  0  0  0  0
 16 18  2  0  0  0  0
  1 19  1  0  0  0  0
  2 20  1  0  0  0  0
  3 21  1  0  0  0  0
  7 22  1  0  0  0  0
  7 23  1  0  0  0  0
  7 24  1  0  0  0  0
  8 25  1  0  0  0  0
  8 26  1  0  0  0  0
  8 27  1  0  0  0  0
  9 28  1  0  0  0  0
  9 29  1  0  0  0  0
  9 30  1  0  0  0  0
 12 31  1  0  0  0  0
 12 32  1  0  0  0  0
 13 33  1  0  0  0  0
M  END
> <Mol Weight>
273,31

> <Formula>
C10H15N3O4S

> <ID>
EN300-37098688

> <name>
Sulfonamides

> <LogP>
1,46

> <ROCS_ShapeQuery>
x0446_0A_x1080_0A_x0929_0A_x0812_0A_x0719_0A_x1140_0A_x0528_0A_x0310_0A

> <ROCS_TanimotoCombo>
0.355 

> <ROCS_ShapeTanimoto>
0.222 

> <ROCS_ColorTanimoto>
0.133 

> <ROCS_RefTversky>
0.203 

> <ROCS_RefColorTversky>
0.148 

> <ROCS_RefTverskyCombo>
0.351 

> <ROCS_FitTversky>
1.766 

> <ROCS_FitColorTversky>
0.560 

> <ROCS_FitTverskyCombo>
2.326 

> <ROCS_ColorScore>
-5.297

> <ROCS_Overlap>
2393.221

> <ROCS_Rank>
96                  

$$$$
untitled-dbase-2263_0
  -OEChem-02082415043D

 25 26  0     0  0  0  0  0  0999 V2000
    9.4856   10.6227   23.8229 C   0  0  0  0  0  0  0  0  0  0  0  0
   10.3705   11.5775   23.3222 C   0  0  0  0  0  0  0  0  0  0  0  0
    8.1813   10.9876   24.1568 C   0  0  0  0  0  0  0  0  0  0  0  0
    8.6470   13.2624   23.4894 C   0  0  0  0  0  0  0  0  0  0  0  0
    9.9512   12.8974   23.1555 C   0  0  0  0  0  0  0  0  0  0  0  0
    7.7621   12.3075   23.9901 C   0  0  0  0  0  0  0  0  0  0  0  0
   12.7596   15.0440   22.1187 C   0  0  0  0  0  0  0  0  0  0  0  0
   11.7393   15.7117   21.5893 C   0  0  0  0  0  0  0  0  0  0  0  0
   12.2294   13.8613   22.8124 C   0  0  0  0  0  0  0  0  0  0  0  0
   10.4996   14.9842   21.8979 C   0  0  0  0  0  0  0  0  0  0  0  0
   10.8598   13.8780   22.6410 N   0  0  0  0  0  0  0  0  0  0  0  0
    5.3251   12.4931   22.9263 N   0  0  0  0  0  0  0  0  0  0  0  0
   12.9628   13.1013   23.4234 O   0  0  0  0  0  0  0  0  0  0  0  0
    9.4179   15.3679   21.4837 O   0  0  0  0  0  0  0  0  0  0  0  0
    5.6272   11.8184   25.3960 O   0  0  0  0  0  0  0  0  0  0  0  0
    6.1083   14.1911   24.6984 O   0  0  0  0  0  0  0  0  0  0  0  0
    6.1299   12.7640   24.4091 S   0  0  0  0  0  0  0  0  0  0  0  0
    9.8115    9.5948   23.9523 H   0  0  0  0  0  0  0  0  0  0  0  0
   11.3842   11.2812   23.0648 H   0  0  0  0  0  0  0  0  0  0  0  0
    7.5001   10.2360   24.5466 H   0  0  0  0  0  0  0  0  0  0  0  0
    8.3193   14.2915   23.3596 H   0  0  0  0  0  0  0  0  0  0  0  0
   13.8034   15.3055   22.0718 H   0  0  0  0  0  0  0  0  0  0  0  0
   11.7838   16.6247   21.0198 H   0  0  0  0  0  0  0  0  0  0  0  0
    4.6859   11.6912   22.8644 H   0  0  0  0  0  0  0  0  0  0  0  0
    5.0169   13.3122   22.3885 H   0  0  0  0  0  0  0  0  0  0  0  0
  1  2  1  0  0  0  0
  1  3  2  0  0  0  0
  2  5  2  0  0  0  0
  3  6  1  0  0  0  0
  4  5  1  0  0  0  0
  4  6  2  0  0  0  0
  5 11  1  0  0  0  0
  6 17  1  0  0  0  0
  7  8  2  0  0  0  0
  7  9  1  0  0  0  0
  8 10  1  0  0  0  0
  9 11  1  0  0  0  0
  9 13  2  0  0  0  0
 10 11  1  0  0  0  0
 10 14  2  0  0  0  0
 12 17  1  0  0  0  0
 15 17  2  0  0  0  0
 16 17  2  0  0  0  0
  1 18  1  0  0  0  0
  2 19  1  0  0  0  0
  3 20  1  0  0  0  0
  4 21  1  0  0  0  0
  7 22  1  0  0  0  0
  8 23  1  0  0  0  0
 12 24  1  0  0  0  0
 12 25  1  0  0  0  0
M  END
> <Mol Weight>
252,24

> <Formula>
C10H8N2O4S

> <ID>
EN300-71961

> <name>
Sulfonamides

> <LogP>
-0,15

> <ROCS_ShapeQuery>
x0446_0A_x1080_0A_x0929_0A_x0812_0A_x0719_0A_x1140_0A_x0528_0A_x0310_0A

> <ROCS_TanimotoCombo>
0.355 

> <ROCS_ShapeTanimoto>
0.219 

> <ROCS_ColorTanimoto>
0.136 

> <ROCS_RefTversky>
0.200 

> <ROCS_RefColorTversky>
0.148 

> <ROCS_RefTverskyCombo>
0.348 

> <ROCS_FitTversky>
1.764 

> <ROCS_FitColorTversky>
0.621 

> <ROCS_FitTverskyCombo>
2.385 

> <ROCS_ColorScore>
-5.288

> <ROCS_Overlap>
2361.939

> <ROCS_Rank>
97                  

$$$$
untitled-dbase-2103_580
  -OEChem-02082415043D

 32 33  0     1  0  0  0  0  0999 V2000
    9.2457   11.3942   22.6071 C   0  0  0  0  0  0  0  0  0  0  0  0
    8.3583   12.1362   23.3478 C   0  0  0  0  0  0  0  0  0  0  0  0
    7.8962   11.2475   24.3370 C   0  0  0  0  0  0  0  0  0  0  0  0
    4.6951   12.1928   24.3238 C   0  0  0  0  0  0  0  0  0  0  0  0
    5.4576   11.1054   25.0757 C   0  0  0  0  0  0  0  0  0  0  0  0
    4.8057   13.5410   25.0288 C   0  0  0  0  0  0  0  0  0  0  0  0
    6.9405   12.9569   26.0095 C   0  0  0  0  0  0  0  0  0  0  0  0
    6.8918   11.5235   25.4443 C   0  0  2  0  0  0  0  0  0  0  0  0
    8.6906   15.8603   24.1969 C   0  0  0  0  0  0  0  0  0  0  0  0
    8.4446   10.0337   24.2365 N   0  0  0  0  0  0  0  0  0  0  0  0
    9.2603   10.1544   23.1754 N   0  0  0  0  0  0  0  0  0  0  0  0
    6.2005   13.9353   25.2111 N   0  0  0  0  0  0  0  0  0  0  0  0
    7.9875   13.4726   23.1719 N   0  0  0  0  0  0  0  0  0  0  0  0
   10.4907   14.1361   23.4525 O   0  0  0  0  0  0  0  0  0  0  0  0
    9.1294   15.2971   21.6794 O   0  0  0  0  0  0  0  0  0  0  0  0
    9.2270   14.6742   22.9845 S   0  0  0  0  0  0  0  0  0  0  0  0
    9.8555   11.6297   21.7464 H   0  0  0  0  0  0  0  0  0  0  0  0
    5.0831   12.2757   23.3014 H   0  0  0  0  0  0  0  0  0  0  0  0
    3.6381   11.9057   24.2403 H   0  0  0  0  0  0  0  0  0  0  0  0
    4.8964   10.8240   25.9883 H   0  0  0  0  0  0  0  0  0  0  0  0
    5.4812   10.1863   24.4555 H   0  0  0  0  0  0  0  0  0  0  0  0
    4.2660   14.3111   24.4631 H   0  0  0  0  0  0  0  0  0  0  0  0
    4.3258   13.4716   26.0113 H   0  0  0  0  0  0  0  0  0  0  0  0
    6.5230   12.9593   27.0352 H   0  0  0  0  0  0  0  0  0  0  0  0
    7.9918   13.2917   26.1266 H   0  0  0  0  0  0  0  0  0  0  0  0
    7.2110   10.8299   26.2960 H   0  0  0  0  0  0  0  0  0  0  0  0
    9.3918   16.6963   24.1945 H   0  0  0  0  0  0  0  0  0  0  0  0
    7.6896   16.2000   23.9269 H   0  0  0  0  0  0  0  0  0  0  0  0
    8.6792   15.3735   25.1732 H   0  0  0  0  0  0  0  0  0  0  0  0
    9.8005    9.3468   22.8914 H   0  0  0  0  0  0  0  0  0  0  0  0
    6.6465   14.0280   24.2973 H   0  0  0  0  0  0  0  0  0  0  0  0
    7.1663   13.6372   22.5452 H   0  0  0  0  0  0  0  0  0  0  0  0
  1  2  2  0  0  0  0
  1 11  1  0  0  0  0
  2  3  1  0  0  0  0
  2 13  1  0  0  0  0
  3  8  1  0  0  0  0
  3 10  2  0  0  0  0
  4  5  1  0  0  0  0
  4  6  1  0  0  0  0
  5  8  1  0  0  0  0
  6 12  1  0  0  0  0
  7  8  1  0  0  0  0
  7 12  1  0  0  0  0
  9 16  1  0  0  0  0
 10 11  1  0  0  0  0
 13 16  1  0  0  0  0
 14 16  2  0  0  0  0
 15 16  2  0  0  0  0
  1 17  1  0  0  0  0
  4 18  1  0  0  0  0
  4 19  1  0  0  0  0
  5 20  1  0  0  0  0
  5 21  1  0  0  0  0
  6 22  1  0  0  0  0
  6 23  1  0  0  0  0
  7 24  1  0  0  0  0
  7 25  1  0  0  0  0
  8 26  1  0  0  0  0
  9 27  1  0  0  0  0
  9 28  1  0  0  0  0
  9 29  1  0  0  0  0
 11 30  1  0  0  0  0
 12 31  1  0  0  0  0
 13 32  1  0  0  0  0
M  END
> <Mol Weight>
244,31

> <Formula>
C9H16N4O2S

> <ID>
EN300-129897

> <name>
Sulfonamides

> <LogP>
-1,87

> <ROCS_ShapeQuery>
x0446_0A_x1080_0A_x0929_0A_x0812_0A_x0719_0A_x1140_0A_x0528_0A_x0310_0A

> <ROCS_TanimotoCombo>
0.355 

> <ROCS_ShapeTanimoto>
0.190 

> <ROCS_ColorTanimoto>
0.165 

> <ROCS_RefTversky>
0.177 

> <ROCS_RefColorTversky>
0.183 

> <ROCS_RefTverskyCombo>
0.360 

> <ROCS_FitTversky>
1.647 

> <ROCS_FitColorTversky>
0.629 

> <ROCS_FitTverskyCombo>
2.275 

> <ROCS_ColorScore>
-6.545

> <ROCS_Overlap>
2085.388

> <ROCS_Rank>
98                  

$$$$
untitled-dbase-2467_17
  -OEChem-02082415043D

 22 22  0     0  0  0  0  0  0999 V2000
    7.4689   12.0275   24.4812 C   0  0  0  0  0  0  0  0  0  0  0  0
    7.4903   10.6603   24.2577 C   0  0  0  0  0  0  0  0  0  0  0  0
    9.6648   10.7247   23.5192 C   0  0  0  0  0  0  0  0  0  0  0  0
    8.6219   12.7513   24.1985 C   0  0  0  0  0  0  0  0  0  0  0  0
    9.7452   12.0950   23.7079 C   0  0  0  0  0  0  0  0  0  0  0  0
    8.6098   14.2262   24.4358 C   0  0  0  0  0  0  0  0  0  0  0  0
    7.5383   14.9659   23.6320 C   0  0  0  0  0  0  0  0  0  0  0  0
    8.5624    9.9878   23.7823 N   0  0  0  0  0  0  0  0  0  0  0  0
    6.3896   15.6639   21.3419 N   0  0  0  0  0  0  0  0  0  0  0  0
    8.9408   15.3580   21.4626 O   0  0  0  0  0  0  0  0  0  0  0  0
    7.4398   13.3296   21.5972 O   0  0  0  0  0  0  0  0  0  0  0  0
    7.7043   14.7274   21.8906 S   0  0  0  0  0  0  0  0  0  0  0  0
   11.3519   13.0003   23.2976 Br  0  0  0  0  0  0  0  0  0  0  0  0
    6.5756   12.5086   24.8649 H   0  0  0  0  0  0  0  0  0  0  0  0
    6.6165   10.0504   24.4622 H   0  0  0  0  0  0  0  0  0  0  0  0
   10.5051   10.1513   23.1393 H   0  0  0  0  0  0  0  0  0  0  0  0
    9.5924   14.6470   24.1638 H   0  0  0  0  0  0  0  0  0  0  0  0
    8.4811   14.4537   25.5073 H   0  0  0  0  0  0  0  0  0  0  0  0
    6.5419   14.5939   23.8916 H   0  0  0  0  0  0  0  0  0  0  0  0
    7.5607   16.0449   23.8124 H   0  0  0  0  0  0  0  0  0  0  0  0
    5.4423   15.3042   21.5116 H   0  0  0  0  0  0  0  0  0  0  0  0
    6.4647   16.6856   21.4198 H   0  0  0  0  0  0  0  0  0  0  0  0
  1  2  2  0  0  0  0
  1  4  1  0  0  0  0
  2  8  1  0  0  0  0
  3  5  1  0  0  0  0
  3  8  2  0  0  0  0
  4  5  2  0  0  0  0
  4  6  1  0  0  0  0
  5 13  1  0  0  0  0
  6  7  1  0  0  0  0
  7 12  1  0  0  0  0
  9 12  1  0  0  0  0
 10 12  2  0  0  0  0
 11 12  2  0  0  0  0
  1 14  1  0  0  0  0
  2 15  1  0  0  0  0
  3 16  1  0  0  0  0
  6 17  1  0  0  0  0
  6 18  1  0  0  0  0
  7 19  1  0  0  0  0
  7 20  1  0  0  0  0
  9 21  1  0  0  0  0
  9 22  1  0  0  0  0
M  END
> <Mol Weight>
265,13

> <Formula>
C7H9BrN2O2S

> <ID>
EN300-7456597

> <name>
Sulfonamides

> <LogP>
0,18

> <ROCS_ShapeQuery>
x0446_0A_x1080_0A_x0929_0A_x0812_0A_x0719_0A_x1140_0A_x0528_0A_x0310_0A

> <ROCS_TanimotoCombo>
0.355 

> <ROCS_ShapeTanimoto>
0.188 

> <ROCS_ColorTanimoto>
0.167 

> <ROCS_RefTversky>
0.174 

> <ROCS_RefColorTversky>
0.173 

> <ROCS_RefTverskyCombo>
0.347 

> <ROCS_FitTversky>
1.833 

> <ROCS_FitColorTversky>
0.815 

> <ROCS_FitTverskyCombo>
2.648 

> <ROCS_ColorScore>
-6.167

> <ROCS_Overlap>
2046.215

> <ROCS_Rank>
99                  

$$$$
untitled-dbase-2671_16
  -OEChem-02082415043D

 24 24  0     0  0  0  0  0  0999 V2000
    7.9072   10.7202   24.4134 C   0  0  0  0  0  0  0  0  0  0  0  0
    8.9058   10.0537   23.7033 C   0  0  0  0  0  0  0  0  0  0  0  0
    8.7787   12.8400   23.6492 C   0  0  0  0  0  0  0  0  0  0  0  0
    9.7773   12.1735   22.9391 C   0  0  0  0  0  0  0  0  0  0  0  0
    7.8437   12.1134   24.3863 C   0  0  0  0  0  0  0  0  0  0  0  0
    9.8408   10.7803   22.9662 C   0  0  0  0  0  0  0  0  0  0  0  0
   10.4560   14.1657   21.6226 C   0  0  0  0  0  0  0  0  0  0  0  0
   11.6797   14.6966   20.9126 C   0  0  0  0  0  0  0  0  0  0  0  0
    7.3591   13.1743   26.7831 N   0  0  0  0  0  0  0  0  0  0  0  0
   10.6987   12.9312   22.2099 N   0  0  0  0  0  0  0  0  0  0  0  0
    9.4090   14.8073   21.6119 O   0  0  0  0  0  0  0  0  0  0  0  0
    6.3786   14.2477   24.6542 O   0  0  0  0  0  0  0  0  0  0  0  0
    5.4683   12.0382   25.4523 O   0  0  0  0  0  0  0  0  0  0  0  0
    6.5919   12.9471   25.2734 S   0  0  0  0  0  0  0  0  0  0  0  0
   11.0609    9.9149   22.1016 Cl  0  0  0  0  0  0  0  0  0  0  0  0
   12.6078   15.6536   22.0781 Cl  0  0  0  0  0  0  0  0  0  0  0  0
    7.1833   10.1443   24.9834 H   0  0  0  0  0  0  0  0  0  0  0  0
    8.9409    8.9673   23.7347 H   0  0  0  0  0  0  0  0  0  0  0  0
    8.7263   13.9265   23.6294 H   0  0  0  0  0  0  0  0  0  0  0  0
   11.4313   15.3282   20.0558 H   0  0  0  0  0  0  0  0  0  0  0  0
   12.2931   13.8591   20.5684 H   0  0  0  0  0  0  0  0  0  0  0  0
    7.4990   12.3509   27.3813 H   0  0  0  0  0  0  0  0  0  0  0  0
    8.1204   13.8617   26.8383 H   0  0  0  0  0  0  0  0  0  0  0  0
   11.6320   12.5426   22.0996 H   0  0  0  0  0  0  0  0  0  0  0  0
  1  2  2  0  0  0  0
  1  5  1  0  0  0  0
  2  6  1  0  0  0  0
  3  4  1  0  0  0  0
  3  5  2  0  0  0  0
  4  6  2  0  0  0  0
  4 10  1  0  0  0  0
  5 14  1  0  0  0  0
  6 15  1  0  0  0  0
  7  8  1  0  0  0  0
  7 10  1  0  0  0  0
  7 11  2  0  0  0  0
  8 16  1  0  0  0  0
  9 14  1  0  0  0  0
 12 14  2  0  0  0  0
 13 14  2  0  0  0  0
  1 17  1  0  0  0  0
  2 18  1  0  0  0  0
  3 19  1  0  0  0  0
  8 20  1  0  0  0  0
  8 21  1  0  0  0  0
  9 22  1  0  0  0  0
  9 23  1  0  0  0  0
 10 24  1  0  0  0  0
M  END
> <Mol Weight>
283,12

> <Formula>
C8H8Cl2N2O3S

> <ID>
EN300-107837

> <name>
Sulfonamides

> <LogP>
0,96

> <ROCS_ShapeQuery>
x0446_0A_x1080_0A_x0929_0A_x0812_0A_x0719_0A_x1140_0A_x0528_0A_x0310_0A

> <ROCS_TanimotoCombo>
0.355 

> <ROCS_ShapeTanimoto>
0.215 

> <ROCS_ColorTanimoto>
0.140 

> <ROCS_RefTversky>
0.196 

> <ROCS_RefColorTversky>
0.149 

> <ROCS_RefTverskyCombo>
0.344 

> <ROCS_FitTversky>
1.853 

> <ROCS_FitColorTversky>
0.701 

> <ROCS_FitTverskyCombo>
2.554 

> <ROCS_ColorScore>
-5.305

> <ROCS_Overlap>
2306.902

> <ROCS_Rank>
100                 

$$$$
untitled-dbase-2759_927
  -OEChem-02082415043D

 25 25  0     0  0  0  0  0  0999 V2000
    9.1380   10.1311   24.2665 C   0  0  0  0  0  0  0  0  0  0  0  0
    7.9940   10.6743   24.8510 C   0  0  0  0  0  0  0  0  0  0  0  0
    9.7929   10.8187   23.2447 C   0  0  0  0  0  0  0  0  0  0  0  0
    8.1594   12.5928   23.3918 C   0  0  0  0  0  0  0  0  0  0  0  0
    7.5047   11.9051   24.4136 C   0  0  0  0  0  0  0  0  0  0  0  0
    9.3035   12.0495   22.8073 C   0  0  0  0  0  0  0  0  0  0  0  0
    6.3119   12.4715   25.0228 C   0  0  0  0  0  0  0  0  0  0  0  0
   11.6133   14.6397   20.7787 C   0  0  0  0  0  0  0  0  0  0  0  0
    6.1593   13.9925   25.0890 C   0  0  0  0  0  0  0  0  0  0  0  0
    9.9747   12.7523   21.7612 N   0  0  0  0  0  0  0  0  0  0  0  0
    5.4216   11.7224   25.4721 O   0  0  0  0  0  0  0  0  0  0  0  0
    9.2044   15.2069   21.5806 O   0  0  0  0  0  0  0  0  0  0  0  0
   10.9437   14.6283   23.3083 O   0  0  0  0  0  0  0  0  0  0  0  0
   10.3447   14.4164   22.0055 S   0  0  0  0  0  0  0  0  0  0  0  0
    7.6537   14.8047   26.0294 Br  0  0  0  0  0  0  0  0  0  0  0  0
    9.5196    9.1730   24.6075 H   0  0  0  0  0  0  0  0  0  0  0  0
    7.4916   10.1295   25.6464 H   0  0  0  0  0  0  0  0  0  0  0  0
   10.6834   10.3861   22.7957 H   0  0  0  0  0  0  0  0  0  0  0  0
    7.7785   13.5529   23.0505 H   0  0  0  0  0  0  0  0  0  0  0  0
   11.9524   15.6761   20.8186 H   0  0  0  0  0  0  0  0  0  0  0  0
   12.4355   13.9594   21.0057 H   0  0  0  0  0  0  0  0  0  0  0  0
   11.1888   14.4136   19.7994 H   0  0  0  0  0  0  0  0  0  0  0  0
    6.1678   14.4225   24.0854 H   0  0  0  0  0  0  0  0  0  0  0  0
    5.2579   14.2625   25.6430 H   0  0  0  0  0  0  0  0  0  0  0  0
    9.6389   12.5213   20.8116 H   0  0  0  0  0  0  0  0  0  0  0  0
  1  2  1  0  0  0  0
  1  3  2  0  0  0  0
  2  5  2  0  0  0  0
  3  6  1  0  0  0  0
  4  5  1  0  0  0  0
  4  6  2  0  0  0  0
  5  7  1  0  0  0  0
  6 10  1  0  0  0  0
  7  9  1  0  0  0  0
  7 11  2  0  0  0  0
  8 14  1  0  0  0  0
  9 15  1  0  0  0  0
 10 14  1  0  0  0  0
 12 14  2  0  0  0  0
 13 14  2  0  0  0  0
  1 16  1  0  0  0  0
  2 17  1  0  0  0  0
  3 18  1  0  0  0  0
  4 19  1  0  0  0  0
  8 20  1  0  0  0  0
  8 21  1  0  0  0  0
  8 22  1  0  0  0  0
  9 23  1  0  0  0  0
  9 24  1  0  0  0  0
 10 25  1  0  0  0  0
M  END
> <Mol Weight>
292,15

> <Formula>
C9H10BrNO3S

> <ID>
EN300-9493480

> <name>
Sulfonamides

> <LogP>
0,63

> <ROCS_ShapeQuery>
x0446_0A_x1080_0A_x0929_0A_x0812_0A_x0719_0A_x1140_0A_x0528_0A_x0310_0A

> <ROCS_TanimotoCombo>
0.355 

> <ROCS_ShapeTanimoto>
0.199 

> <ROCS_ColorTanimoto>
0.156 

> <ROCS_RefTversky>
0.183 

> <ROCS_RefColorTversky>
0.164 

> <ROCS_RefTverskyCombo>
0.346 

> <ROCS_FitTversky>
1.792 

> <ROCS_FitColorTversky>
0.772 

> <ROCS_FitTverskyCombo>
2.563 

> <ROCS_ColorScore>
-5.835

> <ROCS_Overlap>
2154.111

> <ROCS_Rank>
101                 

$$$$
untitled-dbase-826_0
  -OEChem-02082415043D

 17 18  0     0  0  0  0  0  0999 V2000
    8.2883   11.5238   24.4186 C   0  0  0  0  0  0  0  0  0  0  0  0
    8.0985   12.8606   24.8247 C   0  0  0  0  0  0  0  0  0  0  0  0
    8.7091   13.8410   24.1457 C   0  0  0  0  0  0  0  0  0  0  0  0
    9.5543   13.4282   22.9954 C   0  0  0  0  0  0  0  0  0  0  0  0
    7.8501   10.3623   24.8513 N   0  0  0  0  0  0  0  0  0  0  0  0
    8.4044    9.4168   24.0181 N   0  0  0  0  0  0  0  0  0  0  0  0
    9.1682    9.9802   23.0898 N   0  0  0  0  0  0  0  0  0  0  0  0
    9.7621   12.2176   22.5810 N   0  0  0  0  0  0  0  0  0  0  0  0
    9.1035   11.3005   23.3299 N   0  0  0  0  0  0  0  0  0  0  0  0
   11.2137   13.8288   20.8812 N   0  0  0  0  0  0  0  0  0  0  0  0
    9.3423   15.4829   21.4446 O   0  0  0  0  0  0  0  0  0  0  0  0
   11.3304   15.3031   22.9736 O   0  0  0  0  0  0  0  0  0  0  0  0
   10.3638   14.6895   22.0910 S   0  0  0  0  0  0  0  0  0  0  0  0
    7.4650   13.0816   25.6759 H   0  0  0  0  0  0  0  0  0  0  0  0
    8.6076   14.8869   24.4025 H   0  0  0  0  0  0  0  0  0  0  0  0
   10.6381   13.3766   20.1595 H   0  0  0  0  0  0  0  0  0  0  0  0
   11.9943   13.2358   21.1911 H   0  0  0  0  0  0  0  0  0  0  0  0
  1  2  1  0  0  0  0
  1  5  2  0  0  0  0
  1  9  1  0  0  0  0
  2  3  2  0  0  0  0
  3  4  1  0  0  0  0
  4  8  2  0  0  0  0
  4 13  1  0  0  0  0
  5  6  1  0  0  0  0
  6  7  2  0  0  0  0
  7  9  1  0  0  0  0
  8  9  1  0  0  0  0
 10 13  1  0  0  0  0
 11 13  2  0  0  0  0
 12 13  2  0  0  0  0
  2 14  1  0  0  0  0
  3 15  1  0  0  0  0
 10 16  1  0  0  0  0
 10 17  1  0  0  0  0
M  END
> <Mol Weight>
200,18

> <Formula>
C4H4N6O2S

> <ID>
EN300-279345

> <name>
Sulfonamides

> <LogP>
-0,77

> <ROCS_ShapeQuery>
x0446_0A_x1080_0A_x0929_0A_x0812_0A_x0719_0A_x1140_0A_x0528_0A_x0310_0A

> <ROCS_TanimotoCombo>
0.355 

> <ROCS_ShapeTanimoto>
0.199 

> <ROCS_ColorTanimoto>
0.156 

> <ROCS_RefTversky>
0.182 

> <ROCS_RefColorTversky>
0.177 

> <ROCS_RefTverskyCombo>
0.359 

> <ROCS_FitTversky>
1.824 

> <ROCS_FitColorTversky>
0.572 

> <ROCS_FitTverskyCombo>
2.396 

> <ROCS_ColorScore>
-6.328

> <ROCS_Overlap>
2148.635

> <ROCS_Rank>
102                 

$$$$
untitled-dbase-2344_3
  -OEChem-02082415043D

 29 30  0     0  0  0  0  0  0999 V2000
    6.4216   11.2830   24.3527 C   0  0  0  0  0  0  0  0  0  0  0  0
    5.7664   12.5098   24.4152 C   0  0  0  0  0  0  0  0  0  0  0  0
    7.8665   13.6078   24.0186 C   0  0  0  0  0  0  0  0  0  0  0  0
    8.5490   12.3720   23.9519 C   0  0  0  0  0  0  0  0  0  0  0  0
    7.8090   11.1935   24.1207 C   0  0  0  0  0  0  0  0  0  0  0  0
    6.4920   13.6770   24.2458 C   0  0  0  0  0  0  0  0  0  0  0  0
   10.0190   12.5031   23.7238 C   0  0  0  0  0  0  0  0  0  0  0  0
   10.0914   10.2736   22.5872 C   0  0  0  0  0  0  0  0  0  0  0  0
    9.5723    9.5682   23.8212 C   0  0  0  0  0  0  0  0  0  0  0  0
   12.1145   11.6983   22.6898 C   0  0  0  0  0  0  0  0  0  0  0  0
   10.6996   11.5281   22.9975 N   0  0  0  0  0  0  0  0  0  0  0  0
    5.2779   15.4446   22.6619 N   0  0  0  0  0  0  0  0  0  0  0  0
   10.5717   13.5080   24.1775 O   0  0  0  0  0  0  0  0  0  0  0  0
    4.4731   15.0843   25.0843 O   0  0  0  0  0  0  0  0  0  0  0  0
    6.6760   16.2366   24.6756 O   0  0  0  0  0  0  0  0  0  0  0  0
    8.2207    9.8940   24.0945 O   0  0  0  0  0  0  0  0  0  0  0  0
    5.6945   15.2269   24.3046 S   0  0  0  0  0  0  0  0  0  0  0  0
    5.8410   10.3597   24.4838 H   0  0  0  0  0  0  0  0  0  0  0  0
    4.6964   12.5347   24.5849 H   0  0  0  0  0  0  0  0  0  0  0  0
    8.4359   14.5399   23.8941 H   0  0  0  0  0  0  0  0  0  0  0  0
   10.8516    9.6729   22.0941 H   0  0  0  0  0  0  0  0  0  0  0  0
    9.2902   10.4546   21.8777 H   0  0  0  0  0  0  0  0  0  0  0  0
    9.6151    8.4953   23.6682 H   0  0  0  0  0  0  0  0  0  0  0  0
   10.1807    9.8169   24.6834 H   0  0  0  0  0  0  0  0  0  0  0  0
   12.7209   11.2580   23.4951 H   0  0  0  0  0  0  0  0  0  0  0  0
   12.3461   11.1949   21.7396 H   0  0  0  0  0  0  0  0  0  0  0  0
   12.3442   12.7705   22.6023 H   0  0  0  0  0  0  0  0  0  0  0  0
    4.2873   15.3656   22.4015 H   0  0  0  0  0  0  0  0  0  0  0  0
    5.7936   16.1513   22.1235 H   0  0  0  0  0  0  0  0  0  0  0  0
  1  2  2  0  0  0  0
  1  5  1  0  0  0  0
  2  6  1  0  0  0  0
  3  4  1  0  0  0  0
  3  6  2  0  0  0  0
  4  5  2  0  0  0  0
  4  7  1  0  0  0  0
  5 16  1  0  0  0  0
  6 17  1  0  0  0  0
  7 11  1  0  0  0  0
  7 13  2  0  0  0  0
  8  9  1  0  0  0  0
  8 11  1  0  0  0  0
  9 16  1  0  0  0  0
 10 11  1  0  0  0  0
 12 17  1  0  0  0  0
 14 17  2  0  0  0  0
 15 17  2  0  0  0  0
  1 18  1  0  0  0  0
  2 19  1  0  0  0  0
  3 20  1  0  0  0  0
  8 21  1  0  0  0  0
  8 22  1  0  0  0  0
  9 23  1  0  0  0  0
  9 24  1  0  0  0  0
 10 25  1  0  0  0  0
 10 26  1  0  0  0  0
 10 27  1  0  0  0  0
 12 28  1  0  0  0  0
 12 29  1  0  0  0  0
M  END
> <Mol Weight>
256,28

> <Formula>
C10H12N2O4S

> <ID>
EN300-127825

> <name>
Sulfonamides

> <LogP>
-0,45

> <ROCS_ShapeQuery>
x0446_0A_x1080_0A_x0929_0A_x0812_0A_x0719_0A_x1140_0A_x0528_0A_x0310_0A

> <ROCS_TanimotoCombo>
0.355 

> <ROCS_ShapeTanimoto>
0.212 

> <ROCS_ColorTanimoto>
0.142 

> <ROCS_RefTversky>
0.195 

> <ROCS_RefColorTversky>
0.154 

> <ROCS_RefTverskyCombo>
0.349 

> <ROCS_FitTversky>
1.731 

> <ROCS_FitColorTversky>
0.646 

> <ROCS_FitTverskyCombo>
2.377 

> <ROCS_ColorScore>
-5.506

> <ROCS_Overlap>
2298.417

> <ROCS_Rank>
103                 

$$$$
untitled-dbase-737_0
  -OEChem-02082415043D

 21 22  0     0  0  0  0  0  0999 V2000
    6.3130   12.8629   25.1986 C   0  0  0  0  0  0  0  0  0  0  0  0
    6.0737   11.4917   25.2658 C   0  0  0  0  0  0  0  0  0  0  0  0
    7.3548   13.3706   24.4139 C   0  0  0  0  0  0  0  0  0  0  0  0
    6.8651   10.5862   24.5533 C   0  0  0  0  0  0  0  0  0  0  0  0
    9.6629   11.3810   22.3954 C   0  0  0  0  0  0  0  0  0  0  0  0
    8.1660   12.4769   23.6868 C   0  0  0  0  0  0  0  0  0  0  0  0
    7.9030   11.1081   23.7731 C   0  0  0  0  0  0  0  0  0  0  0  0
    9.2789   12.6341   22.8140 C   0  0  0  0  0  0  0  0  0  0  0  0
    8.8270   10.4672   22.9789 N   0  0  0  0  0  0  0  0  0  0  0  0
   11.2725   13.5726   21.3141 N   0  0  0  0  0  0  0  0  0  0  0  0
    9.0814   14.9078   21.5633 O   0  0  0  0  0  0  0  0  0  0  0  0
   10.6480   14.7315   23.5286 O   0  0  0  0  0  0  0  0  0  0  0  0
   10.0181   14.1029   22.3593 S   0  0  0  0  0  0  0  0  0  0  0  0
    5.6847   13.5476   25.7621 H   0  0  0  0  0  0  0  0  0  0  0  0
    5.2590   11.1194   25.8818 H   0  0  0  0  0  0  0  0  0  0  0  0
    7.5283   14.4420   24.3726 H   0  0  0  0  0  0  0  0  0  0  0  0
    6.6781    9.5189   24.6070 H   0  0  0  0  0  0  0  0  0  0  0  0
   10.4551   11.0558   21.7353 H   0  0  0  0  0  0  0  0  0  0  0  0
    8.8803    9.4666   22.8468 H   0  0  0  0  0  0  0  0  0  0  0  0
   12.0854   13.0996   21.7276 H   0  0  0  0  0  0  0  0  0  0  0  0
   11.0168   13.2212   20.3833 H   0  0  0  0  0  0  0  0  0  0  0  0
  1  2  1  0  0  0  0
  1  3  2  0  0  0  0
  2  4  2  0  0  0  0
  3  6  1  0  0  0  0
  4  7  1  0  0  0  0
  5  8  2  0  0  0  0
  5  9  1  0  0  0  0
  6  7  2  0  0  0  0
  6  8  1  0  0  0  0
  7  9  1  0  0  0  0
  8 13  1  0  0  0  0
 10 13  1  0  0  0  0
 11 13  2  0  0  0  0
 12 13  2  0  0  0  0
  1 14  1  0  0  0  0
  2 15  1  0  0  0  0
  3 16  1  0  0  0  0
  4 17  1  0  0  0  0
  5 18  1  0  0  0  0
  9 19  1  0  0  0  0
 10 20  1  0  0  0  0
 10 21  1  0  0  0  0
M  END
> <Mol Weight>
196,22

> <Formula>
C8H8N2O2S

> <ID>
EN300-254546

> <name>
Sulfonamides

> <LogP>
0,68

> <ROCS_ShapeQuery>
x0446_0A_x1080_0A_x0929_0A_x0812_0A_x0719_0A_x1140_0A_x0528_0A_x0310_0A

> <ROCS_TanimotoCombo>
0.354 

> <ROCS_ShapeTanimoto>
0.189 

> <ROCS_ColorTanimoto>
0.165 

> <ROCS_RefTversky>
0.175 

> <ROCS_RefColorTversky>
0.172 

> <ROCS_RefTverskyCombo>
0.347 

> <ROCS_FitTversky>
1.771 

> <ROCS_FitColorTversky>
0.809 

> <ROCS_FitTverskyCombo>
2.580 

> <ROCS_ColorScore>
-6.133

> <ROCS_Overlap>
2058.861

> <ROCS_Rank>
104                 

$$$$
untitled-dbase-2830_10596
  -OEChem-02082415043D

 31 31  0     0  0  0  0  0  0999 V2000
    9.4508   10.4010   23.4994 C   0  0  0  0  0  0  0  0  0  0  0  0
    8.0957   10.6372   23.8709 C   0  0  0  0  0  0  0  0  0  0  0  0
   10.1612   11.5731   23.3611 C   0  0  0  0  0  0  0  0  0  0  0  0
    7.8220   11.9809   24.0026 C   0  0  0  0  0  0  0  0  0  0  0  0
   12.8560   15.4107   19.5876 C   0  0  0  0  0  0  0  0  0  0  0  0
   11.6108   11.7539   22.9829 C   0  0  0  0  0  0  0  0  0  0  0  0
   11.9538   13.1941   22.6101 C   0  0  0  0  0  0  0  0  0  0  0  0
   11.3815   15.7138   19.7323 C   0  0  0  0  0  0  0  0  0  0  0  0
    5.6802   13.1078   22.8857 N   0  0  0  0  0  0  0  0  0  0  0  0
   11.1514   13.6919   21.4783 N   0  0  0  0  0  0  0  0  0  0  0  0
    5.5149   11.9988   25.2069 O   0  0  0  0  0  0  0  0  0  0  0  0
    6.7776   14.1653   24.9628 O   0  0  0  0  0  0  0  0  0  0  0  0
   11.6309   16.0947   22.3097 O   0  0  0  0  0  0  0  0  0  0  0  0
    9.3605   15.5277   21.3713 O   0  0  0  0  0  0  0  0  0  0  0  0
    9.1955   12.9510   23.6788 S   0  0  0  0  0  0  0  0  0  0  0  0
    6.3713   12.8769   24.4288 S   0  0  0  0  0  0  0  0  0  0  0  0
   10.8011   15.3596   21.3753 S   0  0  0  0  0  0  0  0  0  0  0  0
    9.8790    9.4191   23.3426 H   0  0  0  0  0  0  0  0  0  0  0  0
    7.3603    9.8598   24.0330 H   0  0  0  0  0  0  0  0  0  0  0  0
   13.4419   16.0218   20.2805 H   0  0  0  0  0  0  0  0  0  0  0  0
   13.0626   14.3567   19.8003 H   0  0  0  0  0  0  0  0  0  0  0  0
   13.2016   15.6186   18.5698 H   0  0  0  0  0  0  0  0  0  0  0  0
   11.8332   11.0966   22.1328 H   0  0  0  0  0  0  0  0  0  0  0  0
   12.2540   11.4130   23.8043 H   0  0  0  0  0  0  0  0  0  0  0  0
   11.7503   13.8571   23.4570 H   0  0  0  0  0  0  0  0  0  0  0  0
   13.0093   13.3009   22.3389 H   0  0  0  0  0  0  0  0  0  0  0  0
   10.7877   15.1070   19.0429 H   0  0  0  0  0  0  0  0  0  0  0  0
   11.1783   16.7706   19.5393 H   0  0  0  0  0  0  0  0  0  0  0  0
    6.1397   13.7695   22.2481 H   0  0  0  0  0  0  0  0  0  0  0  0
    5.2749   12.2903   22.4139 H   0  0  0  0  0  0  0  0  0  0  0  0
   10.4159   13.0424   21.1707 H   0  0  0  0  0  0  0  0  0  0  0  0
  1  2  1  0  0  0  0
  1  3  2  0  0  0  0
  2  4  2  0  0  0  0
  3  6  1  0  0  0  0
  3 15  1  0  0  0  0
  4 15  1  0  0  0  0
  4 16  1  0  0  0  0
  5  8  1  0  0  0  0
  6  7  1  0  0  0  0
  7 10  1  0  0  0  0
  8 17  1  0  0  0  0
  9 16  1  0  0  0  0
 10 17  1  0  0  0  0
 11 16  2  0  0  0  0
 12 16  2  0  0  0  0
 13 17  2  0  0  0  0
 14 17  2  0  0  0  0
  1 18  1  0  0  0  0
  2 19  1  0  0  0  0
  5 20  1  0  0  0  0
  5 21  1  0  0  0  0
  5 22  1  0  0  0  0
  6 23  1  0  0  0  0
  6 24  1  0  0  0  0
  7 25  1  0  0  0  0
  7 26  1  0  0  0  0
  8 27  1  0  0  0  0
  8 28  1  0  0  0  0
  9 29  1  0  0  0  0
  9 30  1  0  0  0  0
 10 31  1  0  0  0  0
M  END
> <Mol Weight>
298,39

> <Formula>
C8H14N2O4S3

> <ID>
EN300-124626

> <name>
Sulfonamides

> <LogP>
-0,10

> <ROCS_ShapeQuery>
x0446_0A_x1080_0A_x0929_0A_x0812_0A_x0719_0A_x1140_0A_x0528_0A_x0310_0A

> <ROCS_TanimotoCombo>
0.354 

> <ROCS_ShapeTanimoto>
0.197 

> <ROCS_ColorTanimoto>
0.158 

> <ROCS_RefTversky>
0.182 

> <ROCS_RefColorTversky>
0.169 

> <ROCS_RefTverskyCombo>
0.350 

> <ROCS_FitTversky>
1.722 

> <ROCS_FitColorTversky>
0.706 

> <ROCS_FitTverskyCombo>
2.428 

> <ROCS_ColorScore>
-6.015

> <ROCS_Overlap>
2144.827

> <ROCS_Rank>
105                 

$$$$
untitled-dbase-2822_13
  -OEChem-02082415043D

 26 26  0     0  0  0  0  0  0999 V2000
   10.0660   10.8155   23.7516 C   0  0  0  0  0  0  0  0  0  0  0  0
    7.7471   10.2355   24.1033 C   0  0  0  0  0  0  0  0  0  0  0  0
    9.7123   12.1599   23.6371 C   0  0  0  0  0  0  0  0  0  0  0  0
    8.3761   12.5421   23.7557 C   0  0  0  0  0  0  0  0  0  0  0  0
    9.0833    9.8533   23.9847 C   0  0  0  0  0  0  0  0  0  0  0  0
    7.3935   11.5799   23.9888 C   0  0  0  0  0  0  0  0  0  0  0  0
   10.7650   13.1385   23.3937 C   0  0  0  0  0  0  0  0  0  0  0  0
   12.4889   13.7747   21.8764 C   0  0  0  0  0  0  0  0  0  0  0  0
    6.9390   16.0472   22.3972 C   0  0  0  0  0  0  0  0  0  0  0  0
    8.0240   13.9272   23.6358 N   0  0  0  0  0  0  0  0  0  0  0  0
   11.0269   14.0824   24.1480 O   0  0  0  0  0  0  0  0  0  0  0  0
    9.2333   15.0616   21.6677 O   0  0  0  0  0  0  0  0  0  0  0  0
    7.1449   13.7411   21.1776 O   0  0  0  0  0  0  0  0  0  0  0  0
   11.4274   12.8801   22.2263 O   0  0  0  0  0  0  0  0  0  0  0  0
    7.9142   14.5989   22.0571 S   0  0  0  0  0  0  0  0  0  0  0  0
    9.5200    8.1942   24.1238 Cl  0  0  0  0  0  0  0  0  0  0  0  0
    5.7268   12.0085   24.1427 Cl  0  0  0  0  0  0  0  0  0  0  0  0
   11.1088   10.5198   23.6571 H   0  0  0  0  0  0  0  0  0  0  0  0
    6.9830    9.4826   24.2847 H   0  0  0  0  0  0  0  0  0  0  0  0
   12.9338   13.4606   20.9290 H   0  0  0  0  0  0  0  0  0  0  0  0
   13.2452   13.7704   22.6655 H   0  0  0  0  0  0  0  0  0  0  0  0
   12.0829   14.7833   21.7690 H   0  0  0  0  0  0  0  0  0  0  0  0
    6.7854   16.5866   21.4613 H   0  0  0  0  0  0  0  0  0  0  0  0
    5.9833   15.7282   22.8160 H   0  0  0  0  0  0  0  0  0  0  0  0
    7.4819   16.6678   23.1117 H   0  0  0  0  0  0  0  0  0  0  0  0
    8.4731   14.5347   24.3371 H   0  0  0  0  0  0  0  0  0  0  0  0
  1  3  1  0  0  0  0
  1  5  2  0  0  0  0
  2  5  1  0  0  0  0
  2  6  2  0  0  0  0
  3  4  2  0  0  0  0
  3  7  1  0  0  0  0
  4  6  1  0  0  0  0
  4 10  1  0  0  0  0
  5 16  1  0  0  0  0
  6 17  1  0  0  0  0
  7 11  2  0  0  0  0
  7 14  1  0  0  0  0
  8 14  1  0  0  0  0
  9 15  1  0  0  0  0
 10 15  1  0  0  0  0
 12 15  2  0  0  0  0
 13 15  2  0  0  0  0
  1 18  1  0  0  0  0
  2 19  1  0  0  0  0
  8 20  1  0  0  0  0
  8 21  1  0  0  0  0
  8 22  1  0  0  0  0
  9 23  1  0  0  0  0
  9 24  1  0  0  0  0
  9 25  1  0  0  0  0
 10 26  1  0  0  0  0
M  END
> <Mol Weight>
298,13

> <Formula>
C9H9Cl2NO4S

> <ID>
EN300-1697090

> <name>
Sulfonamides

> <LogP>
1,56

> <ROCS_ShapeQuery>
x0446_0A_x1080_0A_x0929_0A_x0812_0A_x0719_0A_x1140_0A_x0528_0A_x0310_0A

> <ROCS_TanimotoCombo>
0.354 

> <ROCS_ShapeTanimoto>
0.219 

> <ROCS_ColorTanimoto>
0.135 

> <ROCS_RefTversky>
0.200 

> <ROCS_RefColorTversky>
0.141 

> <ROCS_RefTverskyCombo>
0.341 

> <ROCS_FitTversky>
1.816 

> <ROCS_FitColorTversky>
0.758 

> <ROCS_FitTverskyCombo>
2.574 

> <ROCS_ColorScore>
-5.014

> <ROCS_Overlap>
2355.043

> <ROCS_Rank>
106                 

$$$$
untitled-dbase-2350_13
  -OEChem-02082415043D

 23 23  0     0  0  0  0  0  0999 V2000
    9.0372   10.0577   24.6844 C   0  0  0  0  0  0  0  0  0  0  0  0
    7.8997   10.8554   24.8081 C   0  0  0  0  0  0  0  0  0  0  0  0
    9.9553   10.3057   23.6639 C   0  0  0  0  0  0  0  0  0  0  0  0
    7.6802   11.9010   23.9113 C   0  0  0  0  0  0  0  0  0  0  0  0
    8.5982   12.1490   22.8908 C   0  0  0  0  0  0  0  0  0  0  0  0
    9.7358   11.3513   22.7671 C   0  0  0  0  0  0  0  0  0  0  0  0
    8.3824   13.2645   21.9212 C   0  0  0  0  0  0  0  0  0  0  0  0
    6.4556   12.7419   24.0646 C   0  0  0  0  0  0  0  0  0  0  0  0
   10.9087   13.5642   21.1603 N   0  0  0  0  0  0  0  0  0  0  0  0
    9.3819   15.6209   21.3962 O   0  0  0  0  0  0  0  0  0  0  0  0
   10.1517   14.4020   23.4715 O   0  0  0  0  0  0  0  0  0  0  0  0
   10.6249   11.5817   21.7907 F   0  0  0  0  0  0  0  0  0  0  0  0
    5.6641   12.3672   25.1120 F   0  0  0  0  0  0  0  0  0  0  0  0
    6.7250   14.0635   24.2748 F   0  0  0  0  0  0  0  0  0  0  0  0
    5.6517   12.7010   22.9633 F   0  0  0  0  0  0  0  0  0  0  0  0
    9.7322   14.3874   22.0802 S   0  0  0  0  0  0  0  0  0  0  0  0
    9.2083    9.2437   25.3829 H   0  0  0  0  0  0  0  0  0  0  0  0
    7.1909   10.6544   25.6070 H   0  0  0  0  0  0  0  0  0  0  0  0
   10.8413    9.6852   23.5681 H   0  0  0  0  0  0  0  0  0  0  0  0
    7.4580   13.8156   22.1237 H   0  0  0  0  0  0  0  0  0  0  0  0
    8.3555   12.9123   20.8846 H   0  0  0  0  0  0  0  0  0  0  0  0
   11.3071   12.7031   21.5544 H   0  0  0  0  0  0  0  0  0  0  0  0
   10.7828   13.5335   20.1410 H   0  0  0  0  0  0  0  0  0  0  0  0
  1  2  2  0  0  0  0
  1  3  1  0  0  0  0
  2  4  1  0  0  0  0
  3  6  2  0  0  0  0
  4  5  2  0  0  0  0
  4  8  1  0  0  0  0
  5  6  1  0  0  0  0
  5  7  1  0  0  0  0
  6 12  1  0  0  0  0
  7 16  1  0  0  0  0
  8 13  1  0  0  0  0
  8 14  1  0  0  0  0
  8 15  1  0  0  0  0
  9 16  1  0  0  0  0
 10 16  2  0  0  0  0
 11 16  2  0  0  0  0
  1 17  1  0  0  0  0
  2 18  1  0  0  0  0
  3 19  1  0  0  0  0
  7 20  1  0  0  0  0
  7 21  1  0  0  0  0
  9 22  1  0  0  0  0
  9 23  1  0  0  0  0
M  END
> <Mol Weight>
257,20

> <Formula>
C8H7F4NO2S

> <ID>
EN300-39672689

> <name>
Sulfonamides

> <LogP>
1,36

> <ROCS_ShapeQuery>
x0446_0A_x1080_0A_x0929_0A_x0812_0A_x0719_0A_x1140_0A_x0528_0A_x0310_0A

> <ROCS_TanimotoCombo>
0.354 

> <ROCS_ShapeTanimoto>
0.208 

> <ROCS_ColorTanimoto>
0.146 

> <ROCS_RefTversky>
0.191 

> <ROCS_RefColorTversky>
0.147 

> <ROCS_RefTverskyCombo>
0.339 

> <ROCS_FitTversky>
1.759 

> <ROCS_FitColorTversky>
0.925 

> <ROCS_FitTverskyCombo>
2.684 

> <ROCS_ColorScore>
-5.238

> <ROCS_Overlap>
2255.819

> <ROCS_Rank>
107                 

$$$$
untitled-dbase-2562_71
  -OEChem-02082415043D

 34 35  0     1  0  0  0  0  0999 V2000
    6.4555   11.1956   23.6417 C   0  0  0  0  0  0  0  0  0  0  0  0
    5.4279   11.5302   24.5439 C   0  0  0  0  0  0  0  0  0  0  0  0
    7.5925   11.7195   24.2068 C   0  0  0  0  0  0  0  0  0  0  0  0
    9.6573   12.9097   23.5079 C   0  0  0  0  0  0  0  0  0  0  0  0
   10.8683   10.3221   22.8450 C   0  0  0  0  0  0  0  0  0  0  0  0
   11.7566   11.5311   23.0432 C   0  0  0  0  0  0  0  0  0  0  0  0
    9.6702   10.4102   23.7754 C   0  0  0  0  0  0  0  0  0  0  0  0
   10.9568   12.7751   22.7132 C   0  0  2  0  0  0  0  0  0  0  0  0
    8.0248   13.0076   26.3230 C   0  0  0  0  0  0  0  0  0  0  0  0
   12.4357   14.9392   20.5417 C   0  0  0  0  0  0  0  0  0  0  0  0
    5.8728   12.2135   25.6018 N   0  0  0  0  0  0  0  0  0  0  0  0
    7.1925   12.3125   25.3680 N   0  0  0  0  0  0  0  0  0  0  0  0
    8.9672   11.7049   23.7540 N   0  0  0  0  0  0  0  0  0  0  0  0
   11.7544   13.9544   22.9397 N   0  0  0  0  0  0  0  0  0  0  0  0
    9.2435   14.0317   23.8130 O   0  0  0  0  0  0  0  0  0  0  0  0
   12.0706   16.5005   22.6104 O   0  0  0  0  0  0  0  0  0  0  0  0
   10.0795   15.3409   21.5869 O   0  0  0  0  0  0  0  0  0  0  0  0
   11.4744   15.3369   21.9839 S   0  0  0  0  0  0  0  0  0  0  0  0
    6.3781   10.6508   22.7121 H   0  0  0  0  0  0  0  0  0  0  0  0
    4.3735   11.3046   24.4743 H   0  0  0  0  0  0  0  0  0  0  0  0
   10.5304   10.2632   21.8033 H   0  0  0  0  0  0  0  0  0  0  0  0
   11.4305    9.4049   23.0530 H   0  0  0  0  0  0  0  0  0  0  0  0
   12.1223   11.5634   24.0777 H   0  0  0  0  0  0  0  0  0  0  0  0
   12.6384   11.4601   22.3956 H   0  0  0  0  0  0  0  0  0  0  0  0
    8.9497    9.6223   23.5266 H   0  0  0  0  0  0  0  0  0  0  0  0
    9.9980   10.2496   24.8103 H   0  0  0  0  0  0  0  0  0  0  0  0
   10.6622   12.7473   21.6374 H   0  0  0  0  0  0  0  0  0  0  0  0
    8.0599   14.0617   26.0356 H   0  0  0  0  0  0  0  0  0  0  0  0
    7.5992   12.8983   27.3244 H   0  0  0  0  0  0  0  0  0  0  0  0
    9.0284   12.5733   26.3111 H   0  0  0  0  0  0  0  0  0  0  0  0
   12.3435   15.7605   19.8292 H   0  0  0  0  0  0  0  0  0  0  0  0
   13.4757   14.8115   20.8456 H   0  0  0  0  0  0  0  0  0  0  0  0
   12.0461   14.0150   20.1124 H   0  0  0  0  0  0  0  0  0  0  0  0
   12.7252   13.7496   23.1986 H   0  0  0  0  0  0  0  0  0  0  0  0
  1  2  1  0  0  0  0
  1  3  2  0  0  0  0
  2 11  2  0  0  0  0
  3 12  1  0  0  0  0
  3 13  1  0  0  0  0
  4  8  1  0  0  0  0
  4 13  1  0  0  0  0
  4 15  2  0  0  0  0
  5  6  1  0  0  0  0
  5  7  1  0  0  0  0
  6  8  1  0  0  0  0
  7 13  1  0  0  0  0
  8 14  1  0  0  0  0
  9 12  1  0  0  0  0
 10 18  1  0  0  0  0
 11 12  1  0  0  0  0
 14 18  1  0  0  0  0
 16 18  2  0  0  0  0
 17 18  2  0  0  0  0
  1 19  1  0  0  0  0
  2 20  1  0  0  0  0
  5 21  1  0  0  0  0
  5 22  1  0  0  0  0
  6 23  1  0  0  0  0
  6 24  1  0  0  0  0
  7 25  1  0  0  0  0
  7 26  1  0  0  0  0
  8 27  1  0  0  0  0
  9 28  1  0  0  0  0
  9 29  1  0  0  0  0
  9 30  1  0  0  0  0
 10 31  1  0  0  0  0
 10 32  1  0  0  0  0
 10 33  1  0  0  0  0
 14 34  1  0  0  0  0
M  END
> <Mol Weight>
272,32

> <Formula>
C10H16N4O3S

> <ID>
EN300-158304

> <name>
Sulfonamides

> <LogP>
-1,40

> <ROCS_ShapeQuery>
x0446_0A_x1080_0A_x0929_0A_x0812_0A_x0719_0A_x1140_0A_x0528_0A_x0310_0A

> <ROCS_TanimotoCombo>
0.354 

> <ROCS_ShapeTanimoto>
0.223 

> <ROCS_ColorTanimoto>
0.131 

> <ROCS_RefTversky>
0.203 

> <ROCS_RefColorTversky>
0.144 

> <ROCS_RefTverskyCombo>
0.347 

> <ROCS_FitTversky>
1.758 

> <ROCS_FitColorTversky>
0.602 

> <ROCS_FitTverskyCombo>
2.360 

> <ROCS_ColorScore>
-5.129

> <ROCS_Overlap>
2398.546

> <ROCS_Rank>
108                 

$$$$
untitled-dbase-757_2
  -OEChem-02082415043D

 20 21  0     0  0  0  0  0  0999 V2000
    6.3926   12.6792   25.1454 C   0  0  0  0  0  0  0  0  0  0  0  0
    7.3936   13.2834   24.3868 C   0  0  0  0  0  0  0  0  0  0  0  0
    6.2751   11.2961   25.1157 C   0  0  0  0  0  0  0  0  0  0  0  0
    9.7384   11.4029   22.3118 C   0  0  0  0  0  0  0  0  0  0  0  0
    8.2339   12.4520   23.6289 C   0  0  0  0  0  0  0  0  0  0  0  0
    9.3343   12.6448   22.7523 C   0  0  0  0  0  0  0  0  0  0  0  0
    8.0040   11.0807   23.6916 C   0  0  0  0  0  0  0  0  0  0  0  0
    7.0543   10.4474   24.4057 N   0  0  0  0  0  0  0  0  0  0  0  0
    8.9245   10.4619   22.8873 N   0  0  0  0  0  0  0  0  0  0  0  0
   11.2951   13.6456   21.2494 N   0  0  0  0  0  0  0  0  0  0  0  0
    9.0802   14.9327   21.5381 O   0  0  0  0  0  0  0  0  0  0  0  0
   10.6678   14.7583   23.4867 O   0  0  0  0  0  0  0  0  0  0  0  0
   10.0398   14.1346   22.3136 S   0  0  0  0  0  0  0  0  0  0  0  0
    5.7186   13.2792   25.7473 H   0  0  0  0  0  0  0  0  0  0  0  0
    7.5116   14.3621   24.3876 H   0  0  0  0  0  0  0  0  0  0  0  0
    5.5007   10.8082   25.7017 H   0  0  0  0  0  0  0  0  0  0  0  0
   10.5317   11.1031   21.6411 H   0  0  0  0  0  0  0  0  0  0  0  0
    8.9922    9.4643   22.7410 H   0  0  0  0  0  0  0  0  0  0  0  0
   12.1210   13.1830   21.6484 H   0  0  0  0  0  0  0  0  0  0  0  0
   11.0381   13.3033   20.3156 H   0  0  0  0  0  0  0  0  0  0  0  0
  1  2  2  0  0  0  0
  1  3  1  0  0  0  0
  2  5  1  0  0  0  0
  3  8  2  0  0  0  0
  4  6  2  0  0  0  0
  4  9  1  0  0  0  0
  5  6  1  0  0  0  0
  5  7  2  0  0  0  0
  6 13  1  0  0  0  0
  7  8  1  0  0  0  0
  7  9  1  0  0  0  0
 10 13  1  0  0  0  0
 11 13  2  0  0  0  0
 12 13  2  0  0  0  0
  1 14  1  0  0  0  0
  2 15  1  0  0  0  0
  3 16  1  0  0  0  0
  4 17  1  0  0  0  0
  9 18  1  0  0  0  0
 10 19  1  0  0  0  0
 10 20  1  0  0  0  0
M  END
> <Mol Weight>
197,21

> <Formula>
C7H7N3O2S

> <ID>
EN300-372004

> <name>
Sulfonamides

> <LogP>
-0,17

> <ROCS_ShapeQuery>
x0446_0A_x1080_0A_x0929_0A_x0812_0A_x0719_0A_x1140_0A_x0528_0A_x0310_0A

> <ROCS_TanimotoCombo>
0.354 

> <ROCS_ShapeTanimoto>
0.191 

> <ROCS_ColorTanimoto>
0.163 

> <ROCS_RefTversky>
0.176 

> <ROCS_RefColorTversky>
0.174 

> <ROCS_RefTverskyCombo>
0.350 

> <ROCS_FitTversky>
1.775 

> <ROCS_FitColorTversky>
0.728 

> <ROCS_FitTverskyCombo>
2.503 

> <ROCS_ColorScore>
-6.212

> <ROCS_Overlap>
2073.822

> <ROCS_Rank>
109                 

$$$$
untitled-dbase-2763_2
  -OEChem-02082415043D

 25 26  0     1  0  0  0  0  0999 V2000
    6.4416   11.0069   24.6238 C   0  0  0  0  0  0  0  0  0  0  0  0
    5.5770   12.0388   24.9848 C   0  0  0  0  0  0  0  0  0  0  0  0
    7.2472   13.6583   24.3403 C   0  0  0  0  0  0  0  0  0  0  0  0
    8.1259   12.6298   23.9651 C   0  0  0  0  0  0  0  0  0  0  0  0
    7.7083   11.2988   24.1089 C   0  0  0  0  0  0  0  0  0  0  0  0
    5.9793   13.3641   24.8428 C   0  0  0  0  0  0  0  0  0  0  0  0
   10.4012   11.7297   23.4908 C   0  0  0  0  0  0  0  0  0  0  0  0
    9.6477   10.4960   23.0138 C   0  0  0  0  0  0  0  0  0  0  0  0
    9.4964   12.9543   23.4421 C   0  0  1  0  0  0  0  0  0  0  0  0
   10.8792   13.3104   21.2032 N   0  0  0  0  0  0  0  0  0  0  0  0
    8.3910   12.6674   21.0920 O   0  0  0  0  0  0  0  0  0  0  0  0
    9.0408   14.9848   21.8618 O   0  0  0  0  0  0  0  0  0  0  0  0
    8.4955   10.2160   23.8127 O   0  0  0  0  0  0  0  0  0  0  0  0
    9.2985   13.5593   21.7884 S   0  0  0  0  0  0  0  0  0  0  0  0
    4.8118   14.7648   25.3390 Br  0  0  0  0  0  0  0  0  0  0  0  0
    6.1218    9.9752   24.7458 H   0  0  0  0  0  0  0  0  0  0  0  0
    4.5949   11.7923   25.3796 H   0  0  0  0  0  0  0  0  0  0  0  0
    7.5652   14.6941   24.2393 H   0  0  0  0  0  0  0  0  0  0  0  0
   10.7132   11.5653   24.5305 H   0  0  0  0  0  0  0  0  0  0  0  0
   11.3069   11.8801   22.8934 H   0  0  0  0  0  0  0  0  0  0  0  0
    9.3407   10.5805   21.9651 H   0  0  0  0  0  0  0  0  0  0  0  0
   10.3049    9.6223   23.0822 H   0  0  0  0  0  0  0  0  0  0  0  0
    9.9513   13.7677   24.0183 H   0  0  0  0  0  0  0  0  0  0  0  0
   11.6243   13.9211   21.5602 H   0  0  0  0  0  0  0  0  0  0  0  0
   11.1815   12.3428   21.0358 H   0  0  0  0  0  0  0  0  0  0  0  0
  1  2  2  0  0  0  0
  1  5  1  0  0  0  0
  2  6  1  0  0  0  0
  3  4  1  0  0  0  0
  3  6  2  0  0  0  0
  4  5  2  0  0  0  0
  4  9  1  0  0  0  0
  5 13  1  0  0  0  0
  6 15  1  0  0  0  0
  7  8  1  0  0  0  0
  7  9  1  0  0  0  0
  8 13  1  0  0  0  0
  9 14  1  0  0  0  0
 10 14  1  0  0  0  0
 11 14  2  0  0  0  0
 12 14  2  0  0  0  0
  1 16  1  0  0  0  0
  2 17  1  0  0  0  0
  3 18  1  0  0  0  0
  7 19  1  0  0  0  0
  7 20  1  0  0  0  0
  8 21  1  0  0  0  0
  8 22  1  0  0  0  0
  9 23  1  0  0  0  0
 10 24  1  0  0  0  0
 10 25  1  0  0  0  0
M  END
> <Mol Weight>
292,15

> <Formula>
C9H10BrNO3S

> <ID>
EN300-679689

> <name>
Sulfonamides

> <LogP>
1,05

> <ROCS_ShapeQuery>
x0446_0A_x1080_0A_x0929_0A_x0812_0A_x0719_0A_x1140_0A_x0528_0A_x0310_0A

> <ROCS_TanimotoCombo>
0.354 

> <ROCS_ShapeTanimoto>
0.207 

> <ROCS_ColorTanimoto>
0.147 

> <ROCS_RefTversky>
0.189 

> <ROCS_RefColorTversky>
0.159 

> <ROCS_RefTverskyCombo>
0.348 

> <ROCS_FitTversky>
1.823 

> <ROCS_FitColorTversky>
0.664 

> <ROCS_FitTverskyCombo>
2.487 

> <ROCS_ColorScore>
-5.657

> <ROCS_Overlap>
2234.792

> <ROCS_Rank>
110                 

$$$$
untitled-dbase-2602_0
  -OEChem-02082415043D

 20 21  0     0  0  0  0  0  0999 V2000
    7.3974   13.2807   24.3874 C   0  0  0  0  0  0  0  0  0  0  0  0
    6.2806   11.2920   25.1151 C   0  0  0  0  0  0  0  0  0  0  0  0
    9.7404   11.4038   22.3071 C   0  0  0  0  0  0  0  0  0  0  0  0
    8.2372   12.4506   23.6274 C   0  0  0  0  0  0  0  0  0  0  0  0
    9.3364   12.6449   22.7497 C   0  0  0  0  0  0  0  0  0  0  0  0
    6.3976   12.6751   25.1464 C   0  0  0  0  0  0  0  0  0  0  0  0
    8.0078   11.0791   23.6886 C   0  0  0  0  0  0  0  0  0  0  0  0
    7.0593   10.4446   24.4030 N   0  0  0  0  0  0  0  0  0  0  0  0
    8.9276   10.4617   22.8824 N   0  0  0  0  0  0  0  0  0  0  0  0
   11.2962   13.6481   21.2471 N   0  0  0  0  0  0  0  0  0  0  0  0
    9.0814   14.9346   21.5390 O   0  0  0  0  0  0  0  0  0  0  0  0
   10.6701   14.7575   23.4863 O   0  0  0  0  0  0  0  0  0  0  0  0
   10.0414   14.1353   22.3128 S   0  0  0  0  0  0  0  0  0  0  0  0
    5.2269   13.7177   26.1943 Br  0  0  0  0  0  0  0  0  0  0  0  0
    7.5286   14.3584   24.3789 H   0  0  0  0  0  0  0  0  0  0  0  0
    5.5102   10.7895   25.6957 H   0  0  0  0  0  0  0  0  0  0  0  0
   10.5327   11.1046   21.6350 H   0  0  0  0  0  0  0  0  0  0  0  0
    8.9959    9.4643   22.7355 H   0  0  0  0  0  0  0  0  0  0  0  0
   12.1225   13.1851   21.6449 H   0  0  0  0  0  0  0  0  0  0  0  0
   11.0388   13.3072   20.3129 H   0  0  0  0  0  0  0  0  0  0  0  0
  1  4  1  0  0  0  0
  1  6  2  0  0  0  0
  2  6  1  0  0  0  0
  2  8  2  0  0  0  0
  3  5  2  0  0  0  0
  3  9  1  0  0  0  0
  4  5  1  0  0  0  0
  4  7  2  0  0  0  0
  5 13  1  0  0  0  0
  6 14  1  0  0  0  0
  7  8  1  0  0  0  0
  7  9  1  0  0  0  0
 10 13  1  0  0  0  0
 11 13  2  0  0  0  0
 12 13  2  0  0  0  0
  1 15  1  0  0  0  0
  2 16  1  0  0  0  0
  3 17  1  0  0  0  0
  9 18  1  0  0  0  0
 10 19  1  0  0  0  0
 10 20  1  0  0  0  0
M  END
> <Mol Weight>
276,11

> <Formula>
C7H6BrN3O2S

> <ID>
EN300-223688

> <name>
Sulfonamides

> <LogP>
0,60

> <ROCS_ShapeQuery>
x0446_0A_x1080_0A_x0929_0A_x0812_0A_x0719_0A_x1140_0A_x0528_0A_x0310_0A

> <ROCS_TanimotoCombo>
0.354 

> <ROCS_ShapeTanimoto>
0.194 

> <ROCS_ColorTanimoto>
0.159 

> <ROCS_RefTversky>
0.179 

> <ROCS_RefColorTversky>
0.174 

> <ROCS_RefTverskyCombo>
0.353 

> <ROCS_FitTversky>
1.765 

> <ROCS_FitColorTversky>
0.655 

> <ROCS_FitTverskyCombo>
2.420 

> <ROCS_ColorScore>
-6.213

> <ROCS_Overlap>
2115.003

> <ROCS_Rank>
111                 

$$$$
untitled-dbase-2074_257
  -OEChem-02082415043D

 29 29  0     1  0  0  0  0  0999 V2000
    9.7799   10.5332   23.7790 C   0  0  0  0  0  0  0  0  0  0  0  0
    8.7380   10.2959   24.6754 C   0  0  0  0  0  0  0  0  0  0  0  0
    9.6801   11.5711   22.8524 C   0  0  0  0  0  0  0  0  0  0  0  0
    7.4961   12.1342   23.7185 C   0  0  0  0  0  0  0  0  0  0  0  0
    7.5960   11.0964   24.6451 C   0  0  0  0  0  0  0  0  0  0  0  0
    8.5381   12.3715   22.8221 C   0  0  0  0  0  0  0  0  0  0  0  0
    6.5101   10.8490   25.5803 C   0  0  0  0  0  0  0  0  0  0  0  0
    7.1582   14.3263   21.9254 C   0  0  0  0  0  0  0  0  0  0  0  0
    5.7910    9.4510   27.3750 C   0  0  0  0  0  0  0  0  0  0  0  0
    8.4312   13.4813   21.8312 C   0  0  1  0  0  0  0  0  0  0  0  0
   10.9962   13.5709   21.1505 N   0  0  0  0  0  0  0  0  0  0  0  0
    5.4619   11.5066   25.6261 O   0  0  0  0  0  0  0  0  0  0  0  0
    9.6302   15.7444   21.3138 O   0  0  0  0  0  0  0  0  0  0  0  0
   10.2345   14.4965   23.4264 O   0  0  0  0  0  0  0  0  0  0  0  0
    6.7882    9.7948   26.4069 O   0  0  0  0  0  0  0  0  0  0  0  0
    9.8704   14.5039   22.0237 S   0  0  0  0  0  0  0  0  0  0  0  0
   10.6686    9.9092   23.8018 H   0  0  0  0  0  0  0  0  0  0  0  0
    8.8265    9.4848   25.3937 H   0  0  0  0  0  0  0  0  0  0  0  0
   10.4971   11.7491   22.1581 H   0  0  0  0  0  0  0  0  0  0  0  0
    6.6059   12.7586   23.6927 H   0  0  0  0  0  0  0  0  0  0  0  0
    7.0426   14.7400   22.9329 H   0  0  0  0  0  0  0  0  0  0  0  0
    7.1641   15.1593   21.2147 H   0  0  0  0  0  0  0  0  0  0  0  0
    6.2702   13.7242   21.7027 H   0  0  0  0  0  0  0  0  0  0  0  0
    6.1349    8.5990   27.9666 H   0  0  0  0  0  0  0  0  0  0  0  0
    4.8575    9.2009   26.8647 H   0  0  0  0  0  0  0  0  0  0  0  0
    5.6257   10.3065   28.0342 H   0  0  0  0  0  0  0  0  0  0  0  0
    8.4926   13.0942   20.8003 H   0  0  0  0  0  0  0  0  0  0  0  0
   11.3148   13.9294   20.2418 H   0  0  0  0  0  0  0  0  0  0  0  0
   11.7262   13.0794   21.6806 H   0  0  0  0  0  0  0  0  0  0  0  0
  1  2  2  0  0  0  0
  1  3  1  0  0  0  0
  2  5  1  0  0  0  0
  3  6  2  0  0  0  0
  4  5  2  0  0  0  0
  4  6  1  0  0  0  0
  5  7  1  0  0  0  0
  6 10  1  0  0  0  0
  7 12  2  0  0  0  0
  7 15  1  0  0  0  0
  8 10  1  0  0  0  0
  9 15  1  0  0  0  0
 10 16  1  0  0  0  0
 11 16  1  0  0  0  0
 13 16  2  0  0  0  0
 14 16  2  0  0  0  0
  1 17  1  0  0  0  0
  2 18  1  0  0  0  0
  3 19  1  0  0  0  0
  4 20  1  0  0  0  0
  8 21  1  0  0  0  0
  8 22  1  0  0  0  0
  8 23  1  0  0  0  0
  9 24  1  0  0  0  0
  9 25  1  0  0  0  0
  9 26  1  0  0  0  0
 10 27  1  0  0  0  0
 11 28  1  0  0  0  0
 11 29  1  0  0  0  0
M  END
> <Mol Weight>
243,28

> <Formula>
C10H13NO4S

> <ID>
EN300-39918555

> <name>
Sulfonamides

> <LogP>
0,91

> <ROCS_ShapeQuery>
x0446_0A_x1080_0A_x0929_0A_x0812_0A_x0719_0A_x1140_0A_x0528_0A_x0310_0A

> <ROCS_TanimotoCombo>
0.354 

> <ROCS_ShapeTanimoto>
0.188 

> <ROCS_ColorTanimoto>
0.166 

> <ROCS_RefTversky>
0.175 

> <ROCS_RefColorTversky>
0.169 

> <ROCS_RefTverskyCombo>
0.344 

> <ROCS_FitTversky>
1.639 

> <ROCS_FitColorTversky>
0.907 

> <ROCS_FitTverskyCombo>
2.546 

> <ROCS_ColorScore>
-5.997

> <ROCS_Overlap>
2066.102

> <ROCS_Rank>
112                 

$$$$
untitled-dbase-1518_32
  -OEChem-02082415043D

 25 26  0     0  0  0  0  0  0999 V2000
    5.6521   12.5774   26.1691 C   0  0  0  0  0  0  0  0  0  0  0  0
    5.7043   11.2166   26.4445 C   0  0  0  0  0  0  0  0  0  0  0  0
    6.4612   13.1073   25.1682 C   0  0  0  0  0  0  0  0  0  0  0  0
    6.5650   10.3893   25.7188 C   0  0  0  0  0  0  0  0  0  0  0  0
    8.1521   12.7820   23.4256 C   0  0  0  0  0  0  0  0  0  0  0  0
    8.9832   10.5962   23.0623 C   0  0  0  0  0  0  0  0  0  0  0  0
    7.3268   12.2750   24.4384 C   0  0  0  0  0  0  0  0  0  0  0  0
    8.9958   11.9339   22.7229 C   0  0  0  0  0  0  0  0  0  0  0  0
    7.3849   10.8924   24.7124 C   0  0  0  0  0  0  0  0  0  0  0  0
    9.8817   12.4481   21.6452 C   0  0  0  0  0  0  0  0  0  0  0  0
    8.2028   10.0670   24.0322 N   0  0  0  0  0  0  0  0  0  0  0  0
   11.6778   14.3151   21.0623 N   0  0  0  0  0  0  0  0  0  0  0  0
    9.2257   14.9718   21.4781 O   0  0  0  0  0  0  0  0  0  0  0  0
   10.6517   14.2059   23.4186 O   0  0  0  0  0  0  0  0  0  0  0  0
   10.2778   14.1276   22.0171 S   0  0  0  0  0  0  0  0  0  0  0  0
    4.9855   13.2237   26.7318 H   0  0  0  0  0  0  0  0  0  0  0  0
    5.0770   10.7946   27.2243 H   0  0  0  0  0  0  0  0  0  0  0  0
    6.4127   14.1740   24.9607 H   0  0  0  0  0  0  0  0  0  0  0  0
    6.5871    9.3266   25.9538 H   0  0  0  0  0  0  0  0  0  0  0  0
    8.1358   13.8435   23.1858 H   0  0  0  0  0  0  0  0  0  0  0  0
    9.6194    9.8793   22.5523 H   0  0  0  0  0  0  0  0  0  0  0  0
    9.3995   12.4288   20.6593 H   0  0  0  0  0  0  0  0  0  0  0  0
   10.8245   11.8903   21.5738 H   0  0  0  0  0  0  0  0  0  0  0  0
   12.5310   13.8286   21.3637 H   0  0  0  0  0  0  0  0  0  0  0  0
   11.5597   14.3504   20.0423 H   0  0  0  0  0  0  0  0  0  0  0  0
  1  2  1  0  0  0  0
  1  3  2  0  0  0  0
  2  4  2  0  0  0  0
  3  7  1  0  0  0  0
  4  9  1  0  0  0  0
  5  7  1  0  0  0  0
  5  8  2  0  0  0  0
  6  8  1  0  0  0  0
  6 11  2  0  0  0  0
  7  9  2  0  0  0  0
  8 10  1  0  0  0  0
  9 11  1  0  0  0  0
 10 15  1  0  0  0  0
 12 15  1  0  0  0  0
 13 15  2  0  0  0  0
 14 15  2  0  0  0  0
  1 16  1  0  0  0  0
  2 17  1  0  0  0  0
  3 18  1  0  0  0  0
  4 19  1  0  0  0  0
  5 20  1  0  0  0  0
  6 21  1  0  0  0  0
 10 22  1  0  0  0  0
 10 23  1  0  0  0  0
 12 24  1  0  0  0  0
 12 25  1  0  0  0  0
M  END
> <Mol Weight>
222,26

> <Formula>
C10H10N2O2S

> <ID>
EN300-293980

> <name>
Sulfonamides

> <LogP>
0,50

> <ROCS_ShapeQuery>
x0446_0A_x1080_0A_x0929_0A_x0812_0A_x0719_0A_x1140_0A_x0528_0A_x0310_0A

> <ROCS_TanimotoCombo>
0.354 

> <ROCS_ShapeTanimoto>
0.190 

> <ROCS_ColorTanimoto>
0.163 

> <ROCS_RefTversky>
0.177 

> <ROCS_RefColorTversky>
0.170 

> <ROCS_RefTverskyCombo>
0.347 

> <ROCS_FitTversky>
1.675 

> <ROCS_FitColorTversky>
0.802 

> <ROCS_FitTverskyCombo>
2.477 

> <ROCS_ColorScore>
-6.068

> <ROCS_Overlap>
2083.382

> <ROCS_Rank>
113                 

$$$$
untitled-dbase-2646_1
  -OEChem-02082415043D

 20 21  0     0  0  0  0  0  0999 V2000
    7.1405   10.6218   22.1128 C   0  0  0  0  0  0  0  0  0  0  0  0
    6.9952   11.5931   21.1194 C   0  0  0  0  0  0  0  0  0  0  0  0
    8.1158   10.8235   23.0677 C   0  0  0  0  0  0  0  0  0  0  0  0
    8.9239   11.9375   23.0536 C   0  0  0  0  0  0  0  0  0  0  0  0
    8.8009   12.9112   22.0839 C   0  0  0  0  0  0  0  0  0  0  0  0
    7.8207   12.7312   21.1049 C   0  0  0  0  0  0  0  0  0  0  0  0
    9.4802   10.7053   24.7430 C   0  0  0  0  0  0  0  0  0  0  0  0
   11.1632   13.7429   21.1713 N   0  0  0  0  0  0  0  0  0  0  0  0
    9.2025   15.3971   21.4262 O   0  0  0  0  0  0  0  0  0  0  0  0
   10.3244   14.4874   23.4906 O   0  0  0  0  0  0  0  0  0  0  0  0
    8.4020    9.9906   24.1051 O   0  0  0  0  0  0  0  0  0  0  0  0
    9.8169   11.9415   24.0804 O   0  0  0  0  0  0  0  0  0  0  0  0
    9.8598   14.3016   22.1237 S   0  0  0  0  0  0  0  0  0  0  0  0
    7.5468   13.9967   19.7150 Br  0  0  0  0  0  0  0  0  0  0  0  0
    6.5057    9.7437   22.1285 H   0  0  0  0  0  0  0  0  0  0  0  0
    6.2305   11.4512   20.3591 H   0  0  0  0  0  0  0  0  0  0  0  0
    9.1904   10.9286   25.7760 H   0  0  0  0  0  0  0  0  0  0  0  0
   10.3675   10.0620   24.7570 H   0  0  0  0  0  0  0  0  0  0  0  0
   11.2833   14.1474   20.2347 H   0  0  0  0  0  0  0  0  0  0  0  0
   12.0478   13.5249   21.6460 H   0  0  0  0  0  0  0  0  0  0  0  0
  1  2  2  0  0  0  0
  1  3  1  0  0  0  0
  2  6  1  0  0  0  0
  3  4  2  0  0  0  0
  3 11  1  0  0  0  0
  4  5  1  0  0  0  0
  4 12  1  0  0  0  0
  5  6  2  0  0  0  0
  5 13  1  0  0  0  0
  6 14  1  0  0  0  0
  7 11  1  0  0  0  0
  7 12  1  0  0  0  0
  8 13  1  0  0  0  0
  9 13  2  0  0  0  0
 10 13  2  0  0  0  0
  1 15  1  0  0  0  0
  2 16  1  0  0  0  0
  7 17  1  0  0  0  0
  7 18  1  0  0  0  0
  8 19  1  0  0  0  0
  8 20  1  0  0  0  0
M  END
> <Mol Weight>
280,09

> <Formula>
C7H6BrNO4S

> <ID>
EN300-27103752

> <name>
Sulfonamides

> <LogP>
0,97

> <ROCS_ShapeQuery>
x0446_0A_x1080_0A_x0929_0A_x0812_0A_x0719_0A_x1140_0A_x0528_0A_x0310_0A

> <ROCS_TanimotoCombo>
0.353 

> <ROCS_ShapeTanimoto>
0.152 

> <ROCS_ColorTanimoto>
0.201 

> <ROCS_RefTversky>
0.146 

> <ROCS_RefColorTversky>
0.212 

> <ROCS_RefTverskyCombo>
0.357 

> <ROCS_FitTversky>
1.431 

> <ROCS_FitColorTversky>
0.797 

> <ROCS_FitTverskyCombo>
2.228 

> <ROCS_ColorScore>
-7.569

> <ROCS_Overlap>
1717.039

> <ROCS_Rank>
114                 

$$$$
untitled-dbase-2073_63
  -OEChem-02082415043D

 30 30  0     0  0  0  0  0  0999 V2000
    9.1860   12.2538   25.0910 C   0  0  0  0  0  0  0  0  0  0  0  0
    9.3556   12.1310   22.5678 C   0  0  0  0  0  0  0  0  0  0  0  0
    8.1204   11.1604   25.0755 C   0  0  0  0  0  0  0  0  0  0  0  0
    8.2903   11.0375   22.5466 C   0  0  0  0  0  0  0  0  0  0  0  0
    9.2318   13.0645   23.7844 C   0  0  0  0  0  0  0  0  0  0  0  0
    8.2609   10.2656   23.8552 C   0  0  0  0  0  0  0  0  0  0  0  0
   10.5717   14.4677   25.1120 C   0  0  0  0  0  0  0  0  0  0  0  0
    8.0200   13.9930   23.6579 C   0  0  0  0  0  0  0  0  0  0  0  0
    6.4021   15.4812   22.1682 N   0  0  0  0  0  0  0  0  0  0  0  0
    8.9024   15.3186   21.5863 O   0  0  0  0  0  0  0  0  0  0  0  0
    7.4076   13.3163   21.2094 O   0  0  0  0  0  0  0  0  0  0  0  0
   10.3836   13.9139   23.8205 O   0  0  0  0  0  0  0  0  0  0  0  0
    7.2396    9.3731   23.8300 F   0  0  0  0  0  0  0  0  0  0  0  0
    9.4035    9.5380   23.9674 F   0  0  0  0  0  0  0  0  0  0  0  0
    7.7778   14.4877   21.9893 S   0  0  0  0  0  0  0  0  0  0  0  0
    8.9959   12.9277   25.9406 H   0  0  0  0  0  0  0  0  0  0  0  0
   10.1626   11.7799   25.2733 H   0  0  0  0  0  0  0  0  0  0  0  0
   10.3443   11.6484   22.5616 H   0  0  0  0  0  0  0  0  0  0  0  0
    9.2838   12.7193   21.6403 H   0  0  0  0  0  0  0  0  0  0  0  0
    8.1830   10.5536   25.9866 H   0  0  0  0  0  0  0  0  0  0  0  0
    7.1263   11.6219   25.0763 H   0  0  0  0  0  0  0  0  0  0  0  0
    7.3081   11.4902   22.3682 H   0  0  0  0  0  0  0  0  0  0  0  0
    8.4709   10.3463   21.7148 H   0  0  0  0  0  0  0  0  0  0  0  0
   11.4559   15.1098   25.1088 H   0  0  0  0  0  0  0  0  0  0  0  0
   10.6958   13.6623   25.8403 H   0  0  0  0  0  0  0  0  0  0  0  0
    9.6936   15.0621   25.3752 H   0  0  0  0  0  0  0  0  0  0  0  0
    8.1725   14.8903   24.2530 H   0  0  0  0  0  0  0  0  0  0  0  0
    7.1198   13.4803   23.9879 H   0  0  0  0  0  0  0  0  0  0  0  0
    5.5074   15.0231   22.3812 H   0  0  0  0  0  0  0  0  0  0  0  0
    6.5256   16.3867   22.6376 H   0  0  0  0  0  0  0  0  0  0  0  0
  1  3  1  0  0  0  0
  1  5  1  0  0  0  0
  2  4  1  0  0  0  0
  2  5  1  0  0  0  0
  3  6  1  0  0  0  0
  4  6  1  0  0  0  0
  5  8  1  0  0  0  0
  5 12  1  0  0  0  0
  6 13  1  0  0  0  0
  6 14  1  0  0  0  0
  7 12  1  0  0  0  0
  8 15  1  0  0  0  0
  9 15  1  0  0  0  0
 10 15  2  0  0  0  0
 11 15  2  0  0  0  0
  1 16  1  0  0  0  0
  1 17  1  0  0  0  0
  2 18  1  0  0  0  0
  2 19  1  0  0  0  0
  3 20  1  0  0  0  0
  3 21  1  0  0  0  0
  4 22  1  0  0  0  0
  4 23  1  0  0  0  0
  7 24  1  0  0  0  0
  7 25  1  0  0  0  0
  7 26  1  0  0  0  0
  8 27  1  0  0  0  0
  8 28  1  0  0  0  0
  9 29  1  0  0  0  0
  9 30  1  0  0  0  0
M  END
> <Mol Weight>
243,27

> <Formula>
C8H15F2NO3S

> <ID>
EN300-27151259

> <name>
Sulfonamides

> <LogP>
-0,22

> <ROCS_ShapeQuery>
x0446_0A_x1080_0A_x0929_0A_x0812_0A_x0719_0A_x1140_0A_x0528_0A_x0310_0A

> <ROCS_TanimotoCombo>
0.353 

> <ROCS_ShapeTanimoto>
0.186 

> <ROCS_ColorTanimoto>
0.168 

> <ROCS_RefTversky>
0.173 

> <ROCS_RefColorTversky>
0.170 

> <ROCS_RefTverskyCombo>
0.343 

> <ROCS_FitTversky>
1.677 

> <ROCS_FitColorTversky>
0.915 

> <ROCS_FitTverskyCombo>
2.592 

> <ROCS_ColorScore>
-6.054

> <ROCS_Overlap>
2037.936

> <ROCS_Rank>
115                 

$$$$
untitled-dbase-2761_2
  -OEChem-02082415043D

 25 26  0     1  0  0  0  0  0999 V2000
    5.9776   13.3647   24.8420 C   0  0  0  0  0  0  0  0  0  0  0  0
    7.2455   13.6591   24.3396 C   0  0  0  0  0  0  0  0  0  0  0  0
    5.5755   12.0393   24.9839 C   0  0  0  0  0  0  0  0  0  0  0  0
    8.1244   12.6307   23.9647 C   0  0  0  0  0  0  0  0  0  0  0  0
    7.7071   11.2996   24.1085 C   0  0  0  0  0  0  0  0  0  0  0  0
    6.4403   11.0076   24.6232 C   0  0  0  0  0  0  0  0  0  0  0  0
   10.4000   11.7310   23.4909 C   0  0  0  0  0  0  0  0  0  0  0  0
    9.6468   10.4971   23.0139 C   0  0  0  0  0  0  0  0  0  0  0  0
    9.4950   12.9554   23.4419 C   0  0  1  0  0  0  0  0  0  0  0  0
   10.8781   13.3116   21.2032 N   0  0  0  0  0  0  0  0  0  0  0  0
    8.3901   12.6682   21.0915 O   0  0  0  0  0  0  0  0  0  0  0  0
    9.0394   14.9858   21.8613 O   0  0  0  0  0  0  0  0  0  0  0  0
    8.4946   10.2170   23.8125 O   0  0  0  0  0  0  0  0  0  0  0  0
    9.2973   13.5602   21.7882 S   0  0  0  0  0  0  0  0  0  0  0  0
    5.8378    9.2196   24.8507 Br  0  0  0  0  0  0  0  0  0  0  0  0
    5.3068   14.1700   25.1269 H   0  0  0  0  0  0  0  0  0  0  0  0
    7.5473   14.6995   24.2449 H   0  0  0  0  0  0  0  0  0  0  0  0
    4.5856   11.8296   25.3815 H   0  0  0  0  0  0  0  0  0  0  0  0
   10.7117   11.5665   24.5307 H   0  0  0  0  0  0  0  0  0  0  0  0
   11.3059   11.8814   22.8938 H   0  0  0  0  0  0  0  0  0  0  0  0
    9.3398   10.5816   21.9654 H   0  0  0  0  0  0  0  0  0  0  0  0
   10.3040    9.6236   23.0824 H   0  0  0  0  0  0  0  0  0  0  0  0
    9.9496   13.7689   24.0185 H   0  0  0  0  0  0  0  0  0  0  0  0
   11.6230   13.9225   21.5603 H   0  0  0  0  0  0  0  0  0  0  0  0
   11.1807   12.3441   21.0359 H   0  0  0  0  0  0  0  0  0  0  0  0
  1  2  2  0  0  0  0
  1  3  1  0  0  0  0
  2  4  1  0  0  0  0
  3  6  2  0  0  0  0
  4  5  2  0  0  0  0
  4  9  1  0  0  0  0
  5  6  1  0  0  0  0
  5 13  1  0  0  0  0
  6 15  1  0  0  0  0
  7  8  1  0  0  0  0
  7  9  1  0  0  0  0
  8 13  1  0  0  0  0
  9 14  1  0  0  0  0
 10 14  1  0  0  0  0
 11 14  2  0  0  0  0
 12 14  2  0  0  0  0
  1 16  1  0  0  0  0
  2 17  1  0  0  0  0
  3 18  1  0  0  0  0
  7 19  1  0  0  0  0
  7 20  1  0  0  0  0
  8 21  1  0  0  0  0
  8 22  1  0  0  0  0
  9 23  1  0  0  0  0
 10 24  1  0  0  0  0
 10 25  1  0  0  0  0
M  END
> <Mol Weight>
292,15

> <Formula>
C9H10BrNO3S

> <ID>
EN300-45177709

> <name>
Sulfonamides

> <LogP>
1,05

> <ROCS_ShapeQuery>
x0446_0A_x1080_0A_x0929_0A_x0812_0A_x0719_0A_x1140_0A_x0528_0A_x0310_0A

> <ROCS_TanimotoCombo>
0.353 

> <ROCS_ShapeTanimoto>
0.206 

> <ROCS_ColorTanimoto>
0.147 

> <ROCS_RefTversky>
0.189 

> <ROCS_RefColorTversky>
0.159 

> <ROCS_RefTverskyCombo>
0.347 

> <ROCS_FitTversky>
1.816 

> <ROCS_FitColorTversky>
0.664 

> <ROCS_FitTverskyCombo>
2.480 

> <ROCS_ColorScore>
-5.657

> <ROCS_Overlap>
2227.846

> <ROCS_Rank>
116                 

$$$$
untitled-dbase-2162_363
  -OEChem-02082415043D

 28 28  0     0  0  0  0  0  0999 V2000
   10.2058   11.6843   23.0876 C   0  0  0  0  0  0  0  0  0  0  0  0
    9.6569   10.4066   22.9792 C   0  0  0  0  0  0  0  0  0  0  0  0
    7.7064   11.1409   24.2013 C   0  0  0  0  0  0  0  0  0  0  0  0
    9.5051   12.6903   23.7529 C   0  0  0  0  0  0  0  0  0  0  0  0
    8.4072   10.1349   23.5360 C   0  0  0  0  0  0  0  0  0  0  0  0
    8.2554   12.4186   24.3097 C   0  0  0  0  0  0  0  0  0  0  0  0
    8.2926   15.2073   20.3700 C   0  0  0  0  0  0  0  0  0  0  0  0
   10.9253   14.3355   22.7875 C   0  0  0  0  0  0  0  0  0  0  0  0
   10.1561   14.3039   21.4809 C   0  0  0  0  0  0  0  0  0  0  0  0
    5.9567   12.7980   25.6046 N   0  0  0  0  0  0  0  0  0  0  0  0
    8.0966   14.0274   26.3493 O   0  0  0  0  0  0  0  0  0  0  0  0
    6.9839   14.6886   24.1878 O   0  0  0  0  0  0  0  0  0  0  0  0
   10.0602   13.9311   23.8467 O   0  0  0  0  0  0  0  0  0  0  0  0
    9.0398   15.1801   21.5781 O   0  0  0  0  0  0  0  0  0  0  0  0
    7.8803    8.9078   23.4320 F   0  0  0  0  0  0  0  0  0  0  0  0
    7.3577   13.6628   25.1499 S   0  0  0  0  0  0  0  0  0  0  0  0
   11.1795   11.8888   22.6507 H   0  0  0  0  0  0  0  0  0  0  0  0
   10.2025    9.6233   22.4611 H   0  0  0  0  0  0  0  0  0  0  0  0
    6.7339   10.9157   24.6306 H   0  0  0  0  0  0  0  0  0  0  0  0
    7.4452   15.8884   20.4801 H   0  0  0  0  0  0  0  0  0  0  0  0
    7.9368   14.2004   20.1379 H   0  0  0  0  0  0  0  0  0  0  0  0
    8.9374   15.5592   19.5612 H   0  0  0  0  0  0  0  0  0  0  0  0
   11.2860   15.3447   23.0085 H   0  0  0  0  0  0  0  0  0  0  0  0
   11.7702   13.6416   22.7512 H   0  0  0  0  0  0  0  0  0  0  0  0
    9.7821   13.2977   21.2674 H   0  0  0  0  0  0  0  0  0  0  0  0
   10.7885   14.6447   20.6559 H   0  0  0  0  0  0  0  0  0  0  0  0
    5.8360   12.5649   26.5978 H   0  0  0  0  0  0  0  0  0  0  0  0
    5.0777   13.0161   25.1196 H   0  0  0  0  0  0  0  0  0  0  0  0
  1  2  2  0  0  0  0
  1  4  1  0  0  0  0
  2  5  1  0  0  0  0
  3  5  2  0  0  0  0
  3  6  1  0  0  0  0
  4  6  2  0  0  0  0
  4 13  1  0  0  0  0
  5 15  1  0  0  0  0
  6 16  1  0  0  0  0
  7 14  1  0  0  0  0
  8  9  1  0  0  0  0
  8 13  1  0  0  0  0
  9 14  1  0  0  0  0
 10 16  1  0  0  0  0
 11 16  2  0  0  0  0
 12 16  2  0  0  0  0
  1 17  1  0  0  0  0
  2 18  1  0  0  0  0
  3 19  1  0  0  0  0
  7 20  1  0  0  0  0
  7 21  1  0  0  0  0
  7 22  1  0  0  0  0
  8 23  1  0  0  0  0
  8 24  1  0  0  0  0
  9 25  1  0  0  0  0
  9 26  1  0  0  0  0
 10 27  1  0  0  0  0
 10 28  1  0  0  0  0
M  END
> <Mol Weight>
249,26

> <Formula>
C9H12FNO4S

> <ID>
EN300-172646

> <name>
Sulfonamides

> <LogP>
0,52

> <ROCS_ShapeQuery>
x0446_0A_x1080_0A_x0929_0A_x0812_0A_x0719_0A_x1140_0A_x0528_0A_x0310_0A

> <ROCS_TanimotoCombo>
0.353 

> <ROCS_ShapeTanimoto>
0.214 

> <ROCS_ColorTanimoto>
0.139 

> <ROCS_RefTversky>
0.195 

> <ROCS_RefColorTversky>
0.148 

> <ROCS_RefTverskyCombo>
0.343 

> <ROCS_FitTversky>
1.826 

> <ROCS_FitColorTversky>
0.698 

> <ROCS_FitTverskyCombo>
2.524 

> <ROCS_ColorScore>
-5.280

> <ROCS_Overlap>
2300.847

> <ROCS_Rank>
117                 

$$$$
untitled-dbase-1729_194
  -OEChem-02082415043D

 30 31  0     1  0  0  0  0  0999 V2000
    9.6346   10.7410   23.5679 C   0  0  0  0  0  0  0  0  0  0  0  0
    8.3914   10.1573   23.6453 C   0  0  0  0  0  0  0  0  0  0  0  0
    8.3452   12.2640   24.3335 C   0  0  0  0  0  0  0  0  0  0  0  0
    7.7682   13.5175   24.8980 C   0  0  0  0  0  0  0  0  0  0  0  0
    5.6247   12.2159   25.1961 C   0  0  0  0  0  0  0  0  0  0  0  0
    6.1561   11.0533   24.3566 C   0  0  0  0  0  0  0  0  0  0  0  0
    6.2338   13.5679   24.7834 C   0  0  2  0  0  0  0  0  0  0  0  0
    6.3994   15.2477   20.2299 C   0  0  0  0  0  0  0  0  0  0  0  0
    5.7866   13.9934   23.3814 C   0  0  0  0  0  0  0  0  0  0  0  0
    9.6005   12.0457   23.9963 N   0  0  0  0  0  0  0  0  0  0  0  0
    7.5846   11.1390   24.1365 N   0  0  0  0  0  0  0  0  0  0  0  0
    6.6325   15.0333   22.9001 N   0  0  0  0  0  0  0  0  0  0  0  0
    7.8813   13.3913   21.3292 O   0  0  0  0  0  0  0  0  0  0  0  0
    8.6521   15.7897   21.4287 O   0  0  0  0  0  0  0  0  0  0  0  0
    7.5893   14.8039   21.4746 S   0  0  0  0  0  0  0  0  0  0  0  0
   10.5538   10.2878   23.2264 H   0  0  0  0  0  0  0  0  0  0  0  0
    8.0324    9.1657   23.4077 H   0  0  0  0  0  0  0  0  0  0  0  0
    8.0638   13.6148   25.9523 H   0  0  0  0  0  0  0  0  0  0  0  0
    8.2155   14.3693   24.3646 H   0  0  0  0  0  0  0  0  0  0  0  0
    4.5250   12.2648   25.0962 H   0  0  0  0  0  0  0  0  0  0  0  0
    5.8232   12.0122   26.2625 H   0  0  0  0  0  0  0  0  0  0  0  0
    5.9774   10.0992   24.8658 H   0  0  0  0  0  0  0  0  0  0  0  0
    5.6618   11.0265   23.3796 H   0  0  0  0  0  0  0  0  0  0  0  0
    5.8624   14.3337   25.4985 H   0  0  0  0  0  0  0  0  0  0  0  0
    6.8717   15.1489   19.2513 H   0  0  0  0  0  0  0  0  0  0  0  0
    5.5464   14.5725   20.3128 H   0  0  0  0  0  0  0  0  0  0  0  0
    6.0891   16.2793   20.4025 H   0  0  0  0  0  0  0  0  0  0  0  0
    5.8548   13.1161   22.7403 H   0  0  0  0  0  0  0  0  0  0  0  0
    4.7583   14.3421   23.4622 H   0  0  0  0  0  0  0  0  0  0  0  0
    6.2786   16.0144   23.0161 H   0  0  0  0  0  0  0  0  0  0  0  0
  1  2  2  0  0  0  0
  1 10  1  0  0  0  0
  2 11  1  0  0  0  0
  3  4  1  0  0  0  0
  3 10  2  0  0  0  0
  3 11  1  0  0  0  0
  4  7  1  0  0  0  0
  5  6  1  0  0  0  0
  5  7  1  0  0  0  0
  6 11  1  0  0  0  0
  7  9  1  0  0  0  0
  8 15  1  0  0  0  0
  9 12  1  0  0  0  0
 12 15  1  0  0  0  0
 13 15  2  0  0  0  0
 14 15  2  0  0  0  0
  1 16  1  0  0  0  0
  2 17  1  0  0  0  0
  4 18  1  0  0  0  0
  4 19  1  0  0  0  0
  5 20  1  0  0  0  0
  5 21  1  0  0  0  0
  6 22  1  0  0  0  0
  6 23  1  0  0  0  0
  7 24  1  0  0  0  0
  8 25  1  0  0  0  0
  8 26  1  0  0  0  0
  8 27  1  0  0  0  0
  9 28  1  0  0  0  0
  9 29  1  0  0  0  0
 12 30  1  0  0  0  0
M  END
> <Mol Weight>
229,30

> <Formula>
C9H15N3O2S

> <ID>
EN300-158533

> <name>
Sulfonamides

> <LogP>
-0,99

> <ROCS_ShapeQuery>
x0446_0A_x1080_0A_x0929_0A_x0812_0A_x0719_0A_x1140_0A_x0528_0A_x0310_0A

> <ROCS_TanimotoCombo>
0.353 

> <ROCS_ShapeTanimoto>
0.189 

> <ROCS_ColorTanimoto>
0.164 

> <ROCS_RefTversky>
0.176 

> <ROCS_RefColorTversky>
0.174 

> <ROCS_RefTverskyCombo>
0.350 

> <ROCS_FitTversky>
1.686 

> <ROCS_FitColorTversky>
0.729 

> <ROCS_FitTverskyCombo>
2.415 

> <ROCS_ColorScore>
-6.224

> <ROCS_Overlap>
2070.597

> <ROCS_Rank>
118                 

$$$$
untitled-dbase-920_2
  -OEChem-02082415043D

 24 24  0     0  0  0  0  0  0999 V2000
    8.0884   10.4434   24.1036 C   0  0  0  0  0  0  0  0  0  0  0  0
    9.4814   10.4119   24.1667 C   0  0  0  0  0  0  0  0  0  0  0  0
    7.4277   11.6505   23.8748 C   0  0  0  0  0  0  0  0  0  0  0  0
   10.2139   11.5874   24.0012 C   0  0  0  0  0  0  0  0  0  0  0  0
    8.1602   12.8260   23.7093 C   0  0  0  0  0  0  0  0  0  0  0  0
    9.5533   12.7944   23.7724 C   0  0  0  0  0  0  0  0  0  0  0  0
   11.7022   13.8101   23.6932 C   0  0  0  0  0  0  0  0  0  0  0  0
    7.4363   14.1087   23.4657 C   0  0  0  0  0  0  0  0  0  0  0  0
    6.3424   15.6148   21.5720 N   0  0  0  0  0  0  0  0  0  0  0  0
    8.8915   15.2761   21.6362 O   0  0  0  0  0  0  0  0  0  0  0  0
    7.3999   13.3497   20.9656 O   0  0  0  0  0  0  0  0  0  0  0  0
   10.2836   13.9336   23.6137 O   0  0  0  0  0  0  0  0  0  0  0  0
    7.6480   14.5356   21.7680 S   0  0  0  0  0  0  0  0  0  0  0  0
    7.5175    9.5284   24.2330 H   0  0  0  0  0  0  0  0  0  0  0  0
    9.9953    9.4721   24.3457 H   0  0  0  0  0  0  0  0  0  0  0  0
    6.3420   11.6647   23.8289 H   0  0  0  0  0  0  0  0  0  0  0  0
   11.2989   11.5565   24.0515 H   0  0  0  0  0  0  0  0  0  0  0  0
   12.1626   14.7907   23.5495 H   0  0  0  0  0  0  0  0  0  0  0  0
   12.0520   13.1155   22.9253 H   0  0  0  0  0  0  0  0  0  0  0  0
   11.9707   13.4250   24.6797 H   0  0  0  0  0  0  0  0  0  0  0  0
    7.8325   14.9300   24.0726 H   0  0  0  0  0  0  0  0  0  0  0  0
    6.3619   14.0219   23.6607 H   0  0  0  0  0  0  0  0  0  0  0  0
    5.3932   15.2215   21.5706 H   0  0  0  0  0  0  0  0  0  0  0  0
    6.4093   16.5335   22.0272 H   0  0  0  0  0  0  0  0  0  0  0  0
  1  2  1  0  0  0  0
  1  3  2  0  0  0  0
  2  4  2  0  0  0  0
  3  5  1  0  0  0  0
  4  6  1  0  0  0  0
  5  6  2  0  0  0  0
  5  8  1  0  0  0  0
  6 12  1  0  0  0  0
  7 12  1  0  0  0  0
  8 13  1  0  0  0  0
  9 13  1  0  0  0  0
 10 13  2  0  0  0  0
 11 13  2  0  0  0  0
  1 14  1  0  0  0  0
  2 15  1  0  0  0  0
  3 16  1  0  0  0  0
  4 17  1  0  0  0  0
  7 18  1  0  0  0  0
  7 19  1  0  0  0  0
  7 20  1  0  0  0  0
  8 21  1  0  0  0  0
  8 22  1  0  0  0  0
  9 23  1  0  0  0  0
  9 24  1  0  0  0  0
M  END
> <Mol Weight>
201,24

> <Formula>
C8H11NO3S

> <ID>
EN300-135560

> <name>
Sulfonamides

> <LogP>
0,18

> <ROCS_ShapeQuery>
x0446_0A_x1080_0A_x0929_0A_x0812_0A_x0719_0A_x1140_0A_x0528_0A_x0310_0A

> <ROCS_TanimotoCombo>
0.353 

> <ROCS_ShapeTanimoto>
0.182 

> <ROCS_ColorTanimoto>
0.171 

> <ROCS_RefTversky>
0.169 

> <ROCS_RefColorTversky>
0.173 

> <ROCS_RefTverskyCombo>
0.342 

> <ROCS_FitTversky>
1.756 

> <ROCS_FitColorTversky>
0.930 

> <ROCS_FitTverskyCombo>
2.686 

> <ROCS_ColorScore>
-6.152

> <ROCS_Overlap>
1991.354

> <ROCS_Rank>
119                 

$$$$
untitled-dbase-2636_20
  -OEChem-02082415043D

 28 28  0     0  0  0  0  0  0999 V2000
    8.1850   10.1705   23.7640 C   0  0  0  0  0  0  0  0  0  0  0  0
    9.7466   11.4629   22.4495 C   0  0  0  0  0  0  0  0  0  0  0  0
    7.6360   11.3486   24.2703 C   0  0  0  0  0  0  0  0  0  0  0  0
    8.1423   12.5839   23.8661 C   0  0  0  0  0  0  0  0  0  0  0  0
    9.1976   12.6411   22.9557 C   0  0  0  0  0  0  0  0  0  0  0  0
    9.2403   10.2276   22.8536 C   0  0  0  0  0  0  0  0  0  0  0  0
    6.5344   11.2646   25.2195 C   0  0  0  0  0  0  0  0  0  0  0  0
    5.4554    9.8985   27.0209 C   0  0  0  0  0  0  0  0  0  0  0  0
    6.5179   14.3057   23.6365 C   0  0  0  0  0  0  0  0  0  0  0  0
   11.0760   13.6564   21.3601 N   0  0  0  0  0  0  0  0  0  0  0  0
    6.4957   10.1371   26.0464 N   0  0  0  0  0  0  0  0  0  0  0  0
    5.6693   12.1558   25.2597 O   0  0  0  0  0  0  0  0  0  0  0  0
    8.8255   14.8744   21.6723 O   0  0  0  0  0  0  0  0  0  0  0  0
   10.4749   14.8246   23.5762 O   0  0  0  0  0  0  0  0  0  0  0  0
    7.6035   13.7349   24.3626 O   0  0  0  0  0  0  0  0  0  0  0  0
    9.8520   14.1767   22.4318 S   0  0  0  0  0  0  0  0  0  0  0  0
    9.9177    8.7741   22.2289 Cl  0  0  0  0  0  0  0  0  0  0  0  0
    7.7882    9.2081   24.0804 H   0  0  0  0  0  0  0  0  0  0  0  0
   10.5694   11.5101   21.7397 H   0  0  0  0  0  0  0  0  0  0  0  0
    5.7766   10.2793   28.0016 H   0  0  0  0  0  0  0  0  0  0  0  0
    4.5361   10.4163   26.7098 H   0  0  0  0  0  0  0  0  0  0  0  0
    5.2613    8.8182   27.0927 H   0  0  0  0  0  0  0  0  0  0  0  0
    6.1824   15.2168   24.1378 H   0  0  0  0  0  0  0  0  0  0  0  0
    5.6979   13.5854   23.5793 H   0  0  0  0  0  0  0  0  0  0  0  0
    6.8556   14.5512   22.6269 H   0  0  0  0  0  0  0  0  0  0  0  0
   10.9282   13.8012   20.3539 H   0  0  0  0  0  0  0  0  0  0  0  0
   12.0535   13.7660   21.6561 H   0  0  0  0  0  0  0  0  0  0  0  0
    7.1928    9.4093   25.9278 H   0  0  0  0  0  0  0  0  0  0  0  0
  1  3  1  0  0  0  0
  1  6  2  0  0  0  0
  2  5  2  0  0  0  0
  2  6  1  0  0  0  0
  3  4  2  0  0  0  0
  3  7  1  0  0  0  0
  4  5  1  0  0  0  0
  4 15  1  0  0  0  0
  5 16  1  0  0  0  0
  6 17  1  0  0  0  0
  7 11  1  0  0  0  0
  7 12  2  0  0  0  0
  8 11  1  0  0  0  0
  9 15  1  0  0  0  0
 10 16  1  0  0  0  0
 13 16  2  0  0  0  0
 14 16  2  0  0  0  0
  1 18  1  0  0  0  0
  2 19  1  0  0  0  0
  8 20  1  0  0  0  0
  8 21  1  0  0  0  0
  8 22  1  0  0  0  0
  9 23  1  0  0  0  0
  9 24  1  0  0  0  0
  9 25  1  0  0  0  0
 10 26  1  0  0  0  0
 10 27  1  0  0  0  0
 11 28  1  0  0  0  0
M  END
> <Mol Weight>
278,71

> <Formula>
C9H11ClN2O4S

> <ID>
EN300-207933

> <name>
Sulfonamides

> <LogP>
0,10

> <ROCS_ShapeQuery>
x0446_0A_x1080_0A_x0929_0A_x0812_0A_x0719_0A_x1140_0A_x0528_0A_x0310_0A

> <ROCS_TanimotoCombo>
0.353 

> <ROCS_ShapeTanimoto>
0.219 

> <ROCS_ColorTanimoto>
0.134 

> <ROCS_RefTversky>
0.199 

> <ROCS_RefColorTversky>
0.146 

> <ROCS_RefTverskyCombo>
0.346 

> <ROCS_FitTversky>
1.802 

> <ROCS_FitColorTversky>
0.613 

> <ROCS_FitTverskyCombo>
2.416 

> <ROCS_ColorScore>
-5.223

> <ROCS_Overlap>
2352.084

> <ROCS_Rank>
120                 

$$$$
untitled-dbase-2650_2
  -OEChem-02082415043D

 24 24  0     0  0  0  0  0  0999 V2000
    7.4260   11.6521   23.8760 C   0  0  0  0  0  0  0  0  0  0  0  0
    8.0853   10.4439   24.1024 C   0  0  0  0  0  0  0  0  0  0  0  0
   10.2122   11.5850   23.9976 C   0  0  0  0  0  0  0  0  0  0  0  0
    8.1598   12.8267   23.7103 C   0  0  0  0  0  0  0  0  0  0  0  0
    9.5529   12.7932   23.7711 C   0  0  0  0  0  0  0  0  0  0  0  0
    9.4784   10.4104   24.1632 C   0  0  0  0  0  0  0  0  0  0  0  0
   11.7031   13.8060   23.6886 C   0  0  0  0  0  0  0  0  0  0  0  0
    7.4375   14.1108   23.4683 C   0  0  0  0  0  0  0  0  0  0  0  0
    6.3436   15.6195   21.5766 N   0  0  0  0  0  0  0  0  0  0  0  0
    8.8923   15.2770   21.6378 O   0  0  0  0  0  0  0  0  0  0  0  0
    7.3971   13.3532   20.9678 O   0  0  0  0  0  0  0  0  0  0  0  0
   10.2846   13.9315   23.6115 O   0  0  0  0  0  0  0  0  0  0  0  0
    7.6479   14.5383   21.7706 S   0  0  0  0  0  0  0  0  0  0  0  0
   10.3710    8.7730   24.4716 Br  0  0  0  0  0  0  0  0  0  0  0  0
    6.3403   11.6675   23.8293 H   0  0  0  0  0  0  0  0  0  0  0  0
    7.4992    9.5372   24.2280 H   0  0  0  0  0  0  0  0  0  0  0  0
   11.2987   11.5688   24.0433 H   0  0  0  0  0  0  0  0  0  0  0  0
   12.1646   14.7860   23.5446 H   0  0  0  0  0  0  0  0  0  0  0  0
   12.0506   13.1112   22.9199 H   0  0  0  0  0  0  0  0  0  0  0  0
   11.9728   13.4202   24.6746 H   0  0  0  0  0  0  0  0  0  0  0  0
    7.8355   14.9310   24.0753 H   0  0  0  0  0  0  0  0  0  0  0  0
    6.3632   14.0253   23.6645 H   0  0  0  0  0  0  0  0  0  0  0  0
    5.3939   15.2276   21.5761 H   0  0  0  0  0  0  0  0  0  0  0  0
    6.4124   16.5378   22.0322 H   0  0  0  0  0  0  0  0  0  0  0  0
  1  2  2  0  0  0  0
  1  4  1  0  0  0  0
  2  6  1  0  0  0  0
  3  5  1  0  0  0  0
  3  6  2  0  0  0  0
  4  5  2  0  0  0  0
  4  8  1  0  0  0  0
  5 12  1  0  0  0  0
  6 14  1  0  0  0  0
  7 12  1  0  0  0  0
  8 13  1  0  0  0  0
  9 13  1  0  0  0  0
 10 13  2  0  0  0  0
 11 13  2  0  0  0  0
  1 15  1  0  0  0  0
  2 16  1  0  0  0  0
  3 17  1  0  0  0  0
  7 18  1  0  0  0  0
  7 19  1  0  0  0  0
  7 20  1  0  0  0  0
  8 21  1  0  0  0  0
  8 22  1  0  0  0  0
  9 23  1  0  0  0  0
  9 24  1  0  0  0  0
M  END
> <Mol Weight>
280,14

> <Formula>
C8H10BrNO3S

> <ID>
EN300-1989145

> <name>
Sulfonamides

> <LogP>
0,95

> <ROCS_ShapeQuery>
x0446_0A_x1080_0A_x0929_0A_x0812_0A_x0719_0A_x1140_0A_x0528_0A_x0310_0A

> <ROCS_TanimotoCombo>
0.353 

> <ROCS_ShapeTanimoto>
0.187 

> <ROCS_ColorTanimoto>
0.166 

> <ROCS_RefTversky>
0.173 

> <ROCS_RefColorTversky>
0.173 

> <ROCS_RefTverskyCombo>
0.345 

> <ROCS_FitTversky>
1.750 

> <ROCS_FitColorTversky>
0.813 

> <ROCS_FitTverskyCombo>
2.563 

> <ROCS_ColorScore>
-6.152

> <ROCS_Overlap>
2037.339

> <ROCS_Rank>
121                 

$$$$
untitled-dbase-2760_2
  -OEChem-02082415043D

 25 26  0     1  0  0  0  0  0999 V2000
    7.2462   13.6584   24.3388 C   0  0  0  0  0  0  0  0  0  0  0  0
    5.9781   13.3641   24.8408 C   0  0  0  0  0  0  0  0  0  0  0  0
    6.4406   11.0069   24.6220 C   0  0  0  0  0  0  0  0  0  0  0  0
    8.1251   12.6300   23.9641 C   0  0  0  0  0  0  0  0  0  0  0  0
    7.7076   11.2989   24.1077 C   0  0  0  0  0  0  0  0  0  0  0  0
    5.5759   12.0387   24.9825 C   0  0  0  0  0  0  0  0  0  0  0  0
   10.4008   11.7301   23.4910 C   0  0  0  0  0  0  0  0  0  0  0  0
    9.6476   10.4963   23.0137 C   0  0  0  0  0  0  0  0  0  0  0  0
    9.4959   12.9546   23.4418 C   0  0  1  0  0  0  0  0  0  0  0  0
   10.8797   13.3108   21.2036 N   0  0  0  0  0  0  0  0  0  0  0  0
    8.3917   12.6675   21.0911 O   0  0  0  0  0  0  0  0  0  0  0  0
    9.0409   14.9851   21.8612 O   0  0  0  0  0  0  0  0  0  0  0  0
    8.4951   10.2162   23.8119 O   0  0  0  0  0  0  0  0  0  0  0  0
    9.2988   13.5595   21.7880 S   0  0  0  0  0  0  0  0  0  0  0  0
    3.8621   11.6391   25.6708 Br  0  0  0  0  0  0  0  0  0  0  0  0
    7.5481   14.6987   24.2444 H   0  0  0  0  0  0  0  0  0  0  0  0
    5.3184   14.1810   25.1213 H   0  0  0  0  0  0  0  0  0  0  0  0
    6.1361    9.9690   24.7377 H   0  0  0  0  0  0  0  0  0  0  0  0
   10.7123   11.5657   24.5309 H   0  0  0  0  0  0  0  0  0  0  0  0
   11.3068   11.8806   22.8940 H   0  0  0  0  0  0  0  0  0  0  0  0
    9.3412   10.5807   21.9648 H   0  0  0  0  0  0  0  0  0  0  0  0
   10.3049    9.6227   23.0823 H   0  0  0  0  0  0  0  0  0  0  0  0
    9.9505   13.7680   24.0182 H   0  0  0  0  0  0  0  0  0  0  0  0
   11.6246   13.9216   21.5609 H   0  0  0  0  0  0  0  0  0  0  0  0
   11.1822   12.3433   21.0363 H   0  0  0  0  0  0  0  0  0  0  0  0
  1  2  2  0  0  0  0
  1  4  1  0  0  0  0
  2  6  1  0  0  0  0
  3  5  1  0  0  0  0
  3  6  2  0  0  0  0
  4  5  2  0  0  0  0
  4  9  1  0  0  0  0
  5 13  1  0  0  0  0
  6 15  1  0  0  0  0
  7  8  1  0  0  0  0
  7  9  1  0  0  0  0
  8 13  1  0  0  0  0
  9 14  1  0  0  0  0
 10 14  1  0  0  0  0
 11 14  2  0  0  0  0
 12 14  2  0  0  0  0
  1 16  1  0  0  0  0
  2 17  1  0  0  0  0
  3 18  1  0  0  0  0
  7 19  1  0  0  0  0
  7 20  1  0  0  0  0
  8 21  1  0  0  0  0
  8 22  1  0  0  0  0
  9 23  1  0  0  0  0
 10 24  1  0  0  0  0
 10 25  1  0  0  0  0
M  END
> <Mol Weight>
292,15

> <Formula>
C9H10BrNO3S

> <ID>
EN300-39914087

> <name>
Sulfonamides

> <LogP>
1,05

> <ROCS_ShapeQuery>
x0446_0A_x1080_0A_x0929_0A_x0812_0A_x0719_0A_x1140_0A_x0528_0A_x0310_0A

> <ROCS_TanimotoCombo>
0.352 

> <ROCS_ShapeTanimoto>
0.206 

> <ROCS_ColorTanimoto>
0.147 

> <ROCS_RefTversky>
0.188 

> <ROCS_RefColorTversky>
0.159 

> <ROCS_RefTverskyCombo>
0.347 

> <ROCS_FitTversky>
1.811 

> <ROCS_FitColorTversky>
0.664 

> <ROCS_FitTverskyCombo>
2.475 

> <ROCS_ColorScore>
-5.657

> <ROCS_Overlap>
2220.746

> <ROCS_Rank>
122                 

$$$$
untitled-dbase-1472_231
  -OEChem-02082415043D

 22 22  0     0  0  0  0  0  0999 V2000
    8.1123   12.3683   23.7485 C   0  0  0  0  0  0  0  0  0  0  0  0
    7.6804   11.2872   24.5360 C   0  0  0  0  0  0  0  0  0  0  0  0
    8.9831   11.7963   22.8593 C   0  0  0  0  0  0  0  0  0  0  0  0
    6.7536   11.3134   25.6301 C   0  0  0  0  0  0  0  0  0  0  0  0
    6.4898   10.8500   27.9723 C   0  0  0  0  0  0  0  0  0  0  0  0
    9.8155   12.3300   21.7345 C   0  0  0  0  0  0  0  0  0  0  0  0
    8.2405   10.1328   24.1637 N   0  0  0  0  0  0  0  0  0  0  0  0
   11.5633   14.2223   21.0902 N   0  0  0  0  0  0  0  0  0  0  0  0
    5.5635   11.6876   25.5573 O   0  0  0  0  0  0  0  0  0  0  0  0
    9.1288   14.8491   21.6354 O   0  0  0  0  0  0  0  0  0  0  0  0
   10.6558   14.0711   23.4924 O   0  0  0  0  0  0  0  0  0  0  0  0
    9.0680   10.4623   23.0970 O   0  0  0  0  0  0  0  0  0  0  0  0
    7.3178   10.8719   26.8046 O   0  0  0  0  0  0  0  0  0  0  0  0
   10.2164   14.0181   22.1123 S   0  0  0  0  0  0  0  0  0  0  0  0
    7.8336   13.4098   23.8150 H   0  0  0  0  0  0  0  0  0  0  0  0
    7.0675   10.4795   28.8227 H   0  0  0  0  0  0  0  0  0  0  0  0
    5.6262   10.2038   27.7957 H   0  0  0  0  0  0  0  0  0  0  0  0
    6.1456   11.8653   28.1832 H   0  0  0  0  0  0  0  0  0  0  0  0
    9.2777   12.3122   20.7824 H   0  0  0  0  0  0  0  0  0  0  0  0
   10.7510   11.7755   21.6181 H   0  0  0  0  0  0  0  0  0  0  0  0
   12.4348   13.7402   21.3425 H   0  0  0  0  0  0  0  0  0  0  0  0
   11.3948   14.2703   20.0779 H   0  0  0  0  0  0  0  0  0  0  0  0
  1  2  1  0  0  0  0
  1  3  2  0  0  0  0
  2  4  1  0  0  0  0
  2  7  2  0  0  0  0
  3  6  1  0  0  0  0
  3 12  1  0  0  0  0
  4  9  2  0  0  0  0
  4 13  1  0  0  0  0
  5 13  1  0  0  0  0
  6 14  1  0  0  0  0
  7 12  1  0  0  0  0
  8 14  1  0  0  0  0
 10 14  2  0  0  0  0
 11 14  2  0  0  0  0
  1 15  1  0  0  0  0
  5 16  1  0  0  0  0
  5 17  1  0  0  0  0
  5 18  1  0  0  0  0
  6 19  1  0  0  0  0
  6 20  1  0  0  0  0
  8 21  1  0  0  0  0
  8 22  1  0  0  0  0
M  END
> <Mol Weight>
220,20

> <Formula>
C6H8N2O5S

> <ID>
EN300-1697869

> <name>
Sulfonamides

> <LogP>
-1,18

> <ROCS_ShapeQuery>
x0446_0A_x1080_0A_x0929_0A_x0812_0A_x0719_0A_x1140_0A_x0528_0A_x0310_0A

> <ROCS_TanimotoCombo>
0.352 

> <ROCS_ShapeTanimoto>
0.175 

> <ROCS_ColorTanimoto>
0.177 

> <ROCS_RefTversky>
0.164 

> <ROCS_RefColorTversky>
0.182 

> <ROCS_RefTverskyCombo>
0.346 

> <ROCS_FitTversky>
1.631 

> <ROCS_FitColorTversky>
0.860 

> <ROCS_FitTverskyCombo>
2.490 

> <ROCS_ColorScore>
-6.501

> <ROCS_Overlap>
1933.820

> <ROCS_Rank>
123                 

$$$$
untitled-dbase-1728_501
  -OEChem-02082415043D

 30 31  0     0  0  0  0  0  0999 V2000
    8.3008   12.1981   22.2985 C   0  0  0  0  0  0  0  0  0  0  0  0
    9.6120   12.0423   22.6849 C   0  0  0  0  0  0  0  0  0  0  0  0
    8.4605   11.6875   24.4500 C   0  0  0  0  0  0  0  0  0  0  0  0
    7.9888   11.3522   25.8224 C   0  0  0  0  0  0  0  0  0  0  0  0
    6.5428   11.7983   26.0541 C   0  0  0  0  0  0  0  0  0  0  0  0
    5.6529   11.4032   24.8736 C   0  0  0  0  0  0  0  0  0  0  0  0
    6.1445   12.0556   23.5813 C   0  0  0  0  0  0  0  0  0  0  0  0
   11.8926   15.8635   22.1232 C   0  0  0  0  0  0  0  0  0  0  0  0
   10.8239   12.1773   21.8623 C   0  0  0  0  0  0  0  0  0  0  0  0
    9.7050   11.7248   24.0184 N   0  0  0  0  0  0  0  0  0  0  0  0
    7.5826   11.9668   23.4325 N   0  0  0  0  0  0  0  0  0  0  0  0
   10.9656   13.4922   21.2707 N   0  0  0  0  0  0  0  0  0  0  0  0
   10.1150   14.5162   23.4925 O   0  0  0  0  0  0  0  0  0  0  0  0
    9.4306   15.5767   21.3099 O   0  0  0  0  0  0  0  0  0  0  0  0
   10.4110   14.8803   22.1207 S   0  0  0  0  0  0  0  0  0  0  0  0
    7.8393   12.4495   21.3535 H   0  0  0  0  0  0  0  0  0  0  0  0
    8.0629   10.2666   25.9590 H   0  0  0  0  0  0  0  0  0  0  0  0
    8.6424   11.8186   26.5676 H   0  0  0  0  0  0  0  0  0  0  0  0
    6.1629   11.3499   26.9789 H   0  0  0  0  0  0  0  0  0  0  0  0
    6.5074   12.8876   26.1856 H   0  0  0  0  0  0  0  0  0  0  0  0
    5.6647   10.3116   24.7628 H   0  0  0  0  0  0  0  0  0  0  0  0
    4.6147   11.6960   25.0647 H   0  0  0  0  0  0  0  0  0  0  0  0
    5.6818   11.5799   22.7103 H   0  0  0  0  0  0  0  0  0  0  0  0
    5.8966   13.1231   23.5725 H   0  0  0  0  0  0  0  0  0  0  0  0
   11.6839   16.7996   22.6435 H   0  0  0  0  0  0  0  0  0  0  0  0
   12.6753   15.3055   22.6393 H   0  0  0  0  0  0  0  0  0  0  0  0
   12.1793   16.0568   21.0884 H   0  0  0  0  0  0  0  0  0  0  0  0
   11.7460   11.9940   22.4459 H   0  0  0  0  0  0  0  0  0  0  0  0
   10.8503   11.4542   21.0253 H   0  0  0  0  0  0  0  0  0  0  0  0
   10.8487   13.5281   20.2392 H   0  0  0  0  0  0  0  0  0  0  0  0
  1  2  2  0  0  0  0
  1 11  1  0  0  0  0
  2  9  1  0  0  0  0
  2 10  1  0  0  0  0
  3  4  1  0  0  0  0
  3 10  2  0  0  0  0
  3 11  1  0  0  0  0
  4  5  1  0  0  0  0
  5  6  1  0  0  0  0
  6  7  1  0  0  0  0
  7 11  1  0  0  0  0
  8 15  1  0  0  0  0
  9 12  1  0  0  0  0
 12 15  1  0  0  0  0
 13 15  2  0  0  0  0
 14 15  2  0  0  0  0
  1 16  1  0  0  0  0
  4 17  1  0  0  0  0
  4 18  1  0  0  0  0
  5 19  1  0  0  0  0
  5 20  1  0  0  0  0
  6 21  1  0  0  0  0
  6 22  1  0  0  0  0
  7 23  1  0  0  0  0
  7 24  1  0  0  0  0
  8 25  1  0  0  0  0
  8 26  1  0  0  0  0
  8 27  1  0  0  0  0
  9 28  1  0  0  0  0
  9 29  1  0  0  0  0
 12 30  1  0  0  0  0
M  END
> <Mol Weight>
229,30

> <Formula>
C9H15N3O2S

> <ID>
EN300-158736

> <name>
Sulfonamides

> <LogP>
-0,61

> <ROCS_ShapeQuery>
x0446_0A_x1080_0A_x0929_0A_x0812_0A_x0719_0A_x1140_0A_x0528_0A_x0310_0A

> <ROCS_TanimotoCombo>
0.352 

> <ROCS_ShapeTanimoto>
0.184 

> <ROCS_ColorTanimoto>
0.168 

> <ROCS_RefTversky>
0.172 

> <ROCS_RefColorTversky>
0.178 

> <ROCS_RefTverskyCombo>
0.350 

> <ROCS_FitTversky>
1.644 

> <ROCS_FitColorTversky>
0.746 

> <ROCS_FitTverskyCombo>
2.390 

> <ROCS_ColorScore>
-6.368

> <ROCS_Overlap>
2024.203

> <ROCS_Rank>
124                 

$$$$
untitled-dbase-2375_51
  -OEChem-02082415043D

 30 30  0     0  0  0  0  0  0999 V2000
    9.5456   10.5300   22.6296 C   0  0  0  0  0  0  0  0  0  0  0  0
   10.0604   11.7348   22.1513 C   0  0  0  0  0  0  0  0  0  0  0  0
    8.2442   11.7367   24.2688 C   0  0  0  0  0  0  0  0  0  0  0  0
    8.7590   12.9416   23.7905 C   0  0  0  0  0  0  0  0  0  0  0  0
    8.6374   10.5309   23.6883 C   0  0  0  0  0  0  0  0  0  0  0  0
    9.6672   12.9407   22.7318 C   0  0  0  0  0  0  0  0  0  0  0  0
    6.9233   14.6454   24.0252 C   0  0  0  0  0  0  0  0  0  0  0  0
    8.5811    8.1596   23.5160 C   0  0  0  0  0  0  0  0  0  0  0  0
    5.6110   15.1912   22.1329 C   0  0  0  0  0  0  0  0  0  0  0  0
    8.3177   14.2154   24.4342 C   0  0  0  0  0  0  0  0  0  0  0  0
   11.3416   13.8395   20.8627 N   0  0  0  0  0  0  0  0  0  0  0  0
    5.9935   14.8365   24.7972 O   0  0  0  0  0  0  0  0  0  0  0  0
    9.2469   15.1976   21.5059 O   0  0  0  0  0  0  0  0  0  0  0  0
   11.1603   15.0361   23.1370 O   0  0  0  0  0  0  0  0  0  0  0  0
    8.1357    9.3550   24.1551 O   0  0  0  0  0  0  0  0  0  0  0  0
    6.8754   14.7848   22.6664 O   0  0  0  0  0  0  0  0  0  0  0  0
   10.3308   14.4337   22.1045 S   0  0  0  0  0  0  0  0  0  0  0  0
    9.8557    9.5939   22.1733 H   0  0  0  0  0  0  0  0  0  0  0  0
   10.7661   11.7215   21.3249 H   0  0  0  0  0  0  0  0  0  0  0  0
    7.5362   11.7329   25.0942 H   0  0  0  0  0  0  0  0  0  0  0  0
    8.1044    7.2954   23.9850 H   0  0  0  0  0  0  0  0  0  0  0  0
    9.6677    8.0818   23.6034 H   0  0  0  0  0  0  0  0  0  0  0  0
    8.3043    8.1969   22.4597 H   0  0  0  0  0  0  0  0  0  0  0  0
    5.6824   15.2718   21.0454 H   0  0  0  0  0  0  0  0  0  0  0  0
    5.3261   16.1550   22.5623 H   0  0  0  0  0  0  0  0  0  0  0  0
    4.8586   14.4425   22.3918 H   0  0  0  0  0  0  0  0  0  0  0  0
    8.3341   14.1102   25.5300 H   0  0  0  0  0  0  0  0  0  0  0  0
    9.0141   15.0286   24.1781 H   0  0  0  0  0  0  0  0  0  0  0  0
   12.2009   13.3473   21.1358 H   0  0  0  0  0  0  0  0  0  0  0  0
   10.8951   13.4587   20.0196 H   0  0  0  0  0  0  0  0  0  0  0  0
  1  2  2  0  0  0  0
  1  5  1  0  0  0  0
  2  6  1  0  0  0  0
  3  4  1  0  0  0  0
  3  5  2  0  0  0  0
  4  6  2  0  0  0  0
  4 10  1  0  0  0  0
  5 15  1  0  0  0  0
  6 17  1  0  0  0  0
  7 10  1  0  0  0  0
  7 12  2  0  0  0  0
  7 16  1  0  0  0  0
  8 15  1  0  0  0  0
  9 16  1  0  0  0  0
 11 17  1  0  0  0  0
 13 17  2  0  0  0  0
 14 17  2  0  0  0  0
  1 18  1  0  0  0  0
  2 19  1  0  0  0  0
  3 20  1  0  0  0  0
  8 21  1  0  0  0  0
  8 22  1  0  0  0  0
  8 23  1  0  0  0  0
  9 24  1  0  0  0  0
  9 25  1  0  0  0  0
  9 26  1  0  0  0  0
 10 27  1  0  0  0  0
 10 28  1  0  0  0  0
 11 29  1  0  0  0  0
 11 30  1  0  0  0  0
M  END
> <Mol Weight>
259,28

> <Formula>
C10H13NO5S

> <ID>
EN300-252276

> <name>
Sulfonamides

> <LogP>
0,21

> <ROCS_ShapeQuery>
x0446_0A_x1080_0A_x0929_0A_x0812_0A_x0719_0A_x1140_0A_x0528_0A_x0310_0A

> <ROCS_TanimotoCombo>
0.352 

> <ROCS_ShapeTanimoto>
0.214 

> <ROCS_ColorTanimoto>
0.138 

> <ROCS_RefTversky>
0.196 

> <ROCS_RefColorTversky>
0.147 

> <ROCS_RefTverskyCombo>
0.343 

> <ROCS_FitTversky>
1.769 

> <ROCS_FitColorTversky>
0.693 

> <ROCS_FitTverskyCombo>
2.462 

> <ROCS_ColorScore>
-5.243

> <ROCS_Overlap>
2309.604

> <ROCS_Rank>
125                 

$$$$
untitled-dbase-2286_9566
  -OEChem-02082415043D

 32 32  0     1  0  0  0  0  0999 V2000
    6.4743   14.3191   23.4004 C   0  0  0  0  0  0  0  0  0  0  0  0
    9.0190   11.1533   24.8198 C   0  0  0  0  0  0  0  0  0  0  0  0
    8.1478   11.0645   22.5572 C   0  0  0  0  0  0  0  0  0  0  0  0
    9.0607   10.3385   23.5365 C   0  0  1  0  0  0  0  0  0  0  0  0
    8.5336   12.5313   24.3715 C   0  0  1  0  0  0  0  0  0  0  0  0
   12.0419   14.8967   22.4666 C   0  0  0  0  0  0  0  0  0  0  0  0
    7.0600   13.2412   22.5177 C   0  0  0  0  0  0  0  0  0  0  0  0
    9.6912   13.4212   23.9089 C   0  0  0  0  0  0  0  0  0  0  0  0
    7.5616   12.1541   23.3394 N   0  0  1  0  0  0  0  0  0  0  0  0
    5.4605   15.0137   22.7762 N   0  0  0  0  0  0  0  0  0  0  0  0
   10.0670   13.0756   22.5784 N   0  0  0  0  0  0  0  0  0  0  0  0
    6.8282   14.5242   24.5583 O   0  0  0  0  0  0  0  0  0  0  0  0
    9.7082   15.3403   21.3679 O   0  0  0  0  0  0  0  0  0  0  0  0
   11.2494   13.6414   20.3215 O   0  0  0  0  0  0  0  0  0  0  0  0
   10.3294   10.3592   23.0450 F   0  0  0  0  0  0  0  0  0  0  0  0
   10.6861   14.2777   21.4967 S   0  0  0  0  0  0  0  0  0  0  0  0
    8.2975   10.7201   25.5171 H   0  0  0  0  0  0  0  0  0  0  0  0
   10.0023   11.1750   25.2940 H   0  0  0  0  0  0  0  0  0  0  0  0
    8.7141   11.4520   21.6922 H   0  0  0  0  0  0  0  0  0  0  0  0
    7.3714   10.3710   22.1812 H   0  0  0  0  0  0  0  0  0  0  0  0
    8.7789    9.2884   23.6863 H   0  0  0  0  0  0  0  0  0  0  0  0
    8.0275   12.9983   25.2308 H   0  0  0  0  0  0  0  0  0  0  0  0
   12.5413   15.6829   21.8981 H   0  0  0  0  0  0  0  0  0  0  0  0
   11.6434   15.2947   23.4010 H   0  0  0  0  0  0  0  0  0  0  0  0
   12.7287   14.0723   22.6638 H   0  0  0  0  0  0  0  0  0  0  0  0
    7.8929   13.6306   21.9261 H   0  0  0  0  0  0  0  0  0  0  0  0
    6.2834   12.8486   21.8558 H   0  0  0  0  0  0  0  0  0  0  0  0
    9.3457   14.4537   23.9520 H   0  0  0  0  0  0  0  0  0  0  0  0
   10.5218   13.2578   24.5949 H   0  0  0  0  0  0  0  0  0  0  0  0
    4.9759   15.7679   23.2513 H   0  0  0  0  0  0  0  0  0  0  0  0
    5.1612   14.8048   21.8291 H   0  0  0  0  0  0  0  0  0  0  0  0
   10.4976   12.1281   22.4470 H   0  0  0  0  0  0  0  0  0  0  0  0
  1  7  1  0  0  0  0
  1 10  1  0  0  0  0
  1 12  2  0  0  0  0
  2  4  1  0  0  0  0
  2  5  1  0  0  0  0
  3  4  1  0  0  0  0
  3  9  1  0  0  0  0
  4 15  1  6  0  0  0
  5  8  1  6  0  0  0
  5  9  1  0  0  0  0
  6 16  1  0  0  0  0
  7  9  1  0  0  0  0
  8 11  1  0  0  0  0
 11 16  1  0  0  0  0
 13 16  2  0  0  0  0
 14 16  2  0  0  0  0
  2 17  1  0  0  0  0
  2 18  1  0  0  0  0
  3 19  1  0  0  0  0
  3 20  1  0  0  0  0
  4 21  1  0  0  0  0
  5 22  1  0  0  0  0
  6 23  1  0  0  0  0
  6 24  1  0  0  0  0
  6 25  1  0  0  0  0
  7 26  1  0  0  0  0
  7 27  1  0  0  0  0
  8 28  1  0  0  0  0
  8 29  1  0  0  0  0
 10 30  1  0  0  0  0
 10 31  1  0  0  0  0
 11 32  1  0  0  0  0
M  END
> <Mol Weight>
253,29

> <Formula>
C8H16FN3O3S

> <ID>
EN300-159496

> <name>
Sulfonamides

> <LogP>
-2,41

> <ROCS_ShapeQuery>
x0446_0A_x1080_0A_x0929_0A_x0812_0A_x0719_0A_x1140_0A_x0528_0A_x0310_0A

> <ROCS_TanimotoCombo>
0.352 

> <ROCS_ShapeTanimoto>
0.215 

> <ROCS_ColorTanimoto>
0.137 

> <ROCS_RefTversky>
0.196 

> <ROCS_RefColorTversky>
0.149 

> <ROCS_RefTverskyCombo>
0.345 

> <ROCS_FitTversky>
1.848 

> <ROCS_FitColorTversky>
0.627 

> <ROCS_FitTverskyCombo>
2.475 

> <ROCS_ColorScore>
-5.334

> <ROCS_Overlap>
2306.616

> <ROCS_Rank>
126                 

$$$$
untitled-dbase-1732_27
  -OEChem-02082415043D

 30 31  0     0  0  0  0  0  0999 V2000
    9.8761   10.9318   22.2826 C   0  0  0  0  0  0  0  0  0  0  0  0
    9.4691   12.0664   22.9411 C   0  0  0  0  0  0  0  0  0  0  0  0
    8.5519   11.6045   23.9041 C   0  0  0  0  0  0  0  0  0  0  0  0
    5.5376   11.5452   25.0982 C   0  0  0  0  0  0  0  0  0  0  0  0
    5.4108   12.9351   24.4899 C   0  0  0  0  0  0  0  0  0  0  0  0
    6.8780   11.5633   25.8150 C   0  0  0  0  0  0  0  0  0  0  0  0
    6.8343   13.4781   24.3363 C   0  0  0  0  0  0  0  0  0  0  0  0
    7.7816   12.4198   24.9217 C   0  0  0  0  0  0  0  0  0  0  0  0
    9.3024    8.5036   22.5154 C   0  0  0  0  0  0  0  0  0  0  0  0
    8.3857   10.2798   23.8642 N   0  0  0  0  0  0  0  0  0  0  0  0
    9.2038    9.8996   22.8681 N   0  0  0  0  0  0  0  0  0  0  0  0
   11.0839   13.4676   21.3494 N   0  0  0  0  0  0  0  0  0  0  0  0
    8.8444   14.4647   22.1468 O   0  0  0  0  0  0  0  0  0  0  0  0
   10.7253   14.1808   23.7988 O   0  0  0  0  0  0  0  0  0  0  0  0
    9.9726   13.6620   22.6453 S   0  0  0  0  0  0  0  0  0  0  0  0
   10.5698   10.7742   21.4679 H   0  0  0  0  0  0  0  0  0  0  0  0
    4.7224   11.3701   25.8183 H   0  0  0  0  0  0  0  0  0  0  0  0
    5.4829   10.7534   24.3372 H   0  0  0  0  0  0  0  0  0  0  0  0
    4.9284   12.8697   23.4962 H   0  0  0  0  0  0  0  0  0  0  0  0
    4.7805   13.6030   25.1045 H   0  0  0  0  0  0  0  0  0  0  0  0
    6.7906   11.9749   26.8263 H   0  0  0  0  0  0  0  0  0  0  0  0
    7.2586   10.5378   25.9098 H   0  0  0  0  0  0  0  0  0  0  0  0
    7.0466   13.7401   23.2887 H   0  0  0  0  0  0  0  0  0  0  0  0
    6.9253   14.4085   24.9192 H   0  0  0  0  0  0  0  0  0  0  0  0
    8.5309   12.9322   25.5593 H   0  0  0  0  0  0  0  0  0  0  0  0
   10.1008    8.0596   23.1157 H   0  0  0  0  0  0  0  0  0  0  0  0
    8.3493    8.0081   22.7204 H   0  0  0  0  0  0  0  0  0  0  0  0
    9.5299    8.4154   21.4494 H   0  0  0  0  0  0  0  0  0  0  0  0
   10.8023   13.7801   20.4121 H   0  0  0  0  0  0  0  0  0  0  0  0
   12.0861   13.5846   21.5422 H   0  0  0  0  0  0  0  0  0  0  0  0
  1  2  2  0  0  0  0
  1 11  1  0  0  0  0
  2  3  1  0  0  0  0
  2 15  1  0  0  0  0
  3  8  1  0  0  0  0
  3 10  2  0  0  0  0
  4  5  1  0  0  0  0
  4  6  1  0  0  0  0
  5  7  1  0  0  0  0
  6  8  1  0  0  0  0
  7  8  1  0  0  0  0
  9 11  1  0  0  0  0
 10 11  1  0  0  0  0
 12 15  1  0  0  0  0
 13 15  2  0  0  0  0
 14 15  2  0  0  0  0
  1 16  1  0  0  0  0
  4 17  1  0  0  0  0
  4 18  1  0  0  0  0
  5 19  1  0  0  0  0
  5 20  1  0  0  0  0
  6 21  1  0  0  0  0
  6 22  1  0  0  0  0
  7 23  1  0  0  0  0
  7 24  1  0  0  0  0
  8 25  1  0  0  0  0
  9 26  1  0  0  0  0
  9 27  1  0  0  0  0
  9 28  1  0  0  0  0
 12 29  1  0  0  0  0
 12 30  1  0  0  0  0
M  END
> <Mol Weight>
229,30

> <Formula>
C9H15N3O2S

> <ID>
EN300-736626

> <name>
Sulfonamides

> <LogP>
0,81

> <ROCS_ShapeQuery>
x0446_0A_x1080_0A_x0929_0A_x0812_0A_x0719_0A_x1140_0A_x0528_0A_x0310_0A

> <ROCS_TanimotoCombo>
0.352 

> <ROCS_ShapeTanimoto>
0.211 

> <ROCS_ColorTanimoto>
0.141 

> <ROCS_RefTversky>
0.193 

> <ROCS_RefColorTversky>
0.150 

> <ROCS_RefTverskyCombo>
0.342 

> <ROCS_FitTversky>
1.848 

> <ROCS_FitColorTversky>
0.705 

> <ROCS_FitTverskyCombo>
2.553 

> <ROCS_ColorScore>
-5.330

> <ROCS_Overlap>
2271.142

> <ROCS_Rank>
127                 

$$$$
untitled-dbase-1646_3
  -OEChem-02082415043D

 24 25  0     0  0  0  0  0  0999 V2000
    9.4189   10.8934   23.0624 C   0  0  0  0  0  0  0  0  0  0  0  0
    9.2004   12.2360   23.2632 C   0  0  0  0  0  0  0  0  0  0  0  0
    7.6333   10.9992   24.2327 C   0  0  0  0  0  0  0  0  0  0  0  0
    6.4453   10.8207   25.0009 C   0  0  0  0  0  0  0  0  0  0  0  0
    6.2650   13.2534   25.2242 C   0  0  0  0  0  0  0  0  0  0  0  0
    7.3837   13.4255   24.5007 C   0  0  0  0  0  0  0  0  0  0  0  0
    5.7902   11.8983   25.4757 C   0  0  0  0  0  0  0  0  0  0  0  0
    4.1068   13.0049   26.6244 C   0  0  0  0  0  0  0  0  0  0  0  0
    8.4476   10.1338   23.6638 N   0  0  0  0  0  0  0  0  0  0  0  0
    8.0549   12.3076   24.0138 N   0  0  0  0  0  0  0  0  0  0  0  0
   11.3758   12.8974   21.8722 N   0  0  0  0  0  0  0  0  0  0  0  0
    9.2743   14.3889   21.8028 O   0  0  0  0  0  0  0  0  0  0  0  0
   10.6533   14.2990   23.9095 O   0  0  0  0  0  0  0  0  0  0  0  0
    4.6397   11.7655   26.2226 O   0  0  0  0  0  0  0  0  0  0  0  0
   10.1109   13.6527   22.7303 S   0  0  0  0  0  0  0  0  0  0  0  0
   10.2284   10.4329   22.5147 H   0  0  0  0  0  0  0  0  0  0  0  0
    6.0865    9.8148   25.1922 H   0  0  0  0  0  0  0  0  0  0  0  0
    5.7169   14.1008   25.6185 H   0  0  0  0  0  0  0  0  0  0  0  0
    7.7833   14.4078   24.2814 H   0  0  0  0  0  0  0  0  0  0  0  0
    3.1997   12.8395   27.2106 H   0  0  0  0  0  0  0  0  0  0  0  0
    3.8783   13.6076   25.7417 H   0  0  0  0  0  0  0  0  0  0  0  0
    4.8446   13.5268   27.2384 H   0  0  0  0  0  0  0  0  0  0  0  0
   11.3744   12.9784   20.8480 H   0  0  0  0  0  0  0  0  0  0  0  0
   12.3146   12.9161   22.2887 H   0  0  0  0  0  0  0  0  0  0  0  0
  1  2  2  0  0  0  0
  1  9  1  0  0  0  0
  2 10  1  0  0  0  0
  2 15  1  0  0  0  0
  3  4  1  0  0  0  0
  3  9  2  0  0  0  0
  3 10  1  0  0  0  0
  4  7  2  0  0  0  0
  5  6  2  0  0  0  0
  5  7  1  0  0  0  0
  6 10  1  0  0  0  0
  7 14  1  0  0  0  0
  8 14  1  0  0  0  0
 11 15  1  0  0  0  0
 12 15  2  0  0  0  0
 13 15  2  0  0  0  0
  1 16  1  0  0  0  0
  4 17  1  0  0  0  0
  5 18  1  0  0  0  0
  6 19  1  0  0  0  0
  8 20  1  0  0  0  0
  8 21  1  0  0  0  0
  8 22  1  0  0  0  0
 11 23  1  0  0  0  0
 11 24  1  0  0  0  0
M  END
> <Mol Weight>
227,24

> <Formula>
C8H9N3O3S

> <ID>
EN300-39914102

> <name>
Sulfonamides

> <LogP>
-0,70

> <ROCS_ShapeQuery>
x0446_0A_x1080_0A_x0929_0A_x0812_0A_x0719_0A_x1140_0A_x0528_0A_x0310_0A

> <ROCS_TanimotoCombo>
0.352 

> <ROCS_ShapeTanimoto>
0.201 

> <ROCS_ColorTanimoto>
0.151 

> <ROCS_RefTversky>
0.185 

> <ROCS_RefColorTversky>
0.166 

> <ROCS_RefTverskyCombo>
0.351 

> <ROCS_FitTversky>
1.743 

> <ROCS_FitColorTversky>
0.625 

> <ROCS_FitTverskyCombo>
2.367 

> <ROCS_ColorScore>
-5.926

> <ROCS_Overlap>
2185.491

> <ROCS_Rank>
128                 

$$$$
untitled-dbase-2511_123
  -OEChem-02082415043D

 30 31  0     0  0  0  0  0  0999 V2000
   11.9853   10.6953   23.2862 C   0  0  0  0  0  0  0  0  0  0  0  0
   12.0846   12.1015   23.3013 C   0  0  0  0  0  0  0  0  0  0  0  0
   10.7594   10.0590   23.5015 C   0  0  0  0  0  0  0  0  0  0  0  0
   10.9600   12.8992   23.5317 C   0  0  0  0  0  0  0  0  0  0  0  0
    9.6633   10.8660   23.7266 C   0  0  0  0  0  0  0  0  0  0  0  0
    9.7609   12.2497   23.7411 C   0  0  0  0  0  0  0  0  0  0  0  0
    8.2688   10.5075   23.9816 C   0  0  0  0  0  0  0  0  0  0  0  0
    8.4299   12.7957   24.0057 C   0  0  0  0  0  0  0  0  0  0  0  0
    5.5484   13.0380   23.7658 C   0  0  0  0  0  0  0  0  0  0  0  0
    6.1766   11.8009   24.3971 C   0  0  0  0  0  0  0  0  0  0  0  0
    5.7240   13.0725   22.2537 C   0  0  0  0  0  0  0  0  0  0  0  0
    7.5984   11.7034   24.1331 N   0  0  0  0  0  0  0  0  0  0  0  0
    5.4688   15.6706   22.7393 N   0  0  0  0  0  0  0  0  0  0  0  0
    7.8557    9.3640   24.0350 O   0  0  0  0  0  0  0  0  0  0  0  0
    8.1858   13.9855   24.0830 O   0  0  0  0  0  0  0  0  0  0  0  0
    5.7058   14.8296   20.3199 O   0  0  0  0  0  0  0  0  0  0  0  0
    3.5645   14.3829   21.5851 O   0  0  0  0  0  0  0  0  0  0  0  0
    5.0094   14.5295   21.5589 S   0  0  0  0  0  0  0  0  0  0  0  0
   12.8762   10.0996   23.1044 H   0  0  0  0  0  0  0  0  0  0  0  0
   13.0506   12.5699   23.1314 H   0  0  0  0  0  0  0  0  0  0  0  0
   10.6836    8.9780   23.4902 H   0  0  0  0  0  0  0  0  0  0  0  0
   11.0368   13.9799   23.5433 H   0  0  0  0  0  0  0  0  0  0  0  0
    6.0109   13.9310   24.2038 H   0  0  0  0  0  0  0  0  0  0  0  0
    4.4807   13.0845   24.0143 H   0  0  0  0  0  0  0  0  0  0  0  0
    6.0372   11.7994   25.4829 H   0  0  0  0  0  0  0  0  0  0  0  0
    5.7141   10.8958   23.9914 H   0  0  0  0  0  0  0  0  0  0  0  0
    6.7823   13.0753   21.9763 H   0  0  0  0  0  0  0  0  0  0  0  0
    5.2344   12.2220   21.7703 H   0  0  0  0  0  0  0  0  0  0  0  0
    6.1924   16.3549   22.4870 H   0  0  0  0  0  0  0  0  0  0  0  0
    4.7341   16.0505   23.3487 H   0  0  0  0  0  0  0  0  0  0  0  0
  1  2  1  0  0  0  0
  1  3  2  0  0  0  0
  2  4  2  0  0  0  0
  3  5  1  0  0  0  0
  4  6  1  0  0  0  0
  5  6  2  0  0  0  0
  5  7  1  0  0  0  0
  6  8  1  0  0  0  0
  7 12  1  0  0  0  0
  7 14  2  0  0  0  0
  8 12  1  0  0  0  0
  8 15  2  0  0  0  0
  9 10  1  0  0  0  0
  9 11  1  0  0  0  0
 10 12  1  0  0  0  0
 11 18  1  0  0  0  0
 13 18  1  0  0  0  0
 16 18  2  0  0  0  0
 17 18  2  0  0  0  0
  1 19  1  0  0  0  0
  2 20  1  0  0  0  0
  3 21  1  0  0  0  0
  4 22  1  0  0  0  0
  9 23  1  0  0  0  0
  9 24  1  0  0  0  0
 10 25  1  0  0  0  0
 10 26  1  0  0  0  0
 11 27  1  0  0  0  0
 11 28  1  0  0  0  0
 13 29  1  0  0  0  0
 13 30  1  0  0  0  0
M  END
> <Mol Weight>
268,29

> <Formula>
C11H12N2O4S

> <ID>
EN300-123321

> <name>
Sulfonamides

> <LogP>
-0,58

> <ROCS_ShapeQuery>
x0446_0A_x1080_0A_x0929_0A_x0812_0A_x0719_0A_x1140_0A_x0528_0A_x0310_0A

> <ROCS_TanimotoCombo>
0.352 

> <ROCS_ShapeTanimoto>
0.212 

> <ROCS_ColorTanimoto>
0.140 

> <ROCS_RefTversky>
0.195 

> <ROCS_RefColorTversky>
0.152 

> <ROCS_RefTverskyCombo>
0.347 

> <ROCS_FitTversky>
1.679 

> <ROCS_FitColorTversky>
0.637 

> <ROCS_FitTverskyCombo>
2.316 

> <ROCS_ColorScore>
-5.433

> <ROCS_Overlap>
2301.635

> <ROCS_Rank>
129                 

$$$$
untitled-dbase-1473_15
  -OEChem-02082415043D

 26 26  0     0  0  0  0  0  0999 V2000
    9.7694   11.1122   23.4722 C   0  0  0  0  0  0  0  0  0  0  0  0
    7.7658   11.7506   24.0082 C   0  0  0  0  0  0  0  0  0  0  0  0
   11.1667   11.1690   23.0071 C   0  0  0  0  0  0  0  0  0  0  0  0
    8.6455   15.7281   20.2484 C   0  0  0  0  0  0  0  0  0  0  0  0
    9.3000   13.5808   23.1787 C   0  0  0  0  0  0  0  0  0  0  0  0
    8.7407   13.9844   21.8211 C   0  0  0  0  0  0  0  0  0  0  0  0
    9.1117   10.0495   23.8778 N   0  0  0  0  0  0  0  0  0  0  0  0
    7.8370   10.4556   24.2189 N   0  0  0  0  0  0  0  0  0  0  0  0
    8.9601   12.2056   23.5378 N   0  0  0  0  0  0  0  0  0  0  0  0
    5.5640   12.6127   22.7779 N   0  0  0  0  0  0  0  0  0  0  0  0
    5.5197   12.0393   25.2908 O   0  0  0  0  0  0  0  0  0  0  0  0
    6.7527   14.0956   24.5171 O   0  0  0  0  0  0  0  0  0  0  0  0
    9.1383   15.3142   21.5156 O   0  0  0  0  0  0  0  0  0  0  0  0
    6.3418   12.7154   24.2962 S   0  0  0  0  0  0  0  0  0  0  0  0
   11.2318   11.0107   21.9173 H   0  0  0  0  0  0  0  0  0  0  0  0
   11.6407   12.1408   23.2315 H   0  0  0  0  0  0  0  0  0  0  0  0
   11.7984   10.4047   23.4933 H   0  0  0  0  0  0  0  0  0  0  0  0
    8.9697   16.7521   20.0474 H   0  0  0  0  0  0  0  0  0  0  0  0
    7.5540   15.6728   20.2451 H   0  0  0  0  0  0  0  0  0  0  0  0
    9.0444   15.0642   19.4778 H   0  0  0  0  0  0  0  0  0  0  0  0
    8.9195   14.2333   23.9732 H   0  0  0  0  0  0  0  0  0  0  0  0
   10.3937   13.6526   23.1797 H   0  0  0  0  0  0  0  0  0  0  0  0
    9.1439   13.3272   21.0443 H   0  0  0  0  0  0  0  0  0  0  0  0
    7.6475   13.9301   21.7981 H   0  0  0  0  0  0  0  0  0  0  0  0
    4.7096   12.0462   22.7111 H   0  0  0  0  0  0  0  0  0  0  0  0
    5.5542   13.4504   22.1833 H   0  0  0  0  0  0  0  0  0  0  0  0
  1  3  1  0  0  0  0
  1  7  2  0  0  0  0
  1  9  1  0  0  0  0
  2  8  2  0  0  0  0
  2  9  1  0  0  0  0
  2 14  1  0  0  0  0
  4 13  1  0  0  0  0
  5  6  1  0  0  0  0
  5  9  1  0  0  0  0
  6 13  1  0  0  0  0
  7  8  1  0  0  0  0
 10 14  1  0  0  0  0
 11 14  2  0  0  0  0
 12 14  2  0  0  0  0
  3 15  1  0  0  0  0
  3 16  1  0  0  0  0
  3 17  1  0  0  0  0
  4 18  1  0  0  0  0
  4 19  1  0  0  0  0
  4 20  1  0  0  0  0
  5 21  1  0  0  0  0
  5 22  1  0  0  0  0
  6 23  1  0  0  0  0
  6 24  1  0  0  0  0
 10 25  1  0  0  0  0
 10 26  1  0  0  0  0
M  END
> <Mol Weight>
220,25

> <Formula>
C6H12N4O3S

> <ID>
EN300-2171602

> <name>
Sulfonamides

> <LogP>
-1,52

> <ROCS_ShapeQuery>
x0446_0A_x1080_0A_x0929_0A_x0812_0A_x0719_0A_x1140_0A_x0528_0A_x0310_0A

> <ROCS_TanimotoCombo>
0.352 

> <ROCS_ShapeTanimoto>
0.192 

> <ROCS_ColorTanimoto>
0.160 

> <ROCS_RefTversky>
0.177 

> <ROCS_RefColorTversky>
0.172 

> <ROCS_RefTverskyCombo>
0.349 

> <ROCS_FitTversky>
1.774 

> <ROCS_FitColorTversky>
0.697 

> <ROCS_FitTverskyCombo>
2.471 

> <ROCS_ColorScore>
-6.129

> <ROCS_Overlap>
2088.498

> <ROCS_Rank>
130                 

$$$$
untitled-dbase-1807_2
  -OEChem-02082415043D

 19 20  0     0  0  0  0  0  0999 V2000
    9.2012   10.9744   23.2202 C   0  0  0  0  0  0  0  0  0  0  0  0
    8.9967   12.3526   23.3706 C   0  0  0  0  0  0  0  0  0  0  0  0
    7.8405   12.4590   24.1096 C   0  0  0  0  0  0  0  0  0  0  0  0
    5.5334   11.9294   25.5698 C   0  0  0  0  0  0  0  0  0  0  0  0
    6.2576   10.9119   25.0935 C   0  0  0  0  0  0  0  0  0  0  0  0
    6.0667   13.2849   25.2512 C   0  0  0  0  0  0  0  0  0  0  0  0
    8.2575   10.2425   23.8114 N   0  0  0  0  0  0  0  0  0  0  0  0
    7.1444   13.5372   24.5688 N   0  0  0  0  0  0  0  0  0  0  0  0
    7.4148   11.1553   24.3612 N   0  0  0  0  0  0  0  0  0  0  0  0
   11.2198   12.7655   21.9592 N   0  0  0  0  0  0  0  0  0  0  0  0
    9.2240   14.3851   21.7610 O   0  0  0  0  0  0  0  0  0  0  0  0
   10.5814   14.3551   23.8833 O   0  0  0  0  0  0  0  0  0  0  0  0
    9.9655   13.6137   22.7712 S   0  0  0  0  0  0  0  0  0  0  0  0
    5.2042   14.6724   25.8217 Cl  0  0  0  0  0  0  0  0  0  0  0  0
   10.0016   10.4649   22.7026 H   0  0  0  0  0  0  0  0  0  0  0  0
    4.6266   11.8052   26.1448 H   0  0  0  0  0  0  0  0  0  0  0  0
    5.9807    9.8770   25.2539 H   0  0  0  0  0  0  0  0  0  0  0  0
   11.2297   12.7724   20.9319 H   0  0  0  0  0  0  0  0  0  0  0  0
   12.1553   12.7513   22.3833 H   0  0  0  0  0  0  0  0  0  0  0  0
  1  2  1  0  0  0  0
  1  7  2  0  0  0  0
  2  3  2  0  0  0  0
  2 13  1  0  0  0  0
  3  8  1  0  0  0  0
  3  9  1  0  0  0  0
  4  5  2  0  0  0  0
  4  6  1  0  0  0  0
  5  9  1  0  0  0  0
  6  8  2  0  0  0  0
  6 14  1  0  0  0  0
  7  9  1  0  0  0  0
 10 13  1  0  0  0  0
 11 13  2  0  0  0  0
 12 13  2  0  0  0  0
  1 15  1  0  0  0  0
  4 16  1  0  0  0  0
  5 17  1  0  0  0  0
 10 18  1  0  0  0  0
 10 19  1  0  0  0  0
M  END
> <Mol Weight>
232,64

> <Formula>
C6H5ClN4O2S

> <ID>
EN300-339503

> <name>
Sulfonamides

> <LogP>
0,08

> <ROCS_ShapeQuery>
x0446_0A_x1080_0A_x0929_0A_x0812_0A_x0719_0A_x1140_0A_x0528_0A_x0310_0A

> <ROCS_TanimotoCombo>
0.352 

> <ROCS_ShapeTanimoto>
0.195 

> <ROCS_ColorTanimoto>
0.157 

> <ROCS_RefTversky>
0.180 

> <ROCS_RefColorTversky>
0.168 

> <ROCS_RefTverskyCombo>
0.348 

> <ROCS_FitTversky>
1.758 

> <ROCS_FitColorTversky>
0.703 

> <ROCS_FitTverskyCombo>
2.461 

> <ROCS_ColorScore>
-5.999

> <ROCS_Overlap>
2118.565

> <ROCS_Rank>
131                 

$$$$
untitled-dbase-2411_135
  -OEChem-02082415043D

 27 27  0     0  0  0  0  0  0999 V2000
    8.9164   10.0651   23.7143 C   0  0  0  0  0  0  0  0  0  0  0  0
    9.8352   10.8051   22.9701 C   0  0  0  0  0  0  0  0  0  0  0  0
    7.9116   10.7170   24.4292 C   0  0  0  0  0  0  0  0  0  0  0  0
    8.7445   12.8489   23.6559 C   0  0  0  0  0  0  0  0  0  0  0  0
    9.7493   12.1970   22.9409 C   0  0  0  0  0  0  0  0  0  0  0  0
    7.8256   12.1089   24.4000 C   0  0  0  0  0  0  0  0  0  0  0  0
   10.4776   14.1785   21.5676 C   0  0  0  0  0  0  0  0  0  0  0  0
   11.7458   14.6367   20.8565 C   0  0  0  0  0  0  0  0  0  0  0  0
   12.6740   15.4725   21.7261 C   0  0  0  0  0  0  0  0  0  0  0  0
    7.3442   13.1668   26.7987 N   0  0  0  0  0  0  0  0  0  0  0  0
   10.6681   12.9373   22.1965 N   0  0  0  0  0  0  0  0  0  0  0  0
    9.4542   14.8545   21.5758 O   0  0  0  0  0  0  0  0  0  0  0  0
    6.3293   14.2203   24.6760 O   0  0  0  0  0  0  0  0  0  0  0  0
    5.4607   11.9982   25.4858 O   0  0  0  0  0  0  0  0  0  0  0  0
    6.5684   12.9243   25.2957 S   0  0  0  0  0  0  0  0  0  0  0  0
   13.1947   14.5677   23.1694 Cl  0  0  0  0  0  0  0  0  0  0  0  0
    8.9827    8.9813   23.7368 H   0  0  0  0  0  0  0  0  0  0  0  0
   10.6136   10.2861   22.4165 H   0  0  0  0  0  0  0  0  0  0  0  0
    7.2011   10.1309   25.0060 H   0  0  0  0  0  0  0  0  0  0  0  0
    8.6768   13.9344   23.6335 H   0  0  0  0  0  0  0  0  0  0  0  0
   12.2795   13.7316   20.5412 H   0  0  0  0  0  0  0  0  0  0  0  0
   11.4725   15.1896   19.9496 H   0  0  0  0  0  0  0  0  0  0  0  0
   13.5719   15.7827   21.1832 H   0  0  0  0  0  0  0  0  0  0  0  0
   12.1561   16.3693   22.0784 H   0  0  0  0  0  0  0  0  0  0  0  0
    7.6239   14.1234   27.0478 H   0  0  0  0  0  0  0  0  0  0  0  0
    7.0311   12.6041   27.5990 H   0  0  0  0  0  0  0  0  0  0  0  0
   11.6044   12.5288   22.0942 H   0  0  0  0  0  0  0  0  0  0  0  0
  1  2  1  0  0  0  0
  1  3  2  0  0  0  0
  2  5  2  0  0  0  0
  3  6  1  0  0  0  0
  4  5  1  0  0  0  0
  4  6  2  0  0  0  0
  5 11  1  0  0  0  0
  6 15  1  0  0  0  0
  7  8  1  0  0  0  0
  7 11  1  0  0  0  0
  7 12  2  0  0  0  0
  8  9  1  0  0  0  0
  9 16  1  0  0  0  0
 10 15  1  0  0  0  0
 13 15  2  0  0  0  0
 14 15  2  0  0  0  0
  1 17  1  0  0  0  0
  2 18  1  0  0  0  0
  3 19  1  0  0  0  0
  4 20  1  0  0  0  0
  8 21  1  0  0  0  0
  8 22  1  0  0  0  0
  9 23  1  0  0  0  0
  9 24  1  0  0  0  0
 10 25  1  0  0  0  0
 10 26  1  0  0  0  0
 11 27  1  0  0  0  0
M  END
> <Mol Weight>
262,71

> <Formula>
C9H11ClN2O3S

> <ID>
EN300-25818

> <name>
Sulfonamides

> <LogP>
0,59

> <ROCS_ShapeQuery>
x0446_0A_x1080_0A_x0929_0A_x0812_0A_x0719_0A_x1140_0A_x0528_0A_x0310_0A

> <ROCS_TanimotoCombo>
0.352 

> <ROCS_ShapeTanimoto>
0.211 

> <ROCS_ColorTanimoto>
0.140 

> <ROCS_RefTversky>
0.193 

> <ROCS_RefColorTversky>
0.149 

> <ROCS_RefTverskyCombo>
0.342 

> <ROCS_FitTversky>
1.826 

> <ROCS_FitColorTversky>
0.703 

> <ROCS_FitTverskyCombo>
2.529 

> <ROCS_ColorScore>
-5.316

> <ROCS_Overlap>
2273.742

> <ROCS_Rank>
132                 

$$$$
untitled-dbase-2587_0
  -OEChem-02082415043D

 21 22  0     0  0  0  0  0  0999 V2000
    6.3128   12.8634   25.1975 C   0  0  0  0  0  0  0  0  0  0  0  0
    7.3553   13.3711   24.4137 C   0  0  0  0  0  0  0  0  0  0  0  0
    6.0731   11.4923   25.2642 C   0  0  0  0  0  0  0  0  0  0  0  0
    9.6644   11.3816   22.3963 C   0  0  0  0  0  0  0  0  0  0  0  0
    8.1668   12.4774   23.6870 C   0  0  0  0  0  0  0  0  0  0  0  0
    7.9034   11.1087   23.7727 C   0  0  0  0  0  0  0  0  0  0  0  0
    9.2803   12.6346   22.8150 C   0  0  0  0  0  0  0  0  0  0  0  0
    6.8648   10.5868   24.5520 C   0  0  0  0  0  0  0  0  0  0  0  0
    8.8278   10.4678   22.9790 N   0  0  0  0  0  0  0  0  0  0  0  0
   11.2729   13.5731   21.3138 N   0  0  0  0  0  0  0  0  0  0  0  0
    9.0818   14.9081   21.5639 O   0  0  0  0  0  0  0  0  0  0  0  0
   10.6495   14.7324   23.5284 O   0  0  0  0  0  0  0  0  0  0  0  0
   10.0191   14.1037   22.3595 S   0  0  0  0  0  0  0  0  0  0  0  0
    6.5223    8.7340   24.6571 Br  0  0  0  0  0  0  0  0  0  0  0  0
    5.6833   13.5481   25.7597 H   0  0  0  0  0  0  0  0  0  0  0  0
    7.5283   14.4427   24.3727 H   0  0  0  0  0  0  0  0  0  0  0  0
    5.2530   11.1361   25.8839 H   0  0  0  0  0  0  0  0  0  0  0  0
   10.4566   11.0562   21.7364 H   0  0  0  0  0  0  0  0  0  0  0  0
    8.8806    9.4672   22.8466 H   0  0  0  0  0  0  0  0  0  0  0  0
   12.0859   13.1003   21.7269 H   0  0  0  0  0  0  0  0  0  0  0  0
   11.0166   13.2214   20.3832 H   0  0  0  0  0  0  0  0  0  0  0  0
  1  2  2  0  0  0  0
  1  3  1  0  0  0  0
  2  5  1  0  0  0  0
  3  8  2  0  0  0  0
  4  7  2  0  0  0  0
  4  9  1  0  0  0  0
  5  6  2  0  0  0  0
  5  7  1  0  0  0  0
  6  8  1  0  0  0  0
  6  9  1  0  0  0  0
  7 13  1  0  0  0  0
  8 14  1  0  0  0  0
 10 13  1  0  0  0  0
 11 13  2  0  0  0  0
 12 13  2  0  0  0  0
  1 15  1  0  0  0  0
  2 16  1  0  0  0  0
  3 17  1  0  0  0  0
  4 18  1  0  0  0  0
  9 19  1  0  0  0  0
 10 20  1  0  0  0  0
 10 21  1  0  0  0  0
M  END
> <Mol Weight>
275,12

> <Formula>
C8H7BrN2O2S

> <ID>
EN300-755074

> <name>
Sulfonamides

> <LogP>
1,45

> <ROCS_ShapeQuery>
x0446_0A_x1080_0A_x0929_0A_x0812_0A_x0719_0A_x1140_0A_x0528_0A_x0310_0A

> <ROCS_TanimotoCombo>
0.351 

> <ROCS_ShapeTanimoto>
0.190 

> <ROCS_ColorTanimoto>
0.161 

> <ROCS_RefTversky>
0.176 

> <ROCS_RefColorTversky>
0.172 

> <ROCS_RefTverskyCombo>
0.348 

> <ROCS_FitTversky>
1.741 

> <ROCS_FitColorTversky>
0.719 

> <ROCS_FitTverskyCombo>
2.460 

> <ROCS_ColorScore>
-6.133

> <ROCS_Overlap>
2076.568

> <ROCS_Rank>
133                 

$$$$
untitled-dbase-1436_184
  -OEChem-02082415043D

 32 33  0     1  0  0  0  0  0999 V2000
    5.8285   12.4168   25.0439 C   0  0  0  0  0  0  0  0  0  0  0  0
    6.4280   12.6347   23.6410 C   0  0  0  0  0  0  0  0  0  0  0  0
    7.2693   12.4512   25.5906 C   0  0  0  0  0  0  0  0  0  0  0  0
    9.9686   11.3208   23.6037 C   0  0  0  0  0  0  0  0  0  0  0  0
    7.8473   10.4598   24.0165 C   0  0  0  0  0  0  0  0  0  0  0  0
    9.0371   12.5275   23.5325 C   0  0  1  0  0  0  0  0  0  0  0  0
    7.7494   11.9913   24.1693 C   0  0  0  0  0  0  0  0  0  0  0  0
   11.7333   14.1357   21.0328 C   0  0  0  0  0  0  0  0  0  0  0  0
    9.6261   13.7534   24.2048 C   0  0  0  0  0  0  0  0  0  0  0  0
    9.0785   10.2137   23.2578 N   0  0  0  0  0  0  0  0  0  0  0  0
   10.8523   14.1049   23.5731 N   0  0  0  0  0  0  0  0  0  0  0  0
   11.7074   16.3042   22.4981 O   0  0  0  0  0  0  0  0  0  0  0  0
    9.5183   15.3416   21.6996 O   0  0  0  0  0  0  0  0  0  0  0  0
   10.8676   15.1607   22.1997 S   0  0  0  0  0  0  0  0  0  0  0  0
    5.1646   13.2061   25.4048 H   0  0  0  0  0  0  0  0  0  0  0  0
    5.3308   11.4484   25.1686 H   0  0  0  0  0  0  0  0  0  0  0  0
    5.9152   12.1181   22.8230 H   0  0  0  0  0  0  0  0  0  0  0  0
    6.5122   13.6966   23.3732 H   0  0  0  0  0  0  0  0  0  0  0  0
    7.5972   13.4572   25.8703 H   0  0  0  0  0  0  0  0  0  0  0  0
    7.4775   11.7679   26.4151 H   0  0  0  0  0  0  0  0  0  0  0  0
   10.7598   11.4042   22.8570 H   0  0  0  0  0  0  0  0  0  0  0  0
   10.4150   11.1860   24.5861 H   0  0  0  0  0  0  0  0  0  0  0  0
    7.9288    9.9686   24.9884 H   0  0  0  0  0  0  0  0  0  0  0  0
    6.9834   10.0462   23.4909 H   0  0  0  0  0  0  0  0  0  0  0  0
    8.8690   12.7873   22.4457 H   0  0  0  0  0  0  0  0  0  0  0  0
   11.8216   14.6828   20.0929 H   0  0  0  0  0  0  0  0  0  0  0  0
   12.7209   13.9106   21.4384 H   0  0  0  0  0  0  0  0  0  0  0  0
   11.1605   13.2183   20.8890 H   0  0  0  0  0  0  0  0  0  0  0  0
    8.8976   14.5554   24.1044 H   0  0  0  0  0  0  0  0  0  0  0  0
    9.7906   13.4983   25.2497 H   0  0  0  0  0  0  0  0  0  0  0  0
    8.8950   10.1949   22.2617 H   0  0  0  0  0  0  0  0  0  0  0  0
   11.6857   14.2202   24.2011 H   0  0  0  0  0  0  0  0  0  0  0  0
  1  2  1  0  0  0  0
  1  3  1  0  0  0  0
  2  7  1  0  0  0  0
  3  7  1  0  0  0  0
  4  6  1  0  0  0  0
  4 10  1  0  0  0  0
  5  7  1  0  0  0  0
  5 10  1  0  0  0  0
  6  7  1  0  0  0  0
  6  9  1  0  0  0  0
  8 14  1  0  0  0  0
  9 11  1  0  0  0  0
 11 14  1  0  0  0  0
 12 14  2  0  0  0  0
 13 14  2  0  0  0  0
  1 15  1  0  0  0  0
  1 16  1  0  0  0  0
  2 17  1  0  0  0  0
  2 18  1  0  0  0  0
  3 19  1  0  0  0  0
  3 20  1  0  0  0  0
  4 21  1  0  0  0  0
  4 22  1  0  0  0  0
  5 23  1  0  0  0  0
  5 24  1  0  0  0  0
  6 25  1  0  0  0  0
  8 26  1  0  0  0  0
  8 27  1  0  0  0  0
  8 28  1  0  0  0  0
  9 29  1  0  0  0  0
  9 30  1  0  0  0  0
 10 31  1  0  0  0  0
 11 32  1  0  0  0  0
M  END
> <Mol Weight>
218,32

> <Formula>
C9H18N2O2S

> <ID>
EN300-5457789

> <name>
Sulfonamides

> <LogP>
-1,59

> <ROCS_ShapeQuery>
x0446_0A_x1080_0A_x0929_0A_x0812_0A_x0719_0A_x1140_0A_x0528_0A_x0310_0A

> <ROCS_TanimotoCombo>
0.351 

> <ROCS_ShapeTanimoto>
0.195 

> <ROCS_ColorTanimoto>
0.156 

> <ROCS_RefTversky>
0.179 

> <ROCS_RefColorTversky>
0.167 

> <ROCS_RefTverskyCombo>
0.347 

> <ROCS_FitTversky>
1.812 

> <ROCS_FitColorTversky>
0.701 

> <ROCS_FitTverskyCombo>
2.513 

> <ROCS_ColorScore>
-5.975

> <ROCS_Overlap>
2115.329

> <ROCS_Rank>
134                 

$$$$
untitled-dbase-2143_391
  -OEChem-02082415043D

 37 38  0     1  0  0  0  0  0999 V2000
    6.4045   13.8658   24.9599 C   0  0  0  0  0  0  0  0  0  0  0  0
    5.7910   13.4005   23.6331 C   0  0  0  0  0  0  0  0  0  0  0  0
    6.7047   12.7728   25.9789 C   0  0  0  0  0  0  0  0  0  0  0  0
    5.5534   11.9013   23.4947 C   0  0  0  0  0  0  0  0  0  0  0  0
   10.4393   11.1716   23.9696 C   0  0  0  0  0  0  0  0  0  0  0  0
    7.8441   11.8108   25.6246 C   0  0  0  0  0  0  0  0  0  0  0  0
    6.8060   11.0263   23.3862 C   0  0  0  0  0  0  0  0  0  0  0  0
    9.1572   10.3769   24.0072 C   0  0  0  0  0  0  0  0  0  0  0  0
   10.0142   12.3793   23.1591 C   0  0  2  0  0  0  0  0  0  0  0  0
    8.0728   11.4637   24.1390 C   0  0  0  0  0  0  0  0  0  0  0  0
   10.8347   13.6212   23.4481 C   0  0  0  0  0  0  0  0  0  0  0  0
   11.3495   13.8462   20.8528 N   0  0  0  0  0  0  0  0  0  0  0  0
    9.3175   15.0499   21.8721 O   0  0  0  0  0  0  0  0  0  0  0  0
   11.6454   15.8757   22.4053 O   0  0  0  0  0  0  0  0  0  0  0  0
    8.6376   12.6236   23.4846 O   0  0  0  0  0  0  0  0  0  0  0  0
   10.7234   14.7860   22.1308 S   0  0  0  0  0  0  0  0  0  0  0  0
    7.3040   14.4902   24.7735 H   0  0  0  0  0  0  0  0  0  0  0  0
    5.6767   14.5602   25.4292 H   0  0  0  0  0  0  0  0  0  0  0  0
    4.8546   13.9438   23.4523 H   0  0  0  0  0  0  0  0  0  0  0  0
    6.4610   13.7072   22.8179 H   0  0  0  0  0  0  0  0  0  0  0  0
    6.9754   13.2597   26.9295 H   0  0  0  0  0  0  0  0  0  0  0  0
    5.7909   12.2009   26.2010 H   0  0  0  0  0  0  0  0  0  0  0  0
    4.9535   11.5682   24.3392 H   0  0  0  0  0  0  0  0  0  0  0  0
    4.9537   11.7234   22.6027 H   0  0  0  0  0  0  0  0  0  0  0  0
   10.7340   11.4558   24.9859 H   0  0  0  0  0  0  0  0  0  0  0  0
   11.2707   10.6281   23.5134 H   0  0  0  0  0  0  0  0  0  0  0  0
    8.7804   12.2170   26.0396 H   0  0  0  0  0  0  0  0  0  0  0  0
    7.6889   10.8827   26.1963 H   0  0  0  0  0  0  0  0  0  0  0  0
    6.5268   10.0124   23.7153 H   0  0  0  0  0  0  0  0  0  0  0  0
    7.0529   10.8908   22.3214 H   0  0  0  0  0  0  0  0  0  0  0  0
    9.0464    9.8416   23.0562 H   0  0  0  0  0  0  0  0  0  0  0  0
    9.1479    9.6338   24.8069 H   0  0  0  0  0  0  0  0  0  0  0  0
   10.0570   12.1510   22.0870 H   0  0  0  0  0  0  0  0  0  0  0  0
   11.8902   13.3685   23.5700 H   0  0  0  0  0  0  0  0  0  0  0  0
   10.4791   14.1186   24.3528 H   0  0  0  0  0  0  0  0  0  0  0  0
   10.6943   13.5281   20.1282 H   0  0  0  0  0  0  0  0  0  0  0  0
   12.2797   14.0905   20.4915 H   0  0  0  0  0  0  0  0  0  0  0  0
  1  2  1  0  0  0  0
  1  3  1  0  0  0  0
  2  4  1  0  0  0  0
  3  6  1  0  0  0  0
  4  7  1  0  0  0  0
  5  8  1  0  0  0  0
  5  9  1  0  0  0  0
  6 10  1  0  0  0  0
  7 10  1  0  0  0  0
  8 10  1  0  0  0  0
  9 11  1  0  0  0  0
  9 15  1  0  0  0  0
 10 15  1  0  0  0  0
 11 16  1  0  0  0  0
 12 16  1  0  0  0  0
 13 16  2  0  0  0  0
 14 16  2  0  0  0  0
  1 17  1  0  0  0  0
  1 18  1  0  0  0  0
  2 19  1  0  0  0  0
  2 20  1  0  0  0  0
  3 21  1  0  0  0  0
  3 22  1  0  0  0  0
  4 23  1  0  0  0  0
  4 24  1  0  0  0  0
  5 25  1  0  0  0  0
  5 26  1  0  0  0  0
  6 27  1  0  0  0  0
  6 28  1  0  0  0  0
  7 29  1  0  0  0  0
  7 30  1  0  0  0  0
  8 31  1  0  0  0  0
  8 32  1  0  0  0  0
  9 33  1  0  0  0  0
 11 34  1  0  0  0  0
 11 35  1  0  0  0  0
 12 36  1  0  0  0  0
 12 37  1  0  0  0  0
M  END
> <Mol Weight>
247,35

> <Formula>
C11H21NO3S

> <ID>
EN300-781743

> <name>
Sulfonamides

> <LogP>
1,20

> <ROCS_ShapeQuery>
x0446_0A_x1080_0A_x0929_0A_x0812_0A_x0719_0A_x1140_0A_x0528_0A_x0310_0A

> <ROCS_TanimotoCombo>
0.351 

> <ROCS_ShapeTanimoto>
0.205 

> <ROCS_ColorTanimoto>
0.146 

> <ROCS_RefTversky>
0.188 

> <ROCS_RefColorTversky>
0.154 

> <ROCS_RefTverskyCombo>
0.343 

> <ROCS_FitTversky>
1.783 

> <ROCS_FitColorTversky>
0.727 

> <ROCS_FitTverskyCombo>
2.510 

> <ROCS_ColorScore>
-5.500

> <ROCS_Overlap>
2221.207

> <ROCS_Rank>
135                 

$$$$
untitled-dbase-1174_0
  -OEChem-02082415043D

 23 24  0     0  0  0  0  0  0999 V2000
    6.8778   10.5580   24.5053 C   0  0  0  0  0  0  0  0  0  0  0  0
    6.0750   11.4540   25.2171 C   0  0  0  0  0  0  0  0  0  0  0  0
    7.3482   13.3466   24.3841 C   0  0  0  0  0  0  0  0  0  0  0  0
    9.6844   11.3845   22.3708 C   0  0  0  0  0  0  0  0  0  0  0  0
    8.1708   12.4627   23.6578 C   0  0  0  0  0  0  0  0  0  0  0  0
    7.9171   11.0916   23.7350 C   0  0  0  0  0  0  0  0  0  0  0  0
    6.3048   12.8272   25.1589 C   0  0  0  0  0  0  0  0  0  0  0  0
    9.2884   12.6325   22.7934 C   0  0  0  0  0  0  0  0  0  0  0  0
    8.8511   10.4616   22.9438 N   0  0  0  0  0  0  0  0  0  0  0  0
    5.4761   13.7070   25.8898 N   0  0  0  0  0  0  0  0  0  0  0  0
   11.2835   13.5933   21.3097 N   0  0  0  0  0  0  0  0  0  0  0  0
    9.0811   14.9109   21.5527 O   0  0  0  0  0  0  0  0  0  0  0  0
   10.6377   14.7366   23.5262 O   0  0  0  0  0  0  0  0  0  0  0  0
   10.0193   14.1093   22.3501 S   0  0  0  0  0  0  0  0  0  0  0  0
    6.6982    9.4892   24.5512 H   0  0  0  0  0  0  0  0  0  0  0  0
    5.2611   11.0606   25.8226 H   0  0  0  0  0  0  0  0  0  0  0  0
    7.5230   14.4186   24.3423 H   0  0  0  0  0  0  0  0  0  0  0  0
   10.4832   11.0685   21.7143 H   0  0  0  0  0  0  0  0  0  0  0  0
    8.9123    9.4622   22.8065 H   0  0  0  0  0  0  0  0  0  0  0  0
    4.7045   13.3338   26.4030 H   0  0  0  0  0  0  0  0  0  0  0  0
    5.6190   14.6920   25.8045 H   0  0  0  0  0  0  0  0  0  0  0  0
   12.0974   13.1243   21.7257 H   0  0  0  0  0  0  0  0  0  0  0  0
   11.0357   13.2445   20.3758 H   0  0  0  0  0  0  0  0  0  0  0  0
  1  2  2  0  0  0  0
  1  6  1  0  0  0  0
  2  7  1  0  0  0  0
  3  5  1  0  0  0  0
  3  7  2  0  0  0  0
  4  8  2  0  0  0  0
  4  9  1  0  0  0  0
  5  6  2  0  0  0  0
  5  8  1  0  0  0  0
  6  9  1  0  0  0  0
  7 10  1  0  0  0  0
  8 14  1  0  0  0  0
 11 14  1  0  0  0  0
 12 14  2  0  0  0  0
 13 14  2  0  0  0  0
  1 15  1  0  0  0  0
  2 16  1  0  0  0  0
  3 17  1  0  0  0  0
  4 18  1  0  0  0  0
  9 19  1  0  0  0  0
 10 20  1  0  0  0  0
 10 21  1  0  0  0  0
 11 22  1  0  0  0  0
 11 23  1  0  0  0  0
M  END
> <Mol Weight>
211,24

> <Formula>
C8H9N3O2S

> <ID>
EN300-76291

> <name>
Sulfonamides

> <LogP>
-0,15

> <ROCS_ShapeQuery>
x0446_0A_x1080_0A_x0929_0A_x0812_0A_x0719_0A_x1140_0A_x0528_0A_x0310_0A

> <ROCS_TanimotoCombo>
0.351 

> <ROCS_ShapeTanimoto>
0.193 

> <ROCS_ColorTanimoto>
0.158 

> <ROCS_RefTversky>
0.179 

> <ROCS_RefColorTversky>
0.172 

> <ROCS_RefTverskyCombo>
0.351 

> <ROCS_FitTversky>
1.748 

> <ROCS_FitColorTversky>
0.650 

> <ROCS_FitTverskyCombo>
2.398 

> <ROCS_ColorScore>
-6.162

> <ROCS_Overlap>
2105.879

> <ROCS_Rank>
136                 

$$$$
untitled-dbase-1186_2
  -OEChem-02082415043D

 22 23  0     0  0  0  0  0  0999 V2000
    5.5935   13.0036   23.9677 C   0  0  0  0  0  0  0  0  0  0  0  0
    5.5399   12.2706   25.1579 C   0  0  0  0  0  0  0  0  0  0  0  0
    6.7341   12.9801   23.1526 C   0  0  0  0  0  0  0  0  0  0  0  0
    6.6201   11.4882   25.5789 C   0  0  0  0  0  0  0  0  0  0  0  0
    7.8250   12.1998   23.5627 C   0  0  0  0  0  0  0  0  0  0  0  0
    7.7353   11.4881   24.7463 C   0  0  0  0  0  0  0  0  0  0  0  0
    9.1142   11.8900   23.0878 C   0  0  0  0  0  0  0  0  0  0  0  0
    9.7643   12.3668   21.8553 C   0  0  0  0  0  0  0  0  0  0  0  0
    9.7710   11.0592   23.9027 N   0  0  0  0  0  0  0  0  0  0  0  0
   11.4112   14.1990   20.8644 N   0  0  0  0  0  0  0  0  0  0  0  0
    9.0914   14.8888   21.7361 O   0  0  0  0  0  0  0  0  0  0  0  0
   10.8735   14.1761   23.3798 O   0  0  0  0  0  0  0  0  0  0  0  0
    8.8955   10.8067   24.9518 O   0  0  0  0  0  0  0  0  0  0  0  0
   10.2297   14.0586   22.0845 S   0  0  0  0  0  0  0  0  0  0  0  0
    4.7361   13.6019   23.6695 H   0  0  0  0  0  0  0  0  0  0  0  0
    4.6407   12.3097   25.7680 H   0  0  0  0  0  0  0  0  0  0  0  0
    6.7620   13.5541   22.2319 H   0  0  0  0  0  0  0  0  0  0  0  0
    6.5884   10.9179   26.4993 H   0  0  0  0  0  0  0  0  0  0  0  0
    9.1041   12.3274   20.9724 H   0  0  0  0  0  0  0  0  0  0  0  0
   10.6817   11.8081   21.6036 H   0  0  0  0  0  0  0  0  0  0  0  0
   11.1799   14.7611   20.0360 H   0  0  0  0  0  0  0  0  0  0  0  0
   12.3935   14.2755   21.1555 H   0  0  0  0  0  0  0  0  0  0  0  0
  1  2  1  0  0  0  0
  1  3  2  0  0  0  0
  2  4  2  0  0  0  0
  3  5  1  0  0  0  0
  4  6  1  0  0  0  0
  5  6  2  0  0  0  0
  5  7  1  0  0  0  0
  6 13  1  0  0  0  0
  7  8  1  0  0  0  0
  7  9  2  0  0  0  0
  8 14  1  0  0  0  0
  9 13  1  0  0  0  0
 10 14  1  0  0  0  0
 11 14  2  0  0  0  0
 12 14  2  0  0  0  0
  1 15  1  0  0  0  0
  2 16  1  0  0  0  0
  3 17  1  0  0  0  0
  4 18  1  0  0  0  0
  8 19  1  0  0  0  0
  8 20  1  0  0  0  0
 10 21  1  0  0  0  0
 10 22  1  0  0  0  0
M  END
> <Mol Weight>
212,22

> <Formula>
C8H8N2O3S

> <ID>
EN300-50288

> <name>
Sulfonamides

> <LogP>
0,11

> <ROCS_ShapeQuery>
x0446_0A_x1080_0A_x0929_0A_x0812_0A_x0719_0A_x1140_0A_x0528_0A_x0310_0A

> <ROCS_TanimotoCombo>
0.351 

> <ROCS_ShapeTanimoto>
0.189 

> <ROCS_ColorTanimoto>
0.162 

> <ROCS_RefTversky>
0.175 

> <ROCS_RefColorTversky>
0.169 

> <ROCS_RefTverskyCombo>
0.344 

> <ROCS_FitTversky>
1.712 

> <ROCS_FitColorTversky>
0.795 

> <ROCS_FitTverskyCombo>
2.507 

> <ROCS_ColorScore>
-6.027

> <ROCS_Overlap>
2064.647

> <ROCS_Rank>
137                 

$$$$
untitled-dbase-2470_300
  -OEChem-02082415043D

 26 26  0     0  0  0  0  0  0999 V2000
    9.2711   10.2157   23.9425 C   0  0  0  0  0  0  0  0  0  0  0  0
    7.5326   11.7004   24.7237 C   0  0  0  0  0  0  0  0  0  0  0  0
    8.7279   12.2064   22.6860 C   0  0  0  0  0  0  0  0  0  0  0  0
    9.4885   11.0479   22.8444 C   0  0  0  0  0  0  0  0  0  0  0  0
    8.2931   10.5419   24.8821 C   0  0  0  0  0  0  0  0  0  0  0  0
    7.7499   12.5327   23.6256 C   0  0  0  0  0  0  0  0  0  0  0  0
    6.5129   12.0401   25.7040 C   0  0  0  0  0  0  0  0  0  0  0  0
   11.7643   11.2081   22.1730 C   0  0  0  0  0  0  0  0  0  0  0  0
   11.0075   14.3623   20.4404 C   0  0  0  0  0  0  0  0  0  0  0  0
    8.9413   13.0671   21.5643 N   0  0  0  0  0  0  0  0  0  0  0  0
    5.3411   11.6641   25.6148 O   0  0  0  0  0  0  0  0  0  0  0  0
    9.0239   15.6427   21.5328 O   0  0  0  0  0  0  0  0  0  0  0  0
   10.6373   14.4182   23.0303 O   0  0  0  0  0  0  0  0  0  0  0  0
   10.4484   10.7119   21.9371 O   0  0  0  0  0  0  0  0  0  0  0  0
    8.0931    9.7347   25.9336 F   0  0  0  0  0  0  0  0  0  0  0  0
    7.0182   13.6470   23.4729 F   0  0  0  0  0  0  0  0  0  0  0  0
    9.8710   14.4959   21.8024 S   0  0  0  0  0  0  0  0  0  0  0  0
    9.8601    9.3118   24.0721 H   0  0  0  0  0  0  0  0  0  0  0  0
    6.8227   12.6689   26.5668 H   0  0  0  0  0  0  0  0  0  0  0  0
   12.4310   10.8675   21.3770 H   0  0  0  0  0  0  0  0  0  0  0  0
   12.1220   10.8487   23.1411 H   0  0  0  0  0  0  0  0  0  0  0  0
   11.7365   12.3003   22.1795 H   0  0  0  0  0  0  0  0  0  0  0  0
   11.6769   15.2237   20.4647 H   0  0  0  0  0  0  0  0  0  0  0  0
   11.5725   13.4357   20.5529 H   0  0  0  0  0  0  0  0  0  0  0  0
   10.4333   14.3503   19.5128 H   0  0  0  0  0  0  0  0  0  0  0  0
    8.1122   13.1870   20.9605 H   0  0  0  0  0  0  0  0  0  0  0  0
  1  4  1  0  0  0  0
  1  5  2  0  0  0  0
  2  5  1  0  0  0  0
  2  6  2  0  0  0  0
  2  7  1  0  0  0  0
  3  4  2  0  0  0  0
  3  6  1  0  0  0  0
  3 10  1  0  0  0  0
  4 14  1  0  0  0  0
  5 15  1  0  0  0  0
  6 16  1  0  0  0  0
  7 11  2  0  0  0  0
  8 14  1  0  0  0  0
  9 17  1  0  0  0  0
 10 17  1  0  0  0  0
 12 17  2  0  0  0  0
 13 17  2  0  0  0  0
  1 18  1  0  0  0  0
  7 19  1  0  0  0  0
  8 20  1  0  0  0  0
  8 21  1  0  0  0  0
  8 22  1  0  0  0  0
  9 23  1  0  0  0  0
  9 24  1  0  0  0  0
  9 25  1  0  0  0  0
 10 26  1  0  0  0  0
M  END
> <Mol Weight>
265,23

> <Formula>
C9H9F2NO4S

> <ID>
EN300-45201952

> <name>
Sulfonamides

> <LogP>
0,19

> <ROCS_ShapeQuery>
x0446_0A_x1080_0A_x0929_0A_x0812_0A_x0719_0A_x1140_0A_x0528_0A_x0310_0A

> <ROCS_TanimotoCombo>
0.351 

> <ROCS_ShapeTanimoto>
0.211 

> <ROCS_ColorTanimoto>
0.140 

> <ROCS_RefTversky>
0.194 

> <ROCS_RefColorTversky>
0.149 

> <ROCS_RefTverskyCombo>
0.342 

> <ROCS_FitTversky>
1.733 

> <ROCS_FitColorTversky>
0.700 

> <ROCS_FitTverskyCombo>
2.434 

> <ROCS_ColorScore>
-5.296

> <ROCS_Overlap>
2286.929

> <ROCS_Rank>
138                 

$$$$
untitled-dbase-2588_0
  -OEChem-02082415043D

 21 22  0     0  0  0  0  0  0999 V2000
    7.3636   13.3568   24.4080 C   0  0  0  0  0  0  0  0  0  0  0  0
    6.3282   12.8389   25.1946 C   0  0  0  0  0  0  0  0  0  0  0  0
    6.8888   10.5691   24.5327 C   0  0  0  0  0  0  0  0  0  0  0  0
    9.6721   11.3914   22.3663 C   0  0  0  0  0  0  0  0  0  0  0  0
    8.1759   12.4717   23.6716 C   0  0  0  0  0  0  0  0  0  0  0  0
    7.9203   11.1011   23.7507 C   0  0  0  0  0  0  0  0  0  0  0  0
    9.2837   12.6399   22.7944 C   0  0  0  0  0  0  0  0  0  0  0  0
    6.0963   11.4661   25.2545 C   0  0  0  0  0  0  0  0  0  0  0  0
    8.8437   10.4698   22.9483 N   0  0  0  0  0  0  0  0  0  0  0  0
   11.2636   13.5980   21.2888 N   0  0  0  0  0  0  0  0  0  0  0  0
    9.0669   14.9198   21.5581 O   0  0  0  0  0  0  0  0  0  0  0  0
   10.6455   14.7406   23.5135 O   0  0  0  0  0  0  0  0  0  0  0  0
   10.0123   14.1154   22.3441 S   0  0  0  0  0  0  0  0  0  0  0  0
    4.6865   10.8022   26.3289 Br  0  0  0  0  0  0  0  0  0  0  0  0
    7.5309   14.4295   24.3722 H   0  0  0  0  0  0  0  0  0  0  0  0
    5.7077   13.5312   25.7593 H   0  0  0  0  0  0  0  0  0  0  0  0
    6.7191    9.4975   24.5699 H   0  0  0  0  0  0  0  0  0  0  0  0
   10.4629   11.0742   21.7006 H   0  0  0  0  0  0  0  0  0  0  0  0
    8.9015    9.4703   22.8099 H   0  0  0  0  0  0  0  0  0  0  0  0
   12.0814   13.1270   21.6950 H   0  0  0  0  0  0  0  0  0  0  0  0
   11.0046   13.2506   20.3575 H   0  0  0  0  0  0  0  0  0  0  0  0
  1  2  2  0  0  0  0
  1  5  1  0  0  0  0
  2  8  1  0  0  0  0
  3  6  1  0  0  0  0
  3  8  2  0  0  0  0
  4  7  2  0  0  0  0
  4  9  1  0  0  0  0
  5  6  2  0  0  0  0
  5  7  1  0  0  0  0
  6  9  1  0  0  0  0
  7 13  1  0  0  0  0
  8 14  1  0  0  0  0
 10 13  1  0  0  0  0
 11 13  2  0  0  0  0
 12 13  2  0  0  0  0
  1 15  1  0  0  0  0
  2 16  1  0  0  0  0
  3 17  1  0  0  0  0
  4 18  1  0  0  0  0
  9 19  1  0  0  0  0
 10 20  1  0  0  0  0
 10 21  1  0  0  0  0
M  END
> <Mol Weight>
275,12

> <Formula>
C8H7BrN2O2S

> <ID>
EN300-755291

> <name>
Sulfonamides

> <LogP>
1,45

> <ROCS_ShapeQuery>
x0446_0A_x1080_0A_x0929_0A_x0812_0A_x0719_0A_x1140_0A_x0528_0A_x0310_0A

> <ROCS_TanimotoCombo>
0.351 

> <ROCS_ShapeTanimoto>
0.190 

> <ROCS_ColorTanimoto>
0.161 

> <ROCS_RefTversky>
0.176 

> <ROCS_RefColorTversky>
0.172 

> <ROCS_RefTverskyCombo>
0.347 

> <ROCS_FitTversky>
1.737 

> <ROCS_FitColorTversky>
0.719 

> <ROCS_FitTverskyCombo>
2.456 

> <ROCS_ColorScore>
-6.131

> <ROCS_Overlap>
2071.561

> <ROCS_Rank>
139                 

$$$$
untitled-dbase-1982_794
  -OEChem-02082415043D

 24 24  0     0  0  0  0  0  0999 V2000
   10.0806   15.1883   21.9509 C   0  0  0  0  0  0  0  0  0  0  0  0
    8.9084    9.9235   23.8069 C   0  0  0  0  0  0  0  0  0  0  0  0
   10.0028   10.5762   23.2397 C   0  0  0  0  0  0  0  0  0  0  0  0
    7.8864   10.6635   24.4017 C   0  0  0  0  0  0  0  0  0  0  0  0
    9.0535   12.7090   23.8621 C   0  0  0  0  0  0  0  0  0  0  0  0
   10.0754   11.9689   23.2673 C   0  0  0  0  0  0  0  0  0  0  0  0
    7.9590   12.0562   24.4293 C   0  0  0  0  0  0  0  0  0  0  0  0
   11.2156   12.6495   22.6741 C   0  0  0  0  0  0  0  0  0  0  0  0
   11.4192   15.0214   22.5166 C   0  0  0  0  0  0  0  0  0  0  0  0
    9.0192   15.3215   21.5016 N   0  0  0  0  0  0  0  0  0  0  0  0
    7.2454   13.0833   26.7831 N   0  0  0  0  0  0  0  0  0  0  0  0
   11.8661   12.2183   21.7129 O   0  0  0  0  0  0  0  0  0  0  0  0
    6.6786   14.3163   24.5913 O   0  0  0  0  0  0  0  0  0  0  0  0
    5.4612   12.1841   25.1567 O   0  0  0  0  0  0  0  0  0  0  0  0
   11.4827   13.8313   23.3098 O   0  0  0  0  0  0  0  0  0  0  0  0
    6.6795   12.9818   25.1741 S   0  0  0  0  0  0  0  0  0  0  0  0
    8.8520    8.8389   23.7859 H   0  0  0  0  0  0  0  0  0  0  0  0
   10.7929    9.9891   22.7791 H   0  0  0  0  0  0  0  0  0  0  0  0
    7.0384   10.1453   24.8413 H   0  0  0  0  0  0  0  0  0  0  0  0
    9.1097   13.7951   23.8840 H   0  0  0  0  0  0  0  0  0  0  0  0
   12.1652   14.9348   21.7213 H   0  0  0  0  0  0  0  0  0  0  0  0
   11.6941   15.8732   23.1460 H   0  0  0  0  0  0  0  0  0  0  0  0
    7.5881   13.9924   27.1170 H   0  0  0  0  0  0  0  0  0  0  0  0
    6.7572   12.5345   27.5013 H   0  0  0  0  0  0  0  0  0  0  0  0
  1  9  1  0  0  0  0
  1 10  3  0  0  0  0
  2  3  1  0  0  0  0
  2  4  2  0  0  0  0
  3  6  2  0  0  0  0
  4  7  1  0  0  0  0
  5  6  1  0  0  0  0
  5  7  2  0  0  0  0
  6  8  1  0  0  0  0
  7 16  1  0  0  0  0
  8 12  2  0  0  0  0
  8 15  1  0  0  0  0
  9 15  1  0  0  0  0
 11 16  1  0  0  0  0
 13 16  2  0  0  0  0
 14 16  2  0  0  0  0
  2 17  1  0  0  0  0
  3 18  1  0  0  0  0
  4 19  1  0  0  0  0
  5 20  1  0  0  0  0
  9 21  1  0  0  0  0
  9 22  1  0  0  0  0
 11 23  1  0  0  0  0
 11 24  1  0  0  0  0
M  END
> <Mol Weight>
240,23

> <Formula>
C9H8N2O4S

> <ID>
EN300-27183

> <name>
Sulfonamides

> <LogP>
0,12

> <ROCS_ShapeQuery>
x0446_0A_x1080_0A_x0929_0A_x0812_0A_x0719_0A_x1140_0A_x0528_0A_x0310_0A

> <ROCS_TanimotoCombo>
0.351 

> <ROCS_ShapeTanimoto>
0.217 

> <ROCS_ColorTanimoto>
0.133 

> <ROCS_RefTversky>
0.198 

> <ROCS_RefColorTversky>
0.143 

> <ROCS_RefTverskyCombo>
0.340 

> <ROCS_FitTversky>
1.846 

> <ROCS_FitColorTversky>
0.672 

> <ROCS_FitTverskyCombo>
2.518 

> <ROCS_ColorScore>
-5.081

> <ROCS_Overlap>
2332.306

> <ROCS_Rank>
140                 

$$$$
untitled-dbase-2168_222
  -OEChem-02082415043D

 35 36  0     1  0  0  0  0  0999 V2000
   10.1791   11.3468   24.6635 C   0  0  0  0  0  0  0  0  0  0  0  0
    8.7924   10.7579   24.9221 C   0  0  0  0  0  0  0  0  0  0  0  0
    6.4183   10.4797   24.0592 C   0  0  0  0  0  0  0  0  0  0  0  0
    7.3903   12.7828   24.2129 C   0  0  0  0  0  0  0  0  0  0  0  0
    5.6686   10.7844   25.3521 C   0  0  0  0  0  0  0  0  0  0  0  0
    6.5794   12.9670   25.4924 C   0  0  0  0  0  0  0  0  0  0  0  0
    8.2876   11.1470   22.5053 C   0  0  0  0  0  0  0  0  0  0  0  0
   10.5576   11.2250   23.1878 C   0  0  2  0  0  0  0  0  0  0  0  0
    7.7250   11.2953   23.9350 C   0  0  0  0  0  0  0  0  0  0  0  0
   11.8674   11.9442   22.8968 C   0  0  0  0  0  0  0  0  0  0  0  0
   11.0423   13.7203   21.1035 N   0  0  0  0  0  0  0  0  0  0  0  0
   10.5391   14.0815   23.6001 O   0  0  0  0  0  0  0  0  0  0  0  0
   12.9094   14.3366   22.7621 O   0  0  0  0  0  0  0  0  0  0  0  0
    5.3916   12.1789   25.4587 O   0  0  0  0  0  0  0  0  0  0  0  0
    9.5444   11.8105   22.3663 O   0  0  0  0  0  0  0  0  0  0  0  0
   11.6150   13.6756   22.7097 S   0  0  0  0  0  0  0  0  0  0  0  0
   10.1777   12.4023   24.9644 H   0  0  0  0  0  0  0  0  0  0  0  0
   10.9207   10.8378   25.2912 H   0  0  0  0  0  0  0  0  0  0  0  0
    8.8574    9.6653   24.8262 H   0  0  0  0  0  0  0  0  0  0  0  0
    8.4973   10.9590   25.9597 H   0  0  0  0  0  0  0  0  0  0  0  0
    6.6708    9.4119   24.0580 H   0  0  0  0  0  0  0  0  0  0  0  0
    5.7633   10.6568   23.1995 H   0  0  0  0  0  0  0  0  0  0  0  0
    6.8528   13.2403   23.3759 H   0  0  0  0  0  0  0  0  0  0  0  0
    8.3315   13.3358   24.3300 H   0  0  0  0  0  0  0  0  0  0  0  0
    4.7350   10.2159   25.4289 H   0  0  0  0  0  0  0  0  0  0  0  0
    6.2885   10.5046   26.2104 H   0  0  0  0  0  0  0  0  0  0  0  0
    7.1707   12.6347   26.3515 H   0  0  0  0  0  0  0  0  0  0  0  0
    6.3192   14.0162   25.6662 H   0  0  0  0  0  0  0  0  0  0  0  0
    8.4138   10.0900   22.2358 H   0  0  0  0  0  0  0  0  0  0  0  0
    7.6152   11.5797   21.7585 H   0  0  0  0  0  0  0  0  0  0  0  0
   10.6692   10.1687   22.9108 H   0  0  0  0  0  0  0  0  0  0  0  0
   12.3081   11.5741   21.9711 H   0  0  0  0  0  0  0  0  0  0  0  0
   12.5714   11.8009   23.7162 H   0  0  0  0  0  0  0  0  0  0  0  0
   11.7147   13.5257   20.3514 H   0  0  0  0  0  0  0  0  0  0  0  0
   10.1004   13.3521   20.9222 H   0  0  0  0  0  0  0  0  0  0  0  0
  1  2  1  0  0  0  0
  1  8  1  0  0  0  0
  2  9  1  0  0  0  0
  3  5  1  0  0  0  0
  3  9  1  0  0  0  0
  4  6  1  0  0  0  0
  4  9  1  0  0  0  0
  5 14  1  0  0  0  0
  6 14  1  0  0  0  0
  7  9  1  0  0  0  0
  7 15  1  0  0  0  0
  8 10  1  0  0  0  0
  8 15  1  0  0  0  0
 10 16  1  0  0  0  0
 11 16  1  0  0  0  0
 12 16  2  0  0  0  0
 13 16  2  0  0  0  0
  1 17  1  0  0  0  0
  1 18  1  0  0  0  0
  2 19  1  0  0  0  0
  2 20  1  0  0  0  0
  3 21  1  0  0  0  0
  3 22  1  0  0  0  0
  4 23  1  0  0  0  0
  4 24  1  0  0  0  0
  5 25  1  0  0  0  0
  5 26  1  0  0  0  0
  6 27  1  0  0  0  0
  6 28  1  0  0  0  0
  7 29  1  0  0  0  0
  7 30  1  0  0  0  0
  8 31  1  0  0  0  0
 10 32  1  0  0  0  0
 10 33  1  0  0  0  0
 11 34  1  0  0  0  0
 11 35  1  0  0  0  0
M  END
> <Mol Weight>
249,33

> <Formula>
C10H19NO4S

> <ID>
EN300-366683

> <name>
Sulfonamides

> <LogP>
-0,60

> <ROCS_ShapeQuery>
x0446_0A_x1080_0A_x0929_0A_x0812_0A_x0719_0A_x1140_0A_x0528_0A_x0310_0A

> <ROCS_TanimotoCombo>
0.351 

> <ROCS_ShapeTanimoto>
0.199 

> <ROCS_ColorTanimoto>
0.151 

> <ROCS_RefTversky>
0.184 

> <ROCS_RefColorTversky>
0.163 

> <ROCS_RefTverskyCombo>
0.347 

> <ROCS_FitTversky>
1.731 

> <ROCS_FitColorTversky>
0.683 

> <ROCS_FitTverskyCombo>
2.414 

> <ROCS_ColorScore>
-5.815

> <ROCS_Overlap>
2167.317

> <ROCS_Rank>
141                 

$$$$
untitled-dbase-765_5
  -OEChem-02082415043D

 24 25  0     1  0  0  0  0  0999 V2000
    6.0195   11.9049   25.0009 C   0  0  0  0  0  0  0  0  0  0  0  0
    6.0236   13.1022   24.2706 C   0  0  0  0  0  0  0  0  0  0  0  0
    7.0220   10.9537   24.8085 C   0  0  0  0  0  0  0  0  0  0  0  0
    7.0332   13.3672   23.3416 C   0  0  0  0  0  0  0  0  0  0  0  0
    8.0264   11.2311   23.8947 C   0  0  0  0  0  0  0  0  0  0  0  0
    8.0438   12.4321   23.1711 C   0  0  0  0  0  0  0  0  0  0  0  0
    9.1566   10.3379   23.4886 C   0  0  0  0  0  0  0  0  0  0  0  0
   10.0939   11.3355   22.7965 C   0  0  0  0  0  0  0  0  0  0  0  0
    9.2021   12.4449   22.2196 C   0  0  2  0  0  0  0  0  0  0  0  0
   11.2329   13.7313   21.1018 N   0  0  0  0  0  0  0  0  0  0  0  0
    9.0775   14.9989   21.7053 O   0  0  0  0  0  0  0  0  0  0  0  0
   10.6034   14.1953   23.5523 O   0  0  0  0  0  0  0  0  0  0  0  0
    9.9972   14.0099   22.2439 S   0  0  0  0  0  0  0  0  0  0  0  0
    5.2307   11.7192   25.7241 H   0  0  0  0  0  0  0  0  0  0  0  0
    5.2353   13.8328   24.4320 H   0  0  0  0  0  0  0  0  0  0  0  0
    7.0112   10.0211   25.3631 H   0  0  0  0  0  0  0  0  0  0  0  0
    7.0236   14.2906   22.7692 H   0  0  0  0  0  0  0  0  0  0  0  0
    9.6267    9.8985   24.3746 H   0  0  0  0  0  0  0  0  0  0  0  0
    8.8379    9.5471   22.8034 H   0  0  0  0  0  0  0  0  0  0  0  0
   10.8720   11.7059   23.4702 H   0  0  0  0  0  0  0  0  0  0  0  0
   10.5981   10.8224   21.9666 H   0  0  0  0  0  0  0  0  0  0  0  0
    8.9066   12.2133   21.1797 H   0  0  0  0  0  0  0  0  0  0  0  0
   12.0005   13.1040   21.3720 H   0  0  0  0  0  0  0  0  0  0  0  0
   10.9612   13.6516   20.1142 H   0  0  0  0  0  0  0  0  0  0  0  0
  1  2  1  0  0  0  0
  1  3  2  0  0  0  0
  2  4  2  0  0  0  0
  3  5  1  0  0  0  0
  4  6  1  0  0  0  0
  5  6  2  0  0  0  0
  5  7  1  0  0  0  0
  6  9  1  0  0  0  0
  7  8  1  0  0  0  0
  8  9  1  0  0  0  0
  9 13  1  0  0  0  0
 10 13  1  0  0  0  0
 11 13  2  0  0  0  0
 12 13  2  0  0  0  0
  1 14  1  0  0  0  0
  2 15  1  0  0  0  0
  3 16  1  0  0  0  0
  4 17  1  0  0  0  0
  7 18  1  0  0  0  0
  7 19  1  0  0  0  0
  8 20  1  0  0  0  0
  8 21  1  0  0  0  0
  9 22  1  0  0  0  0
 10 23  1  0  0  0  0
 10 24  1  0  0  0  0
M  END
> <Mol Weight>
197,25

> <Formula>
C9H11NO2S

> <ID>
EN300-679546

> <name>
Sulfonamides

> <LogP>
1,04

> <ROCS_ShapeQuery>
x0446_0A_x1080_0A_x0929_0A_x0812_0A_x0719_0A_x1140_0A_x0528_0A_x0310_0A

> <ROCS_TanimotoCombo>
0.351 

> <ROCS_ShapeTanimoto>
0.187 

> <ROCS_ColorTanimoto>
0.164 

> <ROCS_RefTversky>
0.173 

> <ROCS_RefColorTversky>
0.167 

> <ROCS_RefTverskyCombo>
0.340 

> <ROCS_FitTversky>
1.772 

> <ROCS_FitColorTversky>
0.895 

> <ROCS_FitTverskyCombo>
2.667 

> <ROCS_ColorScore>
-5.932

> <ROCS_Overlap>
2039.776

> <ROCS_Rank>
142                 

$$$$
untitled-dbase-2474_368
  -OEChem-02082415043D

 28 28  0     0  0  0  0  0  0999 V2000
   10.2031   11.6839   23.0852 C   0  0  0  0  0  0  0  0  0  0  0  0
    9.6544   10.4061   22.9781 C   0  0  0  0  0  0  0  0  0  0  0  0
    7.7058   11.1401   24.2033 C   0  0  0  0  0  0  0  0  0  0  0  0
    9.5033   12.6899   23.7515 C   0  0  0  0  0  0  0  0  0  0  0  0
    8.2546   12.4180   24.3105 C   0  0  0  0  0  0  0  0  0  0  0  0
    8.4057   10.1342   23.5371 C   0  0  0  0  0  0  0  0  0  0  0  0
    8.2901   15.2091   20.3706 C   0  0  0  0  0  0  0  0  0  0  0  0
   10.9239   14.3347   22.7859 C   0  0  0  0  0  0  0  0  0  0  0  0
   10.1538   14.3040   21.4798 C   0  0  0  0  0  0  0  0  0  0  0  0
    5.9564   12.7986   25.6061 N   0  0  0  0  0  0  0  0  0  0  0  0
    8.0968   14.0286   26.3488 O   0  0  0  0  0  0  0  0  0  0  0  0
    6.9831   14.6879   24.1871 O   0  0  0  0  0  0  0  0  0  0  0  0
   10.0593   13.9305   23.8455 O   0  0  0  0  0  0  0  0  0  0  0  0
    9.0381   15.1810   21.5782 O   0  0  0  0  0  0  0  0  0  0  0  0
    7.3573   13.6629   25.1500 S   0  0  0  0  0  0  0  0  0  0  0  0
    7.7310    8.5562   23.4075 Cl  0  0  0  0  0  0  0  0  0  0  0  0
   11.1772   11.8883   22.6490 H   0  0  0  0  0  0  0  0  0  0  0  0
   10.2119    9.6315   22.4576 H   0  0  0  0  0  0  0  0  0  0  0  0
    6.7330   10.9292   24.6416 H   0  0  0  0  0  0  0  0  0  0  0  0
    7.4433   15.8908   20.4815 H   0  0  0  0  0  0  0  0  0  0  0  0
    7.9334   14.2025   20.1384 H   0  0  0  0  0  0  0  0  0  0  0  0
    8.9345   15.5609   19.5614 H   0  0  0  0  0  0  0  0  0  0  0  0
   11.2854   15.3436   23.0071 H   0  0  0  0  0  0  0  0  0  0  0  0
   11.7683   13.6402   22.7489 H   0  0  0  0  0  0  0  0  0  0  0  0
    9.7789   13.2981   21.2663 H   0  0  0  0  0  0  0  0  0  0  0  0
   10.7858   14.6447   20.6546 H   0  0  0  0  0  0  0  0  0  0  0  0
    5.8362   12.5664   26.5996 H   0  0  0  0  0  0  0  0  0  0  0  0
    5.0773   13.0163   25.1213 H   0  0  0  0  0  0  0  0  0  0  0  0
  1  2  2  0  0  0  0
  1  4  1  0  0  0  0
  2  6  1  0  0  0  0
  3  5  1  0  0  0  0
  3  6  2  0  0  0  0
  4  5  2  0  0  0  0
  4 13  1  0  0  0  0
  5 15  1  0  0  0  0
  6 16  1  0  0  0  0
  7 14  1  0  0  0  0
  8  9  1  0  0  0  0
  8 13  1  0  0  0  0
  9 14  1  0  0  0  0
 10 15  1  0  0  0  0
 11 15  2  0  0  0  0
 12 15  2  0  0  0  0
  1 17  1  0  0  0  0
  2 18  1  0  0  0  0
  3 19  1  0  0  0  0
  7 20  1  0  0  0  0
  7 21  1  0  0  0  0
  7 22  1  0  0  0  0
  8 23  1  0  0  0  0
  8 24  1  0  0  0  0
  9 25  1  0  0  0  0
  9 26  1  0  0  0  0
 10 27  1  0  0  0  0
 10 28  1  0  0  0  0
M  END
> <Mol Weight>
265,71

> <Formula>
C9H12ClNO4S

> <ID>
EN300-122260

> <name>
Sulfonamides

> <LogP>
0,98

> <ROCS_ShapeQuery>
x0446_0A_x1080_0A_x0929_0A_x0812_0A_x0719_0A_x1140_0A_x0528_0A_x0310_0A

> <ROCS_TanimotoCombo>
0.351 

> <ROCS_ShapeTanimoto>
0.211 

> <ROCS_ColorTanimoto>
0.139 

> <ROCS_RefTversky>
0.193 

> <ROCS_RefColorTversky>
0.148 

> <ROCS_RefTverskyCombo>
0.341 

> <ROCS_FitTversky>
1.822 

> <ROCS_FitColorTversky>
0.698 

> <ROCS_FitTverskyCombo>
2.520 

> <ROCS_ColorScore>
-5.281

> <ROCS_Overlap>
2275.737

> <ROCS_Rank>
143                 

$$$$
untitled-dbase-2013_0
  -OEChem-02082415043D

 23 24  0     0  0  0  0  0  0999 V2000
    7.3762   13.3595   24.3530 C   0  0  0  0  0  0  0  0  0  0  0  0
    6.3329   12.8379   25.1265 C   0  0  0  0  0  0  0  0  0  0  0  0
    6.9008   10.5712   24.4602 C   0  0  0  0  0  0  0  0  0  0  0  0
    9.7061   11.4038   22.3262 C   0  0  0  0  0  0  0  0  0  0  0  0
    8.1962   12.4779   23.6209 C   0  0  0  0  0  0  0  0  0  0  0  0
    7.9401   11.1069   23.6913 C   0  0  0  0  0  0  0  0  0  0  0  0
    6.1007   11.4648   25.1778 C   0  0  0  0  0  0  0  0  0  0  0  0
    9.3129   12.6503   22.7560 C   0  0  0  0  0  0  0  0  0  0  0  0
    8.8719   10.4794   22.8955 N   0  0  0  0  0  0  0  0  0  0  0  0
   11.3092   13.6143   21.2759 N   0  0  0  0  0  0  0  0  0  0  0  0
    5.0335   10.9636   25.9708 N   0  3  0  0  0  0  0  0  0  0  0  0
    4.3202   11.7731   26.6106 O   0  5  0  0  0  0  0  0  0  0  0  0
    4.8351    9.7255   26.0090 O   0  0  0  0  0  0  0  0  0  0  0  0
    9.1100   14.9356   21.5274 O   0  0  0  0  0  0  0  0  0  0  0  0
   10.6675   14.7474   23.4988 O   0  0  0  0  0  0  0  0  0  0  0  0
   10.0470   14.1279   22.3198 S   0  0  0  0  0  0  0  0  0  0  0  0
    7.5439   14.4323   24.3242 H   0  0  0  0  0  0  0  0  0  0  0  0
    5.7046   13.5255   25.6886 H   0  0  0  0  0  0  0  0  0  0  0  0
    6.7283    9.4994   24.4936 H   0  0  0  0  0  0  0  0  0  0  0  0
   10.5038   11.0896   21.6672 H   0  0  0  0  0  0  0  0  0  0  0  0
    8.9315    9.4806   22.7536 H   0  0  0  0  0  0  0  0  0  0  0  0
   12.1222   13.1411   21.6888 H   0  0  0  0  0  0  0  0  0  0  0  0
   11.0599   13.2708   20.3404 H   0  0  0  0  0  0  0  0  0  0  0  0
  1  2  2  0  0  0  0
  1  5  1  0  0  0  0
  2  7  1  0  0  0  0
  3  6  1  0  0  0  0
  3  7  2  0  0  0  0
  4  8  2  0  0  0  0
  4  9  1  0  0  0  0
  5  6  2  0  0  0  0
  5  8  1  0  0  0  0
  6  9  1  0  0  0  0
  7 11  1  0  0  0  0
  8 16  1  0  0  0  0
 10 16  1  0  0  0  0
 11 12  1  0  0  0  0
 11 13  2  0  0  0  0
 14 16  2  0  0  0  0
 15 16  2  0  0  0  0
  1 17  1  0  0  0  0
  2 18  1  0  0  0  0
  3 19  1  0  0  0  0
  4 20  1  0  0  0  0
  9 21  1  0  0  0  0
 10 22  1  0  0  0  0
 10 23  1  0  0  0  0
M  CHG  2  11   1  12  -1
M  END
> <Mol Weight>
241,22

> <Formula>
C8H7N3O4S

> <ID>
EN300-76292

> <name>
Sulfonamides

> <LogP>
0,62

> <ROCS_ShapeQuery>
x0446_0A_x1080_0A_x0929_0A_x0812_0A_x0719_0A_x1140_0A_x0528_0A_x0310_0A

> <ROCS_TanimotoCombo>
0.350 

> <ROCS_ShapeTanimoto>
0.191 

> <ROCS_ColorTanimoto>
0.159 

> <ROCS_RefTversky>
0.178 

> <ROCS_RefColorTversky>
0.173 

> <ROCS_RefTverskyCombo>
0.352 

> <ROCS_FitTversky>
1.619 

> <ROCS_FitColorTversky>
0.653 

> <ROCS_FitTverskyCombo>
2.271 

> <ROCS_ColorScore>
-6.200

> <ROCS_Overlap>
2103.170

> <ROCS_Rank>
144                 

$$$$
untitled-dbase-2023_2
  -OEChem-02082415043D

 31 32  0     0  0  0  0  0  0999 V2000
    9.0183   10.3579   22.5226 C   0  0  0  0  0  0  0  0  0  0  0  0
    8.0234   10.3633   23.5006 C   0  0  0  0  0  0  0  0  0  0  0  0
    9.6360   11.5498   22.1515 C   0  0  0  0  0  0  0  0  0  0  0  0
    7.6343   11.5626   24.1127 C   0  0  0  0  0  0  0  0  0  0  0  0
    8.2743   12.7534   23.7495 C   0  0  0  0  0  0  0  0  0  0  0  0
    9.2644   12.7463   22.7628 C   0  0  0  0  0  0  0  0  0  0  0  0
    6.5665   11.5492   25.1659 C   0  0  0  0  0  0  0  0  0  0  0  0
    6.0142   12.9528   25.3706 C   0  0  0  0  0  0  0  0  0  0  0  0
    7.1434   13.9920   25.4639 C   0  0  0  0  0  0  0  0  0  0  0  0
    8.0238   13.8016   26.7084 C   0  0  0  0  0  0  0  0  0  0  0  0
    6.5215   15.3951   25.5165 C   0  0  0  0  0  0  0  0  0  0  0  0
   11.1516   13.6187   21.0947 N   0  0  0  0  0  0  0  0  0  0  0  0
    9.0970   15.0819   21.6269 O   0  0  0  0  0  0  0  0  0  0  0  0
   10.8436   14.7155   23.4053 O   0  0  0  0  0  0  0  0  0  0  0  0
    7.9811   13.9764   24.2926 O   0  0  0  0  0  0  0  0  0  0  0  0
   10.0741   14.2209   22.2746 S   0  0  0  0  0  0  0  0  0  0  0  0
    9.3091    9.4246   22.0496 H   0  0  0  0  0  0  0  0  0  0  0  0
    7.5485    9.4261   23.7798 H   0  0  0  0  0  0  0  0  0  0  0  0
   10.4077   11.5337   21.3864 H   0  0  0  0  0  0  0  0  0  0  0  0
    5.7480   10.8819   24.8712 H   0  0  0  0  0  0  0  0  0  0  0  0
    6.9895   11.1633   26.1007 H   0  0  0  0  0  0  0  0  0  0  0  0
    5.3745   13.1951   24.5103 H   0  0  0  0  0  0  0  0  0  0  0  0
    5.3764   12.9772   26.2621 H   0  0  0  0  0  0  0  0  0  0  0  0
    8.8000   14.5608   26.7202 H   0  0  0  0  0  0  0  0  0  0  0  0
    8.4793   12.8164   26.6802 H   0  0  0  0  0  0  0  0  0  0  0  0
    7.4115   13.8938   27.6004 H   0  0  0  0  0  0  0  0  0  0  0  0
    7.3113   16.1374   25.5826 H   0  0  0  0  0  0  0  0  0  0  0  0
    5.8773   15.4717   26.3873 H   0  0  0  0  0  0  0  0  0  0  0  0
    5.9378   15.5648   24.6166 H   0  0  0  0  0  0  0  0  0  0  0  0
   10.9601   13.8411   20.1102 H   0  0  0  0  0  0  0  0  0  0  0  0
   12.1518   13.5897   21.3268 H   0  0  0  0  0  0  0  0  0  0  0  0
  1  2  2  0  0  0  0
  1  3  1  0  0  0  0
  2  4  1  0  0  0  0
  3  6  2  0  0  0  0
  4  5  2  0  0  0  0
  4  7  1  0  0  0  0
  5  6  1  0  0  0  0
  5 15  1  0  0  0  0
  6 16  1  0  0  0  0
  7  8  1  0  0  0  0
  8  9  1  0  0  0  0
  9 10  1  0  0  0  0
  9 11  1  0  0  0  0
  9 15  1  0  0  0  0
 12 16  1  0  0  0  0
 13 16  2  0  0  0  0
 14 16  2  0  0  0  0
  1 17  1  0  0  0  0
  2 18  1  0  0  0  0
  3 19  1  0  0  0  0
  7 20  1  0  0  0  0
  7 21  1  0  0  0  0
  8 22  1  0  0  0  0
  8 23  1  0  0  0  0
 10 24  1  0  0  0  0
 10 25  1  0  0  0  0
 10 26  1  0  0  0  0
 11 27  1  0  0  0  0
 11 28  1  0  0  0  0
 11 29  1  0  0  0  0
 12 30  1  0  0  0  0
 12 31  1  0  0  0  0
M  END
> <Mol Weight>
241,31

> <Formula>
C11H15NO3S

> <ID>
EN300-282719

> <name>
Sulfonamides

> <LogP>
1,60

> <ROCS_ShapeQuery>
x0446_0A_x1080_0A_x0929_0A_x0812_0A_x0719_0A_x1140_0A_x0528_0A_x0310_0A

> <ROCS_TanimotoCombo>
0.350 

> <ROCS_ShapeTanimoto>
0.200 

> <ROCS_ColorTanimoto>
0.150 

> <ROCS_RefTversky>
0.185 

> <ROCS_RefColorTversky>
0.162 

> <ROCS_RefTverskyCombo>
0.346 

> <ROCS_FitTversky>
1.702 

> <ROCS_FitColorTversky>
0.677 

> <ROCS_FitTverskyCombo>
2.379 

> <ROCS_ColorScore>
-5.770

> <ROCS_Overlap>
2177.314

> <ROCS_Rank>
145                 

$$$$
untitled-dbase-1339_451
  -OEChem-02082415043D

 27 27  0     0  0  0  0  0  0999 V2000
    9.7693   10.3740   23.7068 C   0  0  0  0  0  0  0  0  0  0  0  0
    8.8108   10.1990   24.7048 C   0  0  0  0  0  0  0  0  0  0  0  0
    9.6361   11.4137   22.7864 C   0  0  0  0  0  0  0  0  0  0  0  0
    7.5857   12.1032   23.8623 C   0  0  0  0  0  0  0  0  0  0  0  0
    7.7190   11.0635   24.7826 C   0  0  0  0  0  0  0  0  0  0  0  0
    8.5442   12.2783   22.8642 C   0  0  0  0  0  0  0  0  0  0  0  0
    4.7237   10.9579   24.5747 C   0  0  0  0  0  0  0  0  0  0  0  0
    6.6953   10.8765   25.8510 C   0  0  0  0  0  0  0  0  0  0  0  0
    8.4015   13.3896   21.8796 C   0  0  0  0  0  0  0  0  0  0  0  0
   10.9526   13.5584   21.1624 N   0  0  0  0  0  0  0  0  0  0  0  0
    9.5224   15.6886   21.3455 O   0  0  0  0  0  0  0  0  0  0  0  0
   10.1951   14.4607   23.4491 O   0  0  0  0  0  0  0  0  0  0  0  0
    5.5332   11.6308   25.5289 O   0  0  0  0  0  0  0  0  0  0  0  0
    9.8012   14.4490   22.0505 S   0  0  0  0  0  0  0  0  0  0  0  0
   10.6196    9.7008   23.6464 H   0  0  0  0  0  0  0  0  0  0  0  0
    8.9233    9.3863   25.4179 H   0  0  0  0  0  0  0  0  0  0  0  0
   10.3873   11.5422   22.0117 H   0  0  0  0  0  0  0  0  0  0  0  0
    6.7352   12.7782   23.9230 H   0  0  0  0  0  0  0  0  0  0  0  0
    3.8424   11.5641   24.3513 H   0  0  0  0  0  0  0  0  0  0  0  0
    4.4197    9.9868   24.9735 H   0  0  0  0  0  0  0  0  0  0  0  0
    5.3021   10.8089   23.6598 H   0  0  0  0  0  0  0  0  0  0  0  0
    6.4109    9.8203   25.9532 H   0  0  0  0  0  0  0  0  0  0  0  0
    7.0742   11.2111   26.8264 H   0  0  0  0  0  0  0  0  0  0  0  0
    7.5013   13.9890   22.0567 H   0  0  0  0  0  0  0  0  0  0  0  0
    8.3766   13.0282   20.8452 H   0  0  0  0  0  0  0  0  0  0  0  0
   11.2488   13.9332   20.2528 H   0  0  0  0  0  0  0  0  0  0  0  0
   11.7068   13.0968   21.6854 H   0  0  0  0  0  0  0  0  0  0  0  0
  1  2  2  0  0  0  0
  1  3  1  0  0  0  0
  2  5  1  0  0  0  0
  3  6  2  0  0  0  0
  4  5  2  0  0  0  0
  4  6  1  0  0  0  0
  5  8  1  0  0  0  0
  6  9  1  0  0  0  0
  7 13  1  0  0  0  0
  8 13  1  0  0  0  0
  9 14  1  0  0  0  0
 10 14  1  0  0  0  0
 11 14  2  0  0  0  0
 12 14  2  0  0  0  0
  1 15  1  0  0  0  0
  2 16  1  0  0  0  0
  3 17  1  0  0  0  0
  4 18  1  0  0  0  0
  7 19  1  0  0  0  0
  7 20  1  0  0  0  0
  7 21  1  0  0  0  0
  8 22  1  0  0  0  0
  8 23  1  0  0  0  0
  9 24  1  0  0  0  0
  9 25  1  0  0  0  0
 10 26  1  0  0  0  0
 10 27  1  0  0  0  0
M  END
> <Mol Weight>
215,27

> <Formula>
C9H13NO3S

> <ID>
EN300-198672

> <name>
Sulfonamides

> <LogP>
0,22

> <ROCS_ShapeQuery>
x0446_0A_x1080_0A_x0929_0A_x0812_0A_x0719_0A_x1140_0A_x0528_0A_x0310_0A

> <ROCS_TanimotoCombo>
0.350 

> <ROCS_ShapeTanimoto>
0.179 

> <ROCS_ColorTanimoto>
0.171 

> <ROCS_RefTversky>
0.167 

> <ROCS_RefColorTversky>
0.173 

> <ROCS_RefTverskyCombo>
0.340 

> <ROCS_FitTversky>
1.687 

> <ROCS_FitColorTversky>
0.930 

> <ROCS_FitTverskyCombo>
2.617 

> <ROCS_ColorScore>
-6.151

> <ROCS_Overlap>
1968.301

> <ROCS_Rank>
146                 

$$$$
untitled-dbase-790_0
  -OEChem-02082415043D

 18 19  0     0  0  0  0  0  0999 V2000
    7.0141   11.6384   21.1484 C   0  0  0  0  0  0  0  0  0  0  0  0
    7.0780   10.6029   22.0984 C   0  0  0  0  0  0  0  0  0  0  0  0
    7.8743   12.7676   21.1680 C   0  0  0  0  0  0  0  0  0  0  0  0
    8.0712   10.7756   23.0799 C   0  0  0  0  0  0  0  0  0  0  0  0
    8.9545   11.9353   23.1001 C   0  0  0  0  0  0  0  0  0  0  0  0
    8.8734   12.9601   22.1395 C   0  0  0  0  0  0  0  0  0  0  0  0
    8.3930    9.9872   24.1131 N   0  0  0  0  0  0  0  0  0  0  0  0
    9.7826   11.8117   24.1449 N   0  0  0  0  0  0  0  0  0  0  0  0
   11.1880   13.8150   21.1314 N   0  0  0  0  0  0  0  0  0  0  0  0
    9.1975   15.4321   21.3929 O   0  0  0  0  0  0  0  0  0  0  0  0
   10.3999   14.6142   23.4503 O   0  0  0  0  0  0  0  0  0  0  0  0
    9.4382   10.6215   24.7624 O   0  0  0  0  0  0  0  0  0  0  0  0
    9.8956   14.3682   22.1045 S   0  0  0  0  0  0  0  0  0  0  0  0
    6.2678   11.5720   20.3579 H   0  0  0  0  0  0  0  0  0  0  0  0
    6.4126    9.7495   22.0675 H   0  0  0  0  0  0  0  0  0  0  0  0
    7.7438   13.5150   20.3854 H   0  0  0  0  0  0  0  0  0  0  0  0
   11.2714   14.1921   20.1794 H   0  0  0  0  0  0  0  0  0  0  0  0
   12.0909   13.6322   21.5860 H   0  0  0  0  0  0  0  0  0  0  0  0
  1  2  2  0  0  0  0
  1  3  1  0  0  0  0
  2  4  1  0  0  0  0
  3  6  2  0  0  0  0
  4  5  1  0  0  0  0
  4  7  2  0  0  0  0
  5  6  1  0  0  0  0
  5  8  2  0  0  0  0
  6 13  1  0  0  0  0
  7 12  1  0  0  0  0
  8 12  1  0  0  0  0
  9 13  1  0  0  0  0
 10 13  2  0  0  0  0
 11 13  2  0  0  0  0
  1 14  1  0  0  0  0
  2 15  1  0  0  0  0
  3 16  1  0  0  0  0
  9 17  1  0  0  0  0
  9 18  1  0  0  0  0
M  END
> <Mol Weight>
199,18

> <Formula>
C6H5N3O3S

> <ID>
EN300-372002

> <name>
Sulfonamides

> <LogP>
-0,07

> <ROCS_ShapeQuery>
x0446_0A_x1080_0A_x0929_0A_x0812_0A_x0719_0A_x1140_0A_x0528_0A_x0310_0A

> <ROCS_TanimotoCombo>
0.350 

> <ROCS_ShapeTanimoto>
0.150 

> <ROCS_ColorTanimoto>
0.199 

> <ROCS_RefTversky>
0.144 

> <ROCS_RefColorTversky>
0.206 

> <ROCS_RefTverskyCombo>
0.350 

> <ROCS_FitTversky>
1.455 

> <ROCS_FitColorTversky>
0.860 

> <ROCS_FitTverskyCombo>
2.315 

> <ROCS_ColorScore>
-7.352

> <ROCS_Overlap>
1692.894

> <ROCS_Rank>
147                 

$$$$
untitled-dbase-2551_44
  -OEChem-02082415043D

 27 28  0     0  0  0  0  0  0999 V2000
   11.7318   10.9186   23.4383 C   0  0  0  0  0  0  0  0  0  0  0  0
    9.7357   10.3977   23.8335 C   0  0  0  0  0  0  0  0  0  0  0  0
    8.7411   12.6203   23.7925 C   0  0  0  0  0  0  0  0  0  0  0  0
    7.5127   10.6155   24.1974 C   0  0  0  0  0  0  0  0  0  0  0  0
    7.5428   12.0899   24.0512 C   0  0  0  0  0  0  0  0  0  0  0  0
   13.1384   10.7832   23.2081 C   0  0  0  0  0  0  0  0  0  0  0  0
   15.7788   12.5532   23.1030 C   0  0  0  0  0  0  0  0  0  0  0  0
   15.0303   11.7364   22.0714 C   0  0  0  0  0  0  0  0  0  0  0  0
   10.9255    9.8518   23.6801 N   0  0  0  0  0  0  0  0  0  0  0  0
   11.1360   12.1081   23.4272 N   0  0  0  0  0  0  0  0  0  0  0  0
    8.5296    9.8128   24.0982 N   0  0  0  0  0  0  0  0  0  0  0  0
    9.8457   11.7839   23.6816 N   0  0  0  0  0  0  0  0  0  0  0  0
    5.5285   13.1954   22.6005 N   0  0  0  0  0  0  0  0  0  0  0  0
   13.8665    9.8866   23.6888 O   0  0  0  0  0  0  0  0  0  0  0  0
    5.1664   12.4115   25.0109 O   0  0  0  0  0  0  0  0  0  0  0  0
    6.5942   14.4346   24.5739 O   0  0  0  0  0  0  0  0  0  0  0  0
   13.6323   11.7648   22.3788 O   0  0  0  0  0  0  0  0  0  0  0  0
    6.1711   13.0890   24.1950 S   0  0  0  0  0  0  0  0  0  0  0  0
    8.9134   13.6822   23.6613 H   0  0  0  0  0  0  0  0  0  0  0  0
    6.5231   10.1805   24.4123 H   0  0  0  0  0  0  0  0  0  0  0  0
   15.4413   13.5933   23.0969 H   0  0  0  0  0  0  0  0  0  0  0  0
   15.6297   12.1390   24.1055 H   0  0  0  0  0  0  0  0  0  0  0  0
   16.8557   12.5301   22.9060 H   0  0  0  0  0  0  0  0  0  0  0  0
   15.3725   10.6973   22.0827 H   0  0  0  0  0  0  0  0  0  0  0  0
   15.1796   12.1520   21.0704 H   0  0  0  0  0  0  0  0  0  0  0  0
    5.5857   14.1052   22.1257 H   0  0  0  0  0  0  0  0  0  0  0  0
    4.6308   12.7215   22.4369 H   0  0  0  0  0  0  0  0  0  0  0  0
  1  6  1  0  0  0  0
  1  9  1  0  0  0  0
  1 10  2  0  0  0  0
  2  9  2  0  0  0  0
  2 11  1  0  0  0  0
  2 12  1  0  0  0  0
  3  5  2  0  0  0  0
  3 12  1  0  0  0  0
  4  5  1  0  0  0  0
  4 11  2  0  0  0  0
  5 18  1  0  0  0  0
  6 14  2  0  0  0  0
  6 17  1  0  0  0  0
  7  8  1  0  0  0  0
  8 17  1  0  0  0  0
 10 12  1  0  0  0  0
 13 18  1  0  0  0  0
 15 18  2  0  0  0  0
 16 18  2  0  0  0  0
  3 19  1  0  0  0  0
  4 20  1  0  0  0  0
  7 21  1  0  0  0  0
  7 22  1  0  0  0  0
  7 23  1  0  0  0  0
  8 24  1  0  0  0  0
  8 25  1  0  0  0  0
 13 26  1  0  0  0  0
 13 27  1  0  0  0  0
M  END
> <Mol Weight>
271,25

> <Formula>
C8H9N5O4S

> <ID>
EN300-366412

> <name>
Sulfonamides

> <LogP>
-0,24

> <ROCS_ShapeQuery>
x0446_0A_x1080_0A_x0929_0A_x0812_0A_x0719_0A_x1140_0A_x0528_0A_x0310_0A

> <ROCS_TanimotoCombo>
0.350 

> <ROCS_ShapeTanimoto>
0.197 

> <ROCS_ColorTanimoto>
0.153 

> <ROCS_RefTversky>
0.184 

> <ROCS_RefColorTversky>
0.171 

> <ROCS_RefTverskyCombo>
0.355 

> <ROCS_FitTversky>
1.566 

> <ROCS_FitColorTversky>
0.586 

> <ROCS_FitTverskyCombo>
2.151 

> <ROCS_ColorScore>
-6.123

> <ROCS_Overlap>
2170.424

> <ROCS_Rank>
148                 

$$$$
untitled-dbase-2117_0
  -OEChem-02082415043D

 23 24  0     0  0  0  0  0  0999 V2000
    7.2571   13.5403   24.5386 C   0  0  0  0  0  0  0  0  0  0  0  0
    6.2007   13.0569   25.2992 C   0  0  0  0  0  0  0  0  0  0  0  0
    9.2315   11.3951   22.3442 C   0  0  0  0  0  0  0  0  0  0  0  0
    7.9258   12.6005   23.7414 C   0  0  0  0  0  0  0  0  0  0  0  0
    7.4930   11.2737   23.7665 C   0  0  0  0  0  0  0  0  0  0  0  0
    9.0241   12.6624   22.8391 C   0  0  0  0  0  0  0  0  0  0  0  0
    6.4259   10.8613   24.5538 C   0  0  0  0  0  0  0  0  0  0  0  0
    8.2250    9.1498   22.6117 C   0  0  0  0  0  0  0  0  0  0  0  0
    5.7825   11.7706   25.3223 N   0  0  0  0  0  0  0  0  0  0  0  0
    8.3019   10.5639   22.9102 N   0  0  0  0  0  0  0  0  0  0  0  0
   11.0757   13.4220   21.3163 N   0  0  0  0  0  0  0  0  0  0  0  0
    9.0822   15.0077   21.7124 O   0  0  0  0  0  0  0  0  0  0  0  0
   10.6714   14.5280   23.6076 O   0  0  0  0  0  0  0  0  0  0  0  0
    9.9316   14.0490   22.4320 S   0  0  0  0  0  0  0  0  0  0  0  0
    5.8178    9.2684   24.6607 Cl  0  0  0  0  0  0  0  0  0  0  0  0
    7.5407   14.5858   24.5670 H   0  0  0  0  0  0  0  0  0  0  0  0
    5.6380   13.7290   25.9402 H   0  0  0  0  0  0  0  0  0  0  0  0
    9.9612   11.0178   21.6397 H   0  0  0  0  0  0  0  0  0  0  0  0
    8.8625    8.6196   23.3241 H   0  0  0  0  0  0  0  0  0  0  0  0
    7.1882    8.8142   22.7031 H   0  0  0  0  0  0  0  0  0  0  0  0
    8.5683    8.9773   21.5879 H   0  0  0  0  0  0  0  0  0  0  0  0
   11.8331   12.8281   21.6755 H   0  0  0  0  0  0  0  0  0  0  0  0
   10.7492   13.1568   20.3791 H   0  0  0  0  0  0  0  0  0  0  0  0
  1  2  2  0  0  0  0
  1  4  1  0  0  0  0
  2  9  1  0  0  0  0
  3  6  2  0  0  0  0
  3 10  1  0  0  0  0
  4  5  2  0  0  0  0
  4  6  1  0  0  0  0
  5  7  1  0  0  0  0
  5 10  1  0  0  0  0
  6 14  1  0  0  0  0
  7  9  2  0  0  0  0
  7 15  1  0  0  0  0
  8 10  1  0  0  0  0
 11 14  1  0  0  0  0
 12 14  2  0  0  0  0
 13 14  2  0  0  0  0
  1 16  1  0  0  0  0
  2 17  1  0  0  0  0
  3 18  1  0  0  0  0
  8 19  1  0  0  0  0
  8 20  1  0  0  0  0
  8 21  1  0  0  0  0
 11 22  1  0  0  0  0
 11 23  1  0  0  0  0
M  END
> <Mol Weight>
245,68

> <Formula>
C8H8ClN3O2S

> <ID>
EN300-33039528

> <name>
Sulfonamides

> <LogP>
0,51

> <ROCS_ShapeQuery>
x0446_0A_x1080_0A_x0929_0A_x0812_0A_x0719_0A_x1140_0A_x0528_0A_x0310_0A

> <ROCS_TanimotoCombo>
0.350 

> <ROCS_ShapeTanimoto>
0.183 

> <ROCS_ColorTanimoto>
0.166 

> <ROCS_RefTversky>
0.171 

> <ROCS_RefColorTversky>
0.173 

> <ROCS_RefTverskyCombo>
0.344 

> <ROCS_FitTversky>
1.623 

> <ROCS_FitColorTversky>
0.813 

> <ROCS_FitTverskyCombo>
2.436 

> <ROCS_ColorScore>
-6.166

> <ROCS_Overlap>
2018.112

> <ROCS_Rank>
149                 

$$$$
untitled-dbase-2654_646
  -OEChem-02082415043D

 38 38  0     1  0  0  0  0  0999 V2000
    6.2777   11.1014   24.7467 C   0  0  0  0  0  0  0  0  0  0  0  0
    8.6080   10.3712   24.2965 C   0  0  0  0  0  0  0  0  0  0  0  0
    8.1856   12.7632   24.7148 C   0  0  0  0  0  0  0  0  0  0  0  0
    9.5271   10.7835   23.1562 C   0  0  0  0  0  0  0  0  0  0  0  0
    9.1274   13.0811   23.5513 C   0  0  1  0  0  0  0  0  0  0  0  0
    3.6415   10.7250   23.6991 C   0  0  0  0  0  0  0  0  0  0  0  0
    4.3208    8.3317   23.3533 C   0  0  0  0  0  0  0  0  0  0  0  0
    4.2562    9.2906   25.6737 C   0  0  0  0  0  0  0  0  0  0  0  0
    9.8461   14.4041   23.7722 C   0  0  0  0  0  0  0  0  0  0  0  0
    4.5285    9.5859   24.1994 C   0  0  0  0  0  0  0  0  0  0  0  0
    7.6237   11.4188   24.5559 N   0  0  0  0  0  0  0  0  0  0  0  0
   11.0442   13.6025   21.5422 N   0  0  0  0  0  0  0  0  0  0  0  0
    5.5064   11.7503   25.4509 O   0  0  0  0  0  0  0  0  0  0  0  0
    9.3707   15.5549   21.4751 O   0  0  0  0  0  0  0  0  0  0  0  0
   11.6253   15.8897   22.5660 O   0  0  0  0  0  0  0  0  0  0  0  0
   10.1223   12.0540   23.4346 O   0  0  0  0  0  0  0  0  0  0  0  0
    5.8984    9.9795   24.0586 O   0  0  0  0  0  0  0  0  0  0  0  0
   10.4824   15.0438   22.2611 S   0  0  0  0  0  0  0  0  0  0  0  0
    8.1325    9.4122   24.0705 H   0  0  0  0  0  0  0  0  0  0  0  0
    9.1850   10.2523   25.2221 H   0  0  0  0  0  0  0  0  0  0  0  0
    8.7322   12.7550   25.6647 H   0  0  0  0  0  0  0  0  0  0  0  0
    7.3897   13.5096   24.7875 H   0  0  0  0  0  0  0  0  0  0  0  0
   10.3368   10.0556   23.0488 H   0  0  0  0  0  0  0  0  0  0  0  0
    8.9906   10.8288   22.2019 H   0  0  0  0  0  0  0  0  0  0  0  0
    8.5653   13.1412   22.6098 H   0  0  0  0  0  0  0  0  0  0  0  0
    3.7876   11.6272   24.3039 H   0  0  0  0  0  0  0  0  0  0  0  0
    3.8514   10.9700   22.6528 H   0  0  0  0  0  0  0  0  0  0  0  0
    2.5810   10.4624   23.7870 H   0  0  0  0  0  0  0  0  0  0  0  0
    4.9553    7.5118   23.7088 H   0  0  0  0  0  0  0  0  0  0  0  0
    4.6058    8.5127   22.3106 H   0  0  0  0  0  0  0  0  0  0  0  0
    3.2784    7.9978   23.3749 H   0  0  0  0  0  0  0  0  0  0  0  0
    4.8924    8.4736   26.0329 H   0  0  0  0  0  0  0  0  0  0  0  0
    4.4359   10.1698   26.3010 H   0  0  0  0  0  0  0  0  0  0  0  0
    3.2205    8.9637   25.8208 H   0  0  0  0  0  0  0  0  0  0  0  0
   10.6871   14.2729   24.4533 H   0  0  0  0  0  0  0  0  0  0  0  0
    9.1614   15.1472   24.1812 H   0  0  0  0  0  0  0  0  0  0  0  0
   10.5249   13.2383   20.7339 H   0  0  0  0  0  0  0  0  0  0  0  0
   12.0604   13.4662   21.4771 H   0  0  0  0  0  0  0  0  0  0  0  0
  1 11  1  0  0  0  0
  1 13  2  0  0  0  0
  1 17  1  0  0  0  0
  2  4  1  0  0  0  0
  2 11  1  0  0  0  0
  3  5  1  0  0  0  0
  3 11  1  0  0  0  0
  4 16  1  0  0  0  0
  5  9  1  6  0  0  0
  5 16  1  0  0  0  0
  6 10  1  0  0  0  0
  7 10  1  0  0  0  0
  8 10  1  0  0  0  0
  9 18  1  0  0  0  0
 10 17  1  0  0  0  0
 12 18  1  0  0  0  0
 14 18  2  0  0  0  0
 15 18  2  0  0  0  0
  2 19  1  0  0  0  0
  2 20  1  0  0  0  0
  3 21  1  0  0  0  0
  3 22  1  0  0  0  0
  4 23  1  0  0  0  0
  4 24  1  0  0  0  0
  5 25  1  0  0  0  0
  6 26  1  0  0  0  0
  6 27  1  0  0  0  0
  6 28  1  0  0  0  0
  7 29  1  0  0  0  0
  7 30  1  0  0  0  0
  7 31  1  0  0  0  0
  8 32  1  0  0  0  0
  8 33  1  0  0  0  0
  8 34  1  0  0  0  0
  9 35  1  0  0  0  0
  9 36  1  0  0  0  0
 12 37  1  0  0  0  0
 12 38  1  0  0  0  0
M  END
> <Mol Weight>
280,34

> <Formula>
C10H20N2O5S

> <ID>
EN300-28338208

> <name>
Sulfonamides

> <LogP>
-0,62

> <ROCS_ShapeQuery>
x0446_0A_x1080_0A_x0929_0A_x0812_0A_x0719_0A_x1140_0A_x0528_0A_x0310_0A

> <ROCS_TanimotoCombo>
0.349 

> <ROCS_ShapeTanimoto>
0.190 

> <ROCS_ColorTanimoto>
0.159 

> <ROCS_RefTversky>
0.178 

> <ROCS_RefColorTversky>
0.170 

> <ROCS_RefTverskyCombo>
0.348 

> <ROCS_FitTversky>
1.572 

> <ROCS_FitColorTversky>
0.713 

> <ROCS_FitTverskyCombo>
2.285 

> <ROCS_ColorScore>
-6.069

> <ROCS_Overlap>
2099.815

> <ROCS_Rank>
150                 

$$$$
untitled-dbase-2351_0
  -OEChem-02082415043D

 23 23  0     0  0  0  0  0  0999 V2000
    6.9590   13.1169   22.9481 C   0  0  0  0  0  0  0  0  0  0  0  0
    6.0688   12.8880   23.9973 C   0  0  0  0  0  0  0  0  0  0  0  0
    7.4794   11.1001   24.8041 C   0  0  0  0  0  0  0  0  0  0  0  0
    8.1093   12.3373   22.8268 C   0  0  0  0  0  0  0  0  0  0  0  0
    8.3695   11.3290   23.7548 C   0  0  0  0  0  0  0  0  0  0  0  0
    6.3290   11.8797   24.9253 C   0  0  0  0  0  0  0  0  0  0  0  0
    9.0470   12.6005   21.6945 C   0  0  0  0  0  0  0  0  0  0  0  0
    9.5935   10.4803   23.6446 C   0  0  0  0  0  0  0  0  0  0  0  0
   11.2611   13.9002   21.0165 N   0  0  0  0  0  0  0  0  0  0  0  0
    9.1186   15.2097   21.5750 O   0  0  0  0  0  0  0  0  0  0  0  0
   10.3746   14.0365   23.4275 O   0  0  0  0  0  0  0  0  0  0  0  0
    5.4747   11.6601   25.9333 F   0  0  0  0  0  0  0  0  0  0  0  0
    9.6963    9.5408   24.6297 F   0  0  0  0  0  0  0  0  0  0  0  0
    9.6680    9.7814   22.4744 F   0  0  0  0  0  0  0  0  0  0  0  0
   10.7439   11.2103   23.7110 F   0  0  0  0  0  0  0  0  0  0  0  0
    9.9175   14.0921   22.0490 S   0  0  0  0  0  0  0  0  0  0  0  0
    6.7469   13.9041   22.2292 H   0  0  0  0  0  0  0  0  0  0  0  0
    5.1728   13.4943   24.0903 H   0  0  0  0  0  0  0  0  0  0  0  0
    7.6723   10.3165   25.5319 H   0  0  0  0  0  0  0  0  0  0  0  0
    8.5205   12.7338   20.7435 H   0  0  0  0  0  0  0  0  0  0  0  0
    9.7840   11.7995   21.5727 H   0  0  0  0  0  0  0  0  0  0  0  0
   11.9582   13.1881   21.2667 H   0  0  0  0  0  0  0  0  0  0  0  0
   11.1027   13.9873   20.0052 H   0  0  0  0  0  0  0  0  0  0  0  0
  1  2  2  0  0  0  0
  1  4  1  0  0  0  0
  2  6  1  0  0  0  0
  3  5  1  0  0  0  0
  3  6  2  0  0  0  0
  4  5  2  0  0  0  0
  4  7  1  0  0  0  0
  5  8  1  0  0  0  0
  6 12  1  0  0  0  0
  7 16  1  0  0  0  0
  8 13  1  0  0  0  0
  8 14  1  0  0  0  0
  8 15  1  0  0  0  0
  9 16  1  0  0  0  0
 10 16  2  0  0  0  0
 11 16  2  0  0  0  0
  1 17  1  0  0  0  0
  2 18  1  0  0  0  0
  3 19  1  0  0  0  0
  7 20  1  0  0  0  0
  7 21  1  0  0  0  0
  9 22  1  0  0  0  0
  9 23  1  0  0  0  0
M  END
> <Mol Weight>
257,20

> <Formula>
C8H7F4NO2S

> <ID>
EN300-281355

> <name>
Sulfonamides

> <LogP>
1,36

> <ROCS_ShapeQuery>
x0446_0A_x1080_0A_x0929_0A_x0812_0A_x0719_0A_x1140_0A_x0528_0A_x0310_0A

> <ROCS_TanimotoCombo>
0.349 

> <ROCS_ShapeTanimoto>
0.212 

> <ROCS_ColorTanimoto>
0.137 

> <ROCS_RefTversky>
0.194 

> <ROCS_RefColorTversky>
0.140 

> <ROCS_RefTverskyCombo>
0.334 

> <ROCS_FitTversky>
1.790 

> <ROCS_FitColorTversky>
0.877 

> <ROCS_FitTverskyCombo>
2.667 

> <ROCS_ColorScore>
-4.968

> <ROCS_Overlap>
2287.330

> <ROCS_Rank>
151                 

$$$$
untitled-dbase-369_5
  -OEChem-02082415043D

 18 18  0     0  0  0  0  0  0999 V2000
    7.7015   11.6462   24.2643 C   0  0  0  0  0  0  0  0  0  0  0  0
    8.4764   14.0538   24.5034 C   0  0  0  0  0  0  0  0  0  0  0  0
    7.4037   14.7458   23.6743 C   0  0  0  0  0  0  0  0  0  0  0  0
    8.2651   10.5191   23.8949 N   0  0  0  0  0  0  0  0  0  0  0  0
    9.5699   10.8379   23.5933 N   0  0  0  0  0  0  0  0  0  0  0  0
    9.7985   12.1329   23.7738 N   0  0  0  0  0  0  0  0  0  0  0  0
    8.6292   12.6360   24.1934 N   0  0  0  0  0  0  0  0  0  0  0  0
    6.3465   15.4839   21.3530 N   0  0  0  0  0  0  0  0  0  0  0  0
    8.9018   15.3838   21.6308 O   0  0  0  0  0  0  0  0  0  0  0  0
    7.5769   13.2335   21.5504 O   0  0  0  0  0  0  0  0  0  0  0  0
    7.6999   14.6280   21.9384 S   0  0  0  0  0  0  0  0  0  0  0  0
    6.6779   11.7926   24.5763 H   0  0  0  0  0  0  0  0  0  0  0  0
    9.4515   14.5212   24.3208 H   0  0  0  0  0  0  0  0  0  0  0  0
    8.2692   14.1495   25.5756 H   0  0  0  0  0  0  0  0  0  0  0  0
    6.4329   14.2714   23.8485 H   0  0  0  0  0  0  0  0  0  0  0  0
    7.3176   15.8101   23.9123 H   0  0  0  0  0  0  0  0  0  0  0  0
    5.4251   15.0373   21.4374 H   0  0  0  0  0  0  0  0  0  0  0  0
    6.3276   16.5017   21.4920 H   0  0  0  0  0  0  0  0  0  0  0  0
  1  4  2  0  0  0  0
  1  7  1  0  0  0  0
  2  3  1  0  0  0  0
  2  7  1  0  0  0  0
  3 11  1  0  0  0  0
  4  5  1  0  0  0  0
  5  6  2  0  0  0  0
  6  7  1  0  0  0  0
  8 11  1  0  0  0  0
  9 11  2  0  0  0  0
 10 11  2  0  0  0  0
  1 12  1  0  0  0  0
  2 13  1  0  0  0  0
  2 14  1  0  0  0  0
  3 15  1  0  0  0  0
  3 16  1  0  0  0  0
  8 17  1  0  0  0  0
  8 18  1  0  0  0  0
M  END
> <Mol Weight>
177,18

> <Formula>
C3H7N5O2S

> <ID>
EN300-291909

> <name>
Sulfonamides

> <LogP>
-2,20

> <ROCS_ShapeQuery>
x0446_0A_x1080_0A_x0929_0A_x0812_0A_x0719_0A_x1140_0A_x0528_0A_x0310_0A

> <ROCS_TanimotoCombo>
0.349 

> <ROCS_ShapeTanimoto>
0.164 

> <ROCS_ColorTanimoto>
0.185 

> <ROCS_RefTversky>
0.154 

> <ROCS_RefColorTversky>
0.196 

> <ROCS_RefTverskyCombo>
0.350 

> <ROCS_FitTversky>
1.714 

> <ROCS_FitColorTversky>
0.766 

> <ROCS_FitTverskyCombo>
2.481 

> <ROCS_ColorScore>
-7.001

> <ROCS_Overlap>
1811.119

> <ROCS_Rank>
152                 

$$$$
untitled-dbase-1133_41
  -OEChem-02082415043D

 28 28  0     1  0  0  0  0  0999 V2000
    8.7832   11.9034   25.1581 C   0  0  0  0  0  0  0  0  0  0  0  0
    8.7058   10.3903   25.2092 C   0  0  0  0  0  0  0  0  0  0  0  0
    8.9221   11.8509   22.8059 C   0  0  2  0  0  0  0  0  0  0  0  0
    8.8419   10.3046   22.8096 C   0  0  0  0  0  0  0  0  0  0  0  0
    7.9871    9.7993   21.6391 C   0  0  0  0  0  0  0  0  0  0  0  0
   10.2171    9.6201   22.7438 C   0  0  0  0  0  0  0  0  0  0  0  0
    9.7128   12.4491   21.6473 C   0  0  0  0  0  0  0  0  0  0  0  0
   11.4888   14.2706   20.8861 N   0  0  0  0  0  0  0  0  0  0  0  0
    9.1344   14.9971   21.6250 O   0  0  0  0  0  0  0  0  0  0  0  0
   10.7641   14.1292   23.3502 O   0  0  0  0  0  0  0  0  0  0  0  0
    9.5419   12.3066   24.0189 O   0  0  0  0  0  0  0  0  0  0  0  0
    8.1441    9.8822   23.9999 O   0  0  0  0  0  0  0  0  0  0  0  0
   10.2124   14.0972   22.0046 S   0  0  0  0  0  0  0  0  0  0  0  0
    7.7843   12.3504   25.0965 H   0  0  0  0  0  0  0  0  0  0  0  0
    9.2761   12.2922   26.0540 H   0  0  0  0  0  0  0  0  0  0  0  0
    9.6928    9.9447   25.3678 H   0  0  0  0  0  0  0  0  0  0  0  0
    8.0654   10.0723   26.0377 H   0  0  0  0  0  0  0  0  0  0  0  0
    7.9078   12.2722   22.7786 H   0  0  0  0  0  0  0  0  0  0  0  0
    7.9462    8.7141   21.6634 H   0  0  0  0  0  0  0  0  0  0  0  0
    8.4292   10.1246   20.7018 H   0  0  0  0  0  0  0  0  0  0  0  0
    6.9820   10.2021   21.7253 H   0  0  0  0  0  0  0  0  0  0  0  0
   10.0826    8.5431   22.7501 H   0  0  0  0  0  0  0  0  0  0  0  0
   10.8081    9.9187   23.6038 H   0  0  0  0  0  0  0  0  0  0  0  0
   10.7235    9.9191   21.8316 H   0  0  0  0  0  0  0  0  0  0  0  0
    9.1018   12.4770   20.7462 H   0  0  0  0  0  0  0  0  0  0  0  0
   10.6120   11.8641   21.4604 H   0  0  0  0  0  0  0  0  0  0  0  0
   12.3547   13.7474   21.0652 H   0  0  0  0  0  0  0  0  0  0  0  0
   11.2446   14.3387   19.8904 H   0  0  0  0  0  0  0  0  0  0  0  0
  1  2  1  0  0  0  0
  1 11  1  0  0  0  0
  2 12  1  0  0  0  0
  3  4  1  0  0  0  0
  3  7  1  0  0  0  0
  3 11  1  0  0  0  0
  4  5  1  0  0  0  0
  4  6  1  0  0  0  0
  4 12  1  0  0  0  0
  7 13  1  0  0  0  0
  8 13  1  0  0  0  0
  9 13  2  0  0  0  0
 10 13  2  0  0  0  0
  1 14  1  0  0  0  0
  1 15  1  0  0  0  0
  2 16  1  0  0  0  0
  2 17  1  0  0  0  0
  3 18  1  0  0  0  0
  5 19  1  0  0  0  0
  5 20  1  0  0  0  0
  5 21  1  0  0  0  0
  6 22  1  0  0  0  0
  6 23  1  0  0  0  0
  6 24  1  0  0  0  0
  7 25  1  0  0  0  0
  7 26  1  0  0  0  0
  8 27  1  0  0  0  0
  8 28  1  0  0  0  0
M  END
> <Mol Weight>
209,26

> <Formula>
C7H15NO4S

> <ID>
EN300-7541564

> <name>
Sulfonamides

> <LogP>
-0,89

> <ROCS_ShapeQuery>
x0446_0A_x1080_0A_x0929_0A_x0812_0A_x0719_0A_x1140_0A_x0528_0A_x0310_0A

> <ROCS_TanimotoCombo>
0.349 

> <ROCS_ShapeTanimoto>
0.172 

> <ROCS_ColorTanimoto>
0.177 

> <ROCS_RefTversky>
0.161 

> <ROCS_RefColorTversky>
0.186 

> <ROCS_RefTverskyCombo>
0.347 

> <ROCS_FitTversky>
1.688 

> <ROCS_FitColorTversky>
0.781 

> <ROCS_FitTverskyCombo>
2.468 

> <ROCS_ColorScore>
-6.646

> <ROCS_Overlap>
1896.292

> <ROCS_Rank>
153                 

$$$$
untitled-dbase-2638_228
  -OEChem-02082415043D

 28 28  0     0  0  0  0  0  0999 V2000
    9.9518   10.9400   22.7794 C   0  0  0  0  0  0  0  0  0  0  0  0
    9.0630   10.1462   23.5043 C   0  0  0  0  0  0  0  0  0  0  0  0
    8.8169   12.9245   23.5607 C   0  0  0  0  0  0  0  0  0  0  0  0
    9.8289   12.3291   22.8077 C   0  0  0  0  0  0  0  0  0  0  0  0
    8.0510   10.7416   24.2574 C   0  0  0  0  0  0  0  0  0  0  0  0
    7.9280   12.1308   24.2856 C   0  0  0  0  0  0  0  0  0  0  0  0
   10.4398   14.3664   21.5274 C   0  0  0  0  0  0  0  0  0  0  0  0
    6.0104    9.5207   24.2867 C   0  0  0  0  0  0  0  0  0  0  0  0
   11.6387   14.9413   20.8094 C   0  0  0  0  0  0  0  0  0  0  0  0
    7.4612   13.1065   26.7218 N   0  0  0  0  0  0  0  0  0  0  0  0
   10.7185   13.1228   22.0825 N   0  0  0  0  0  0  0  0  0  0  0  0
    9.3788   14.9842   21.5498 O   0  0  0  0  0  0  0  0  0  0  0  0
    6.4062   14.2112   24.6452 O   0  0  0  0  0  0  0  0  0  0  0  0
    5.5781   11.9530   25.3951 O   0  0  0  0  0  0  0  0  0  0  0  0
    7.1941    9.9468   24.9581 O   0  0  0  0  0  0  0  0  0  0  0  0
    6.6681   12.9016   25.2230 S   0  0  0  0  0  0  0  0  0  0  0  0
   11.0407   15.9611   19.4910 Cl  0  0  0  0  0  0  0  0  0  0  0  0
   10.7372   10.4657   22.1963 H   0  0  0  0  0  0  0  0  0  0  0  0
    9.1636    9.0646   23.4782 H   0  0  0  0  0  0  0  0  0  0  0  0
    8.7219   14.0079   23.5826 H   0  0  0  0  0  0  0  0  0  0  0  0
    5.4162    8.8942   24.9565 H   0  0  0  0  0  0  0  0  0  0  0  0
    6.2816    8.9585   23.3896 H   0  0  0  0  0  0  0  0  0  0  0  0
    5.4277   10.3997   24.0013 H   0  0  0  0  0  0  0  0  0  0  0  0
   12.2914   14.1708   20.3912 H   0  0  0  0  0  0  0  0  0  0  0  0
   12.2180   15.5570   21.5032 H   0  0  0  0  0  0  0  0  0  0  0  0
    7.6386   12.2698   27.2908 H   0  0  0  0  0  0  0  0  0  0  0  0
    8.2039   13.8138   26.7808 H   0  0  0  0  0  0  0  0  0  0  0  0
   11.6590   12.7570   21.9473 H   0  0  0  0  0  0  0  0  0  0  0  0
  1  2  2  0  0  0  0
  1  4  1  0  0  0  0
  2  5  1  0  0  0  0
  3  4  2  0  0  0  0
  3  6  1  0  0  0  0
  4 11  1  0  0  0  0
  5  6  2  0  0  0  0
  5 15  1  0  0  0  0
  6 16  1  0  0  0  0
  7  9  1  0  0  0  0
  7 11  1  0  0  0  0
  7 12  2  0  0  0  0
  8 15  1  0  0  0  0
  9 17  1  0  0  0  0
 10 16  1  0  0  0  0
 13 16  2  0  0  0  0
 14 16  2  0  0  0  0
  1 18  1  0  0  0  0
  2 19  1  0  0  0  0
  3 20  1  0  0  0  0
  8 21  1  0  0  0  0
  8 22  1  0  0  0  0
  8 23  1  0  0  0  0
  9 24  1  0  0  0  0
  9 25  1  0  0  0  0
 10 26  1  0  0  0  0
 10 27  1  0  0  0  0
 11 28  1  0  0  0  0
M  END
> <Mol Weight>
278,71

> <Formula>
C9H11ClN2O4S

> <ID>
EN300-10937

> <name>
Sulfonamides

> <LogP>
0,20

> <ROCS_ShapeQuery>
x0446_0A_x1080_0A_x0929_0A_x0812_0A_x0719_0A_x1140_0A_x0528_0A_x0310_0A

> <ROCS_TanimotoCombo>
0.349 

> <ROCS_ShapeTanimoto>
0.210 

> <ROCS_ColorTanimoto>
0.139 

> <ROCS_RefTversky>
0.193 

> <ROCS_RefColorTversky>
0.151 

> <ROCS_RefTverskyCombo>
0.344 

> <ROCS_FitTversky>
1.753 

> <ROCS_FitColorTversky>
0.632 

> <ROCS_FitTverskyCombo>
2.385 

> <ROCS_ColorScore>
-5.384

> <ROCS_Overlap>
2276.430

> <ROCS_Rank>
154                 

$$$$
untitled-dbase-721_28
  -OEChem-02082415043D

 25 25  0     1  0  0  0  0  0999 V2000
    8.4331   10.2908   25.1274 C   0  0  0  0  0  0  0  0  0  0  0  0
    9.4960   11.3705   25.2177 C   0  0  0  0  0  0  0  0  0  0  0  0
    8.1304   10.7380   22.8446 C   0  0  0  0  0  0  0  0  0  0  0  0
    9.1858   11.8517   22.8873 C   0  0  1  0  0  0  0  0  0  0  0  0
   10.5567   11.3534   22.4074 C   0  0  0  0  0  0  0  0  0  0  0  0
    8.7417   13.0177   21.9983 C   0  0  0  0  0  0  0  0  0  0  0  0
   11.0801   13.7075   20.9460 N   0  0  0  0  0  0  0  0  0  0  0  0
    9.3173   15.5089   21.4602 O   0  0  0  0  0  0  0  0  0  0  0  0
   10.5141   14.3631   23.3681 O   0  0  0  0  0  0  0  0  0  0  0  0
    8.4266    9.7301   23.8142 O   0  0  0  0  0  0  0  0  0  0  0  0
    9.2765   12.3723   24.2242 O   0  0  0  0  0  0  0  0  0  0  0  0
    9.9204   14.3173   22.0396 S   0  0  0  0  0  0  0  0  0  0  0  0
    8.6169    9.4910   25.8542 H   0  0  0  0  0  0  0  0  0  0  0  0
    7.4426   10.7107   25.3261 H   0  0  0  0  0  0  0  0  0  0  0  0
    9.5070   11.8378   26.2074 H   0  0  0  0  0  0  0  0  0  0  0  0
   10.4874   10.9391   25.0481 H   0  0  0  0  0  0  0  0  0  0  0  0
    7.1317   11.1323   23.0604 H   0  0  0  0  0  0  0  0  0  0  0  0
    8.0924   10.2614   21.8569 H   0  0  0  0  0  0  0  0  0  0  0  0
   11.2761   12.1673   22.4517 H   0  0  0  0  0  0  0  0  0  0  0  0
   10.4770   10.9982   21.3831 H   0  0  0  0  0  0  0  0  0  0  0  0
   10.8927   10.5402   23.0460 H   0  0  0  0  0  0  0  0  0  0  0  0
    7.7939   13.4105   22.3525 H   0  0  0  0  0  0  0  0  0  0  0  0
    8.6459   12.6815   20.9708 H   0  0  0  0  0  0  0  0  0  0  0  0
   11.1627   14.1698   20.0322 H   0  0  0  0  0  0  0  0  0  0  0  0
   11.9776   13.3892   21.3316 H   0  0  0  0  0  0  0  0  0  0  0  0
  1  2  1  0  0  0  0
  1 10  1  0  0  0  0
  2 11  1  0  0  0  0
  3  4  1  0  0  0  0
  3 10  1  0  0  0  0
  4  5  1  0  0  0  0
  4  6  1  0  0  0  0
  4 11  1  0  0  0  0
  6 12  1  0  0  0  0
  7 12  1  0  0  0  0
  8 12  2  0  0  0  0
  9 12  2  0  0  0  0
  1 13  1  0  0  0  0
  1 14  1  0  0  0  0
  2 15  1  0  0  0  0
  2 16  1  0  0  0  0
  3 17  1  0  0  0  0
  3 18  1  0  0  0  0
  5 19  1  0  0  0  0
  5 20  1  0  0  0  0
  5 21  1  0  0  0  0
  6 22  1  0  0  0  0
  6 23  1  0  0  0  0
  7 24  1  0  0  0  0
  7 25  1  0  0  0  0
M  END
> <Mol Weight>
195,23

> <Formula>
C6H13NO4S

> <ID>
EN300-761136

> <name>
Sulfonamides

> <LogP>
-1,31

> <ROCS_ShapeQuery>
x0446_0A_x1080_0A_x0929_0A_x0812_0A_x0719_0A_x1140_0A_x0528_0A_x0310_0A

> <ROCS_TanimotoCombo>
0.349 

> <ROCS_ShapeTanimoto>
0.160 

> <ROCS_ColorTanimoto>
0.189 

> <ROCS_RefTversky>
0.151 

> <ROCS_RefColorTversky>
0.192 

> <ROCS_RefTverskyCombo>
0.343 

> <ROCS_FitTversky>
1.638 

> <ROCS_FitColorTversky>
0.906 

> <ROCS_FitTverskyCombo>
2.545 

> <ROCS_ColorScore>
-6.854

> <ROCS_Overlap>
1780.223

> <ROCS_Rank>
155                 

$$$$
untitled-dbase-2374_454
  -OEChem-02082415043D

 30 30  0     0  0  0  0  0  0999 V2000
    9.2463   10.5682   22.8619 C   0  0  0  0  0  0  0  0  0  0  0  0
    9.8256   11.7291   22.3498 C   0  0  0  0  0  0  0  0  0  0  0  0
    8.5102   13.0597   23.8784 C   0  0  0  0  0  0  0  0  0  0  0  0
    7.9309   11.8987   24.3905 C   0  0  0  0  0  0  0  0  0  0  0  0
    8.2989   10.6530   23.8822 C   0  0  0  0  0  0  0  0  0  0  0  0
    9.4576   12.9749   22.8581 C   0  0  0  0  0  0  0  0  0  0  0  0
    6.9440   12.0092   25.4557 C   0  0  0  0  0  0  0  0  0  0  0  0
    9.8093    8.5699   25.1368 C   0  0  0  0  0  0  0  0  0  0  0  0
    6.5941   12.7750   27.6863 C   0  0  0  0  0  0  0  0  0  0  0  0
    8.5500    8.3311   24.3313 C   0  0  0  0  0  0  0  0  0  0  0  0
   11.2313   13.7744   21.0362 N   0  0  0  0  0  0  0  0  0  0  0  0
    5.7764   11.6097   25.3700 O   0  0  0  0  0  0  0  0  0  0  0  0
    9.1469   15.2022   21.5481 O   0  0  0  0  0  0  0  0  0  0  0  0
   10.9854   15.0451   23.2637 O   0  0  0  0  0  0  0  0  0  0  0  0
    7.7444    9.5071   24.3691 O   0  0  0  0  0  0  0  0  0  0  0  0
    7.4700   12.6097   26.5660 O   0  0  0  0  0  0  0  0  0  0  0  0
   10.1832   14.4278   22.2167 S   0  0  0  0  0  0  0  0  0  0  0  0
    9.5376    9.6010   22.4612 H   0  0  0  0  0  0  0  0  0  0  0  0
   10.5625   11.6515   21.5549 H   0  0  0  0  0  0  0  0  0  0  0  0
    8.2241   14.0316   24.2741 H   0  0  0  0  0  0  0  0  0  0  0  0
   10.3860    9.4013   24.7221 H   0  0  0  0  0  0  0  0  0  0  0  0
    9.5634    8.7955   26.1797 H   0  0  0  0  0  0  0  0  0  0  0  0
   10.4379    7.6733   25.1448 H   0  0  0  0  0  0  0  0  0  0  0  0
    7.1327   13.2639   28.5018 H   0  0  0  0  0  0  0  0  0  0  0  0
    6.2283   11.7978   28.0112 H   0  0  0  0  0  0  0  0  0  0  0  0
    5.7477   13.3977   27.3869 H   0  0  0  0  0  0  0  0  0  0  0  0
    7.9779    7.4984   24.7512 H   0  0  0  0  0  0  0  0  0  0  0  0
    8.7974    8.1067   23.2894 H   0  0  0  0  0  0  0  0  0  0  0  0
   10.9868   13.9085   20.0474 H   0  0  0  0  0  0  0  0  0  0  0  0
   12.2415   13.8001   21.2212 H   0  0  0  0  0  0  0  0  0  0  0  0
  1  2  2  0  0  0  0
  1  5  1  0  0  0  0
  2  6  1  0  0  0  0
  3  4  1  0  0  0  0
  3  6  2  0  0  0  0
  4  5  2  0  0  0  0
  4  7  1  0  0  0  0
  5 15  1  0  0  0  0
  6 17  1  0  0  0  0
  7 12  2  0  0  0  0
  7 16  1  0  0  0  0
  8 10  1  0  0  0  0
  9 16  1  0  0  0  0
 10 15  1  0  0  0  0
 11 17  1  0  0  0  0
 13 17  2  0  0  0  0
 14 17  2  0  0  0  0
  1 18  1  0  0  0  0
  2 19  1  0  0  0  0
  3 20  1  0  0  0  0
  8 21  1  0  0  0  0
  8 22  1  0  0  0  0
  8 23  1  0  0  0  0
  9 24  1  0  0  0  0
  9 25  1  0  0  0  0
  9 26  1  0  0  0  0
 10 27  1  0  0  0  0
 10 28  1  0  0  0  0
 11 29  1  0  0  0  0
 11 30  1  0  0  0  0
M  END
> <Mol Weight>
259,28

> <Formula>
C10H13NO5S

> <ID>
EN300-6734083

> <name>
Sulfonamides

> <LogP>
0,78

> <ROCS_ShapeQuery>
x0446_0A_x1080_0A_x0929_0A_x0812_0A_x0719_0A_x1140_0A_x0528_0A_x0310_0A

> <ROCS_TanimotoCombo>
0.349 

> <ROCS_ShapeTanimoto>
0.197 

> <ROCS_ColorTanimoto>
0.152 

> <ROCS_RefTversky>
0.183 

> <ROCS_RefColorTversky>
0.160 

> <ROCS_RefTverskyCombo>
0.343 

> <ROCS_FitTversky>
1.653 

> <ROCS_FitColorTversky>
0.753 

> <ROCS_FitTverskyCombo>
2.406 

> <ROCS_ColorScore>
-5.694

> <ROCS_Overlap>
2158.729

> <ROCS_Rank>
156                 

$$$$
untitled-dbase-2564_65
  -OEChem-02082415043D

 34 34  0     0  0  0  0  0  0999 V2000
    8.9035   10.0635   23.6946 C   0  0  0  0  0  0  0  0  0  0  0  0
    9.8226   10.8065   22.9538 C   0  0  0  0  0  0  0  0  0  0  0  0
    7.9033   10.7129   24.4182 C   0  0  0  0  0  0  0  0  0  0  0  0
    8.7414   12.8483   23.6604 C   0  0  0  0  0  0  0  0  0  0  0  0
    9.7416   12.1989   22.9368 C   0  0  0  0  0  0  0  0  0  0  0  0
    7.8223   12.1053   24.4012 C   0  0  0  0  0  0  0  0  0  0  0  0
   10.4822   14.1773   21.5772 C   0  0  0  0  0  0  0  0  0  0  0  0
   11.9469   16.5344   22.2686 C   0  0  0  0  0  0  0  0  0  0  0  0
   13.2264   16.1395   20.1435 C   0  0  0  0  0  0  0  0  0  0  0  0
   10.7569   16.5880   20.0515 C   0  0  0  0  0  0  0  0  0  0  0  0
   11.8892   15.9524   20.8570 C   0  0  0  0  0  0  0  0  0  0  0  0
    7.3523   13.1445   26.8103 N   0  0  0  0  0  0  0  0  0  0  0  0
   10.6727   12.9520   22.1859 N   0  0  0  0  0  0  0  0  0  0  0  0
    9.4642   14.8586   21.5657 O   0  0  0  0  0  0  0  0  0  0  0  0
    6.3344   14.2196   24.6999 O   0  0  0  0  0  0  0  0  0  0  0  0
    5.4604   11.9939   25.4936 O   0  0  0  0  0  0  0  0  0  0  0  0
   11.6459   14.5485   20.9538 O   0  0  0  0  0  0  0  0  0  0  0  0
    6.5708   12.9176   25.3078 S   0  0  0  0  0  0  0  0  0  0  0  0
    8.9659    8.9793   23.7076 H   0  0  0  0  0  0  0  0  0  0  0  0
   10.5973   10.2895   22.3932 H   0  0  0  0  0  0  0  0  0  0  0  0
    7.1926   10.1245   24.9924 H   0  0  0  0  0  0  0  0  0  0  0  0
    8.6775   13.9342   23.6475 H   0  0  0  0  0  0  0  0  0  0  0  0
   10.9889   16.4021   22.7841 H   0  0  0  0  0  0  0  0  0  0  0  0
   12.7323   16.0622   22.8678 H   0  0  0  0  0  0  0  0  0  0  0  0
   12.1357   17.6136   22.2392 H   0  0  0  0  0  0  0  0  0  0  0  0
   13.1896   15.7234   19.1303 H   0  0  0  0  0  0  0  0  0  0  0  0
   14.0267   15.6048   20.6679 H   0  0  0  0  0  0  0  0  0  0  0  0
   13.5031   17.1965   20.0744 H   0  0  0  0  0  0  0  0  0  0  0  0
   10.7153   16.1707   19.0389 H   0  0  0  0  0  0  0  0  0  0  0  0
    9.7846   16.4317   20.5298 H   0  0  0  0  0  0  0  0  0  0  0  0
   10.9186   17.6658   19.9354 H   0  0  0  0  0  0  0  0  0  0  0  0
    7.5090   12.3190   27.4015 H   0  0  0  0  0  0  0  0  0  0  0  0
    8.1057   13.8409   26.8615 H   0  0  0  0  0  0  0  0  0  0  0  0
   11.5972   12.5410   22.0809 H   0  0  0  0  0  0  0  0  0  0  0  0
  1  2  2  0  0  0  0
  1  3  1  0  0  0  0
  2  5  1  0  0  0  0
  3  6  2  0  0  0  0
  4  5  2  0  0  0  0
  4  6  1  0  0  0  0
  5 13  1  0  0  0  0
  6 18  1  0  0  0  0
  7 13  1  0  0  0  0
  7 14  2  0  0  0  0
  7 17  1  0  0  0  0
  8 11  1  0  0  0  0
  9 11  1  0  0  0  0
 10 11  1  0  0  0  0
 11 17  1  0  0  0  0
 12 18  1  0  0  0  0
 15 18  2  0  0  0  0
 16 18  2  0  0  0  0
  1 19  1  0  0  0  0
  2 20  1  0  0  0  0
  3 21  1  0  0  0  0
  4 22  1  0  0  0  0
  8 23  1  0  0  0  0
  8 24  1  0  0  0  0
  8 25  1  0  0  0  0
  9 26  1  0  0  0  0
  9 27  1  0  0  0  0
  9 28  1  0  0  0  0
 10 29  1  0  0  0  0
 10 30  1  0  0  0  0
 10 31  1  0  0  0  0
 12 32  1  0  0  0  0
 12 33  1  0  0  0  0
 13 34  1  0  0  0  0
M  END
> <Mol Weight>
272,32

> <Formula>
C11H16N2O4S

> <ID>
EN300-1878313

> <name>
Sulfonamides

> <LogP>
1,49

> <ROCS_ShapeQuery>
x0446_0A_x1080_0A_x0929_0A_x0812_0A_x0719_0A_x1140_0A_x0528_0A_x0310_0A

> <ROCS_TanimotoCombo>
0.349 

> <ROCS_ShapeTanimoto>
0.213 

> <ROCS_ColorTanimoto>
0.136 

> <ROCS_RefTversky>
0.195 

> <ROCS_RefColorTversky>
0.148 

> <ROCS_RefTverskyCombo>
0.344 

> <ROCS_FitTversky>
1.711 

> <ROCS_FitColorTversky>
0.622 

> <ROCS_FitTverskyCombo>
2.333 

> <ROCS_ColorScore>
-5.294

> <ROCS_Overlap>
2306.387

> <ROCS_Rank>
157                 

$$$$
untitled-dbase-2788_120
  -OEChem-02082415043D

 31 32  0     0  0  0  0  0  0999 V2000
   12.9282   14.8641   18.7782 C   0  0  0  0  0  0  0  0  0  0  0  0
   13.8755   15.6617   19.4202 C   0  0  0  0  0  0  0  0  0  0  0  0
    8.9208   10.0764   23.6933 C   0  0  0  0  0  0  0  0  0  0  0  0
   11.8231   14.3887   19.4841 C   0  0  0  0  0  0  0  0  0  0  0  0
    9.8424   10.8206   22.9569 C   0  0  0  0  0  0  0  0  0  0  0  0
   13.7177   15.9837   20.7682 C   0  0  0  0  0  0  0  0  0  0  0  0
    7.9149   10.7242   24.4103 C   0  0  0  0  0  0  0  0  0  0  0  0
    8.7523   12.8607   23.6546 C   0  0  0  0  0  0  0  0  0  0  0  0
   11.6653   14.7107   20.8321 C   0  0  0  0  0  0  0  0  0  0  0  0
    9.7582   12.2128   22.9376 C   0  0  0  0  0  0  0  0  0  0  0  0
   12.6126   15.5082   21.4742 C   0  0  0  0  0  0  0  0  0  0  0  0
    7.8306   12.1164   24.3910 C   0  0  0  0  0  0  0  0  0  0  0  0
   10.5115   14.2129   21.5644 C   0  0  0  0  0  0  0  0  0  0  0  0
    7.3442   13.1576   26.7960 N   0  0  0  0  0  0  0  0  0  0  0  0
   10.6947   12.9694   22.1889 N   0  0  0  0  0  0  0  0  0  0  0  0
    9.4414   14.8362   21.5954 O   0  0  0  0  0  0  0  0  0  0  0  0
    6.3360   14.2275   24.6784 O   0  0  0  0  0  0  0  0  0  0  0  0
    5.4627   12.0007   25.4698 O   0  0  0  0  0  0  0  0  0  0  0  0
   12.4719   15.8242   22.7696 F   0  0  0  0  0  0  0  0  0  0  0  0
    6.5720   12.9268   25.2893 S   0  0  0  0  0  0  0  0  0  0  0  0
   13.0512   14.6132   17.7288 H   0  0  0  0  0  0  0  0  0  0  0  0
   14.7359   16.0320   18.8705 H   0  0  0  0  0  0  0  0  0  0  0  0
    8.9858    8.9923   23.7081 H   0  0  0  0  0  0  0  0  0  0  0  0
   11.0914   13.7682   18.9731 H   0  0  0  0  0  0  0  0  0  0  0  0
   10.6216   10.3047   22.4015 H   0  0  0  0  0  0  0  0  0  0  0  0
   14.4551   16.6047   21.2682 H   0  0  0  0  0  0  0  0  0  0  0  0
    7.2023   10.1349   24.9811 H   0  0  0  0  0  0  0  0  0  0  0  0
    8.6858   13.9464   23.6399 H   0  0  0  0  0  0  0  0  0  0  0  0
    7.4995   12.3333   27.3892 H   0  0  0  0  0  0  0  0  0  0  0  0
    8.0956   13.8559   26.8506 H   0  0  0  0  0  0  0  0  0  0  0  0
   11.6195   12.5576   22.0918 H   0  0  0  0  0  0  0  0  0  0  0  0
  1  2  1  0  0  0  0
  1  4  2  0  0  0  0
  2  6  2  0  0  0  0
  3  5  1  0  0  0  0
  3  7  2  0  0  0  0
  4  9  1  0  0  0  0
  5 10  2  0  0  0  0
  6 11  1  0  0  0  0
  7 12  1  0  0  0  0
  8 10  1  0  0  0  0
  8 12  2  0  0  0  0
  9 11  2  0  0  0  0
  9 13  1  0  0  0  0
 10 15  1  0  0  0  0
 11 19  1  0  0  0  0
 12 20  1  0  0  0  0
 13 15  1  0  0  0  0
 13 16  2  0  0  0  0
 14 20  1  0  0  0  0
 17 20  2  0  0  0  0
 18 20  2  0  0  0  0
  1 21  1  0  0  0  0
  2 22  1  0  0  0  0
  3 23  1  0  0  0  0
  4 24  1  0  0  0  0
  5 25  1  0  0  0  0
  6 26  1  0  0  0  0
  7 27  1  0  0  0  0
  8 28  1  0  0  0  0
 14 29  1  0  0  0  0
 14 30  1  0  0  0  0
 15 31  1  0  0  0  0
M  END
> <Mol Weight>
294,30

> <Formula>
C13H11FN2O3S

> <ID>
EN300-26177738

> <name>
Sulfonamides

> <LogP>
1,81

> <ROCS_ShapeQuery>
x0446_0A_x1080_0A_x0929_0A_x0812_0A_x0719_0A_x1140_0A_x0528_0A_x0310_0A

> <ROCS_TanimotoCombo>
0.349 

> <ROCS_ShapeTanimoto>
0.213 

> <ROCS_ColorTanimoto>
0.136 

> <ROCS_RefTversky>
0.197 

> <ROCS_RefColorTversky>
0.148 

> <ROCS_RefTverskyCombo>
0.345 

> <ROCS_FitTversky>
1.598 

> <ROCS_FitColorTversky>
0.620 

> <ROCS_FitTverskyCombo>
2.218 

> <ROCS_ColorScore>
-5.278

> <ROCS_Overlap>
2329.087

> <ROCS_Rank>
158                 

$$$$
untitled-dbase-2319_2
  -OEChem-02082415043D

 21 21  0     0  0  0  0  0  0999 V2000
    9.6902   10.0999   23.3372 C   0  0  0  0  0  0  0  0  0  0  0  0
    8.7296    9.6712   24.2532 C   0  0  0  0  0  0  0  0  0  0  0  0
    9.7662   11.4475   22.9854 C   0  0  0  0  0  0  0  0  0  0  0  0
    7.8448   10.5902   24.8173 C   0  0  0  0  0  0  0  0  0  0  0  0
    8.8814   12.3665   23.5496 C   0  0  0  0  0  0  0  0  0  0  0  0
    7.9207   11.9378   24.4656 C   0  0  0  0  0  0  0  0  0  0  0  0
    7.6668   13.5464   26.5757 N   0  0  0  0  0  0  0  0  0  0  0  0
    6.6696   14.2135   24.2940 O   0  0  0  0  0  0  0  0  0  0  0  0
    5.6110   12.3378   25.6012 O   0  0  0  0  0  0  0  0  0  0  0  0
    7.7180   13.4654   21.0159 O   0  0  0  0  0  0  0  0  0  0  0  0
    8.8597   15.6481   21.6229 O   0  0  0  0  0  0  0  0  0  0  0  0
    8.9737   13.6779   23.1916 O   0  0  0  0  0  0  0  0  0  0  0  0
   10.1087   13.7222   20.8976 F   0  0  0  0  0  0  0  0  0  0  0  0
    6.7976   13.0700   25.1848 S   0  0  0  0  0  0  0  0  0  0  0  0
    8.7940   14.2005   21.6506 S   0  0  0  0  0  0  0  0  0  0  0  0
   10.3789    9.3841   22.8980 H   0  0  0  0  0  0  0  0  0  0  0  0
    8.6710    8.6218   24.5270 H   0  0  0  0  0  0  0  0  0  0  0  0
   10.5174   11.7739   22.2712 H   0  0  0  0  0  0  0  0  0  0  0  0
    7.1008   10.2443   25.5298 H   0  0  0  0  0  0  0  0  0  0  0  0
    8.0572   14.4965   26.5975 H   0  0  0  0  0  0  0  0  0  0  0  0
    7.3343   13.2132   27.4888 H   0  0  0  0  0  0  0  0  0  0  0  0
  1  2  1  0  0  0  0
  1  3  2  0  0  0  0
  2  4  2  0  0  0  0
  3  5  1  0  0  0  0
  4  6  1  0  0  0  0
  5  6  2  0  0  0  0
  5 12  1  0  0  0  0
  6 14  1  0  0  0  0
  7 14  1  0  0  0  0
  8 14  2  0  0  0  0
  9 14  2  0  0  0  0
 10 15  2  0  0  0  0
 11 15  2  0  0  0  0
 12 15  1  0  0  0  0
 13 15  1  0  0  0  0
  1 16  1  0  0  0  0
  2 17  1  0  0  0  0
  3 18  1  0  0  0  0
  4 19  1  0  0  0  0
  7 20  1  0  0  0  0
  7 21  1  0  0  0  0
M  END
> <Mol Weight>
255,23

> <Formula>
C6H6FNO5S2

> <ID>
EN300-7489962

> <name>
Sulfonamides

> <LogP>
0,28

> <ROCS_ShapeQuery>
x0446_0A_x1080_0A_x0929_0A_x0812_0A_x0719_0A_x1140_0A_x0528_0A_x0310_0A

> <ROCS_TanimotoCombo>
0.348 

> <ROCS_ShapeTanimoto>
0.200 

> <ROCS_ColorTanimoto>
0.148 

> <ROCS_RefTversky>
0.184 

> <ROCS_RefColorTversky>
0.157 

> <ROCS_RefTverskyCombo>
0.340 

> <ROCS_FitTversky>
1.787 

> <ROCS_FitColorTversky>
0.738 

> <ROCS_FitTverskyCombo>
2.525 

> <ROCS_ColorScore>
-5.585

> <ROCS_Overlap>
2166.921

> <ROCS_Rank>
159                 

$$$$
untitled-dbase-2769_14
  -OEChem-02082415043D

 43 43  0     1  0  0  0  0  0999 V2000
   11.3493   13.5381   23.0370 C   0  0  0  0  0  0  0  0  0  0  0  0
    8.6574    9.5626   24.3882 C   0  0  0  0  0  0  0  0  0  0  0  0
    7.2868   10.0329   23.9128 C   0  0  0  0  0  0  0  0  0  0  0  0
    9.7798   10.2399   23.6084 C   0  0  0  0  0  0  0  0  0  0  0  0
    7.1641   11.5519   23.9803 C   0  0  0  0  0  0  0  0  0  0  0  0
    9.6677   11.7658   23.6627 C   0  0  2  0  0  0  0  0  0  0  0  0
    8.2855   12.2487   23.2045 C   0  0  2  0  0  0  0  0  0  0  0  0
   13.7735   14.9739   23.4974 C   0  0  0  0  0  0  0  0  0  0  0  0
   13.9589   15.0959   20.9954 C   0  0  0  0  0  0  0  0  0  0  0  0
   12.0146   16.1787   22.1597 C   0  0  0  0  0  0  0  0  0  0  0  0
    7.1620   16.1397   22.9012 C   0  0  0  0  0  0  0  0  0  0  0  0
   12.9994   15.0106   22.1805 C   0  0  0  0  0  0  0  0  0  0  0  0
   10.7204   12.3410   22.7846 N   0  0  0  0  0  0  0  0  0  0  0  0
    8.1694   13.7147   23.4309 N   0  0  0  0  0  0  0  0  0  0  0  0
   11.1358   14.2761   23.9933 O   0  0  0  0  0  0  0  0  0  0  0  0
    6.8636   14.1392   21.2400 O   0  0  0  0  0  0  0  0  0  0  0  0
    9.1585   15.1340   21.5566 O   0  0  0  0  0  0  0  0  0  0  0  0
   12.2617   13.7900   22.0513 O   0  0  0  0  0  0  0  0  0  0  0  0
    7.8765   14.7239   22.0968 S   0  0  0  0  0  0  0  0  0  0  0  0
    8.7689    9.7803   25.4553 H   0  0  0  0  0  0  0  0  0  0  0  0
    8.7309    8.4754   24.2753 H   0  0  0  0  0  0  0  0  0  0  0  0
    7.1212    9.6962   22.8842 H   0  0  0  0  0  0  0  0  0  0  0  0
    6.5082    9.5696   24.5287 H   0  0  0  0  0  0  0  0  0  0  0  0
   10.7388    9.9394   24.0394 H   0  0  0  0  0  0  0  0  0  0  0  0
    9.7794    9.8890   22.5739 H   0  0  0  0  0  0  0  0  0  0  0  0
    6.2026   11.8457   23.5528 H   0  0  0  0  0  0  0  0  0  0  0  0
    7.1647   11.8700   25.0244 H   0  0  0  0  0  0  0  0  0  0  0  0
    9.8995   12.1132   24.6542 H   0  0  0  0  0  0  0  0  0  0  0  0
    8.1501   12.0790   22.1369 H   0  0  0  0  0  0  0  0  0  0  0  0
   13.0883   14.9127   24.3505 H   0  0  0  0  0  0  0  0  0  0  0  0
   14.4580   14.1205   23.5393 H   0  0  0  0  0  0  0  0  0  0  0  0
   14.3561   15.8921   23.6342 H   0  0  0  0  0  0  0  0  0  0  0  0
   13.4078   15.1225   20.0484 H   0  0  0  0  0  0  0  0  0  0  0  0
   14.6050   14.2116   20.9519 H   0  0  0  0  0  0  0  0  0  0  0  0
   14.5933   15.9863   21.0525 H   0  0  0  0  0  0  0  0  0  0  0  0
   11.4593   16.2053   21.2152 H   0  0  0  0  0  0  0  0  0  0  0  0
   11.2948   16.1141   22.9821 H   0  0  0  0  0  0  0  0  0  0  0  0
   12.5436   17.1357   22.2344 H   0  0  0  0  0  0  0  0  0  0  0  0
    6.9211   16.8832   22.1398 H   0  0  0  0  0  0  0  0  0  0  0  0
    6.2586   15.8199   23.4228 H   0  0  0  0  0  0  0  0  0  0  0  0
    7.8911   16.5385   23.6080 H   0  0  0  0  0  0  0  0  0  0  0  0
   10.9888   11.8240   21.9565 H   0  0  0  0  0  0  0  0  0  0  0  0
    8.7929   14.0556   24.1639 H   0  0  0  0  0  0  0  0  0  0  0  0
  1 13  1  0  0  0  0
  1 15  2  0  0  0  0
  1 18  1  0  0  0  0
  2  3  1  0  0  0  0
  2  4  1  0  0  0  0
  3  5  1  0  0  0  0
  4  6  1  0  0  0  0
  5  7  1  0  0  0  0
  6  7  1  0  0  0  0
  6 13  1  6  0  0  0
  7 14  1  1  0  0  0
  8 12  1  0  0  0  0
  9 12  1  0  0  0  0
 10 12  1  0  0  0  0
 11 19  1  0  0  0  0
 12 18  1  0  0  0  0
 14 19  1  0  0  0  0
 16 19  2  0  0  0  0
 17 19  2  0  0  0  0
  2 20  1  0  0  0  0
  2 21  1  0  0  0  0
  3 22  1  0  0  0  0
  3 23  1  0  0  0  0
  4 24  1  0  0  0  0
  4 25  1  0  0  0  0
  5 26  1  0  0  0  0
  5 27  1  0  0  0  0
  6 28  1  0  0  0  0
  7 29  1  0  0  0  0
  8 30  1  0  0  0  0
  8 31  1  0  0  0  0
  8 32  1  0  0  0  0
  9 33  1  0  0  0  0
  9 34  1  0  0  0  0
  9 35  1  0  0  0  0
 10 36  1  0  0  0  0
 10 37  1  0  0  0  0
 10 38  1  0  0  0  0
 11 39  1  0  0  0  0
 11 40  1  0  0  0  0
 11 41  1  0  0  0  0
 13 42  1  0  0  0  0
 14 43  1  0  0  0  0
M  END
> <Mol Weight>
292,39

> <Formula>
C12H24N2O4S

> <ID>
EN300-332186

> <name>
Sulfonamides

> <LogP>
0,80

> <ROCS_ShapeQuery>
x0446_0A_x1080_0A_x0929_0A_x0812_0A_x0719_0A_x1140_0A_x0528_0A_x0310_0A

> <ROCS_TanimotoCombo>
0.348 

> <ROCS_ShapeTanimoto>
0.217 

> <ROCS_ColorTanimoto>
0.131 

> <ROCS_RefTversky>
0.199 

> <ROCS_RefColorTversky>
0.143 

> <ROCS_RefTverskyCombo>
0.343 

> <ROCS_FitTversky>
1.723 

> <ROCS_FitColorTversky>
0.601 

> <ROCS_FitTverskyCombo>
2.324 

> <ROCS_ColorScore>
-5.117

> <ROCS_Overlap>
2351.443

> <ROCS_Rank>
160                 

$$$$
untitled-dbase-1916_2
  -OEChem-02082415043D

 17 18  0     0  0  0  0  0  0999 V2000
    9.2830   10.8309   23.1628 C   0  0  0  0  0  0  0  0  0  0  0  0
    9.1136   12.1954   23.3334 C   0  0  0  0  0  0  0  0  0  0  0  0
    7.5567   11.0288   24.3440 C   0  0  0  0  0  0  0  0  0  0  0  0
    7.2374   13.3012   24.6529 C   0  0  0  0  0  0  0  0  0  0  0  0
    6.1937   12.8095   25.3422 C   0  0  0  0  0  0  0  0  0  0  0  0
    8.2975   10.1020   23.8027 N   0  0  0  0  0  0  0  0  0  0  0  0
    7.9927   12.2952   24.0991 N   0  0  0  0  0  0  0  0  0  0  0  0
   11.2666   12.8319   21.8965 N   0  0  0  0  0  0  0  0  0  0  0  0
    9.1739   14.3368   21.8556 O   0  0  0  0  0  0  0  0  0  0  0  0
   10.5920   14.2533   23.9364 O   0  0  0  0  0  0  0  0  0  0  0  0
    6.1202   11.0382   25.3204 S   0  0  0  0  0  0  0  0  0  0  0  0
   10.0208   13.5983   22.7741 S   0  0  0  0  0  0  0  0  0  0  0  0
   10.5340   10.0753   22.2842 Cl  0  0  0  0  0  0  0  0  0  0  0  0
    7.4949   14.3407   24.5192 H   0  0  0  0  0  0  0  0  0  0  0  0
    5.4568   13.4019   25.8656 H   0  0  0  0  0  0  0  0  0  0  0  0
   11.9870   12.3278   22.4278 H   0  0  0  0  0  0  0  0  0  0  0  0
   11.0201   12.3856   21.0046 H   0  0  0  0  0  0  0  0  0  0  0  0
  1  2  2  0  0  0  0
  1  6  1  0  0  0  0
  1 13  1  0  0  0  0
  2  7  1  0  0  0  0
  2 12  1  0  0  0  0
  3  6  2  0  0  0  0
  3  7  1  0  0  0  0
  3 11  1  0  0  0  0
  4  5  2  0  0  0  0
  4  7  1  0  0  0  0
  5 11  1  0  0  0  0
  8 12  1  0  0  0  0
  9 12  2  0  0  0  0
 10 12  2  0  0  0  0
  4 14  1  0  0  0  0
  5 15  1  0  0  0  0
  8 16  1  0  0  0  0
  8 17  1  0  0  0  0
M  END
> <Mol Weight>
237,68

> <Formula>
C5H4ClN3O2S2

> <ID>
EN300-271059

> <name>
Sulfonamides

> <LogP>
0,31

> <ROCS_ShapeQuery>
x0446_0A_x1080_0A_x0929_0A_x0812_0A_x0719_0A_x1140_0A_x0528_0A_x0310_0A

> <ROCS_TanimotoCombo>
0.348 

> <ROCS_ShapeTanimoto>
0.201 

> <ROCS_ColorTanimoto>
0.147 

> <ROCS_RefTversky>
0.183 

> <ROCS_RefColorTversky>
0.159 

> <ROCS_RefTverskyCombo>
0.343 

> <ROCS_FitTversky>
1.885 

> <ROCS_FitColorTversky>
0.664 

> <ROCS_FitTverskyCombo>
2.549 

> <ROCS_ColorScore>
-5.681

> <ROCS_Overlap>
2162.616

> <ROCS_Rank>
161                 

$$$$
untitled-dbase-2210_3
  -OEChem-02082415043D

 22 22  0     0  0  0  0  0  0999 V2000
    7.7509   10.7147   24.5887 C   0  0  0  0  0  0  0  0  0  0  0  0
    8.9217   10.0922   24.1559 C   0  0  0  0  0  0  0  0  0  0  0  0
    8.5829   12.8367   23.7876 C   0  0  0  0  0  0  0  0  0  0  0  0
    9.7538   12.2142   23.3548 C   0  0  0  0  0  0  0  0  0  0  0  0
    7.5815   12.0869   24.4045 C   0  0  0  0  0  0  0  0  0  0  0  0
    9.9232   10.8419   23.5390 C   0  0  0  0  0  0  0  0  0  0  0  0
   10.8031   13.0518   22.6981 C   0  0  0  0  0  0  0  0  0  0  0  0
   11.5208   14.1457   20.3874 N   0  0  0  0  0  0  0  0  0  0  0  0
    6.3890   12.7200   24.8447 N   0  3  0  0  0  0  0  0  0  0  0  0
    5.5007   12.0267   25.3968 O   0  5  0  0  0  0  0  0  0  0  0  0
    6.2560   13.9553   24.6692 O   0  0  0  0  0  0  0  0  0  0  0  0
    9.3906   12.7106   20.5266 O   0  0  0  0  0  0  0  0  0  0  0  0
    9.4248   14.9903   21.6163 O   0  0  0  0  0  0  0  0  0  0  0  0
   10.0986   13.7574   21.2445 S   0  0  0  0  0  0  0  0  0  0  0  0
   11.3572   10.0364   23.0155 Cl  0  0  0  0  0  0  0  0  0  0  0  0
    6.9780   10.1186   25.0677 H   0  0  0  0  0  0  0  0  0  0  0  0
    9.0377    9.0218   24.3066 H   0  0  0  0  0  0  0  0  0  0  0  0
    8.4536   13.9075   23.6432 H   0  0  0  0  0  0  0  0  0  0  0  0
   11.6756   12.4617   22.4000 H   0  0  0  0  0  0  0  0  0  0  0  0
   11.1412   13.8700   23.3423 H   0  0  0  0  0  0  0  0  0  0  0  0
   12.0936   14.9228   20.7391 H   0  0  0  0  0  0  0  0  0  0  0  0
   12.0701   13.3702   19.9968 H   0  0  0  0  0  0  0  0  0  0  0  0
  1  2  2  0  0  0  0
  1  5  1  0  0  0  0
  2  6  1  0  0  0  0
  3  4  1  0  0  0  0
  3  5  2  0  0  0  0
  4  6  2  0  0  0  0
  4  7  1  0  0  0  0
  5  9  1  0  0  0  0
  6 15  1  0  0  0  0
  7 14  1  0  0  0  0
  8 14  1  0  0  0  0
  9 10  1  0  0  0  0
  9 11  2  0  0  0  0
 12 14  2  0  0  0  0
 13 14  2  0  0  0  0
  1 16  1  0  0  0  0
  2 17  1  0  0  0  0
  3 18  1  0  0  0  0
  7 19  1  0  0  0  0
  7 20  1  0  0  0  0
  8 21  1  0  0  0  0
  8 22  1  0  0  0  0
M  CHG  2   9   1  10  -1
M  END
> <Mol Weight>
250,65

> <Formula>
C7H7ClN2O4S

> <ID>
EN300-274096

> <name>
Sulfonamides

> <LogP>
0,89

> <ROCS_ShapeQuery>
x0446_0A_x1080_0A_x0929_0A_x0812_0A_x0719_0A_x1140_0A_x0528_0A_x0310_0A

> <ROCS_TanimotoCombo>
0.348 

> <ROCS_ShapeTanimoto>
0.205 

> <ROCS_ColorTanimoto>
0.143 

> <ROCS_RefTversky>
0.187 

> <ROCS_RefColorTversky>
0.152 

> <ROCS_RefTverskyCombo>
0.340 

> <ROCS_FitTversky>
1.812 

> <ROCS_FitColorTversky>
0.715 

> <ROCS_FitTverskyCombo>
2.528 

> <ROCS_ColorScore>
-5.422

> <ROCS_Overlap>
2209.874

> <ROCS_Rank>
162                 

$$$$
untitled-dbase-2535_177
  -OEChem-02082415043D

 34 34  0     1  0  0  0  0  0999 V2000
    8.8385    9.7901   24.4611 C   0  0  0  0  0  0  0  0  0  0  0  0
    9.6083    9.5337   23.1703 C   0  0  0  0  0  0  0  0  0  0  0  0
    8.7870   11.2778   24.8057 C   0  0  0  0  0  0  0  0  0  0  0  0
    9.0550   10.3580   22.0092 C   0  0  0  0  0  0  0  0  0  0  0  0
    8.2643   12.1415   23.6500 C   0  0  1  0  0  0  0  0  0  0  0  0
    8.9987   11.8581   22.3282 C   0  0  1  0  0  0  0  0  0  0  0  0
    4.3186   12.8861   23.3998 C   0  0  0  0  0  0  0  0  0  0  0  0
   12.1052   14.3762   21.8770 C   0  0  0  0  0  0  0  0  0  0  0  0
    6.8366   11.9737   23.4849 N   0  0  0  0  0  0  0  0  0  0  0  0
   10.3311   12.4249   22.3515 N   0  0  0  0  0  0  0  0  0  0  0  0
    6.2598   14.3147   24.4202 O   0  0  0  0  0  0  0  0  0  0  0  0
    5.4914   12.2468   25.6406 O   0  0  0  0  0  0  0  0  0  0  0  0
   10.6072   14.3787   24.0232 O   0  0  0  0  0  0  0  0  0  0  0  0
    9.5303   14.7840   21.7799 O   0  0  0  0  0  0  0  0  0  0  0  0
    5.7851   12.9450   24.4038 S   0  0  0  0  0  0  0  0  0  0  0  0
   10.5066   14.0980   22.6044 S   0  0  0  0  0  0  0  0  0  0  0  0
    7.8204    9.3943   24.3649 H   0  0  0  0  0  0  0  0  0  0  0  0
    9.3104    9.2410   25.2840 H   0  0  0  0  0  0  0  0  0  0  0  0
   10.6694    9.7634   23.3230 H   0  0  0  0  0  0  0  0  0  0  0  0
    9.5534    8.4682   22.9185 H   0  0  0  0  0  0  0  0  0  0  0  0
    8.1592   11.4183   25.6941 H   0  0  0  0  0  0  0  0  0  0  0  0
    9.7951   11.6123   25.0803 H   0  0  0  0  0  0  0  0  0  0  0  0
    9.6759   10.1869   21.1213 H   0  0  0  0  0  0  0  0  0  0  0  0
    8.0490    9.9977   21.7615 H   0  0  0  0  0  0  0  0  0  0  0  0
    8.4327   13.2045   23.9270 H   0  0  0  0  0  0  0  0  0  0  0  0
    8.4516   12.3544   21.5022 H   0  0  0  0  0  0  0  0  0  0  0  0
    3.5448   13.4829   23.8852 H   0  0  0  0  0  0  0  0  0  0  0  0
    4.5574   13.2958   22.4172 H   0  0  0  0  0  0  0  0  0  0  0  0
    4.0017   11.8457   23.3139 H   0  0  0  0  0  0  0  0  0  0  0  0
   12.3475   15.4358   21.9728 H   0  0  0  0  0  0  0  0  0  0  0  0
   12.8367   13.7669   22.4098 H   0  0  0  0  0  0  0  0  0  0  0  0
   12.0599   14.0878   20.8257 H   0  0  0  0  0  0  0  0  0  0  0  0
    6.5605   11.0035   23.3135 H   0  0  0  0  0  0  0  0  0  0  0  0
   11.0276   11.8047   22.7726 H   0  0  0  0  0  0  0  0  0  0  0  0
  1  2  1  0  0  0  0
  1  3  1  0  0  0  0
  2  4  1  0  0  0  0
  3  5  1  0  0  0  0
  4  6  1  0  0  0  0
  5  6  1  0  0  0  0
  5  9  1  1  0  0  0
  6 10  1  6  0  0  0
  7 15  1  0  0  0  0
  8 16  1  0  0  0  0
  9 15  1  0  0  0  0
 10 16  1  0  0  0  0
 11 15  2  0  0  0  0
 12 15  2  0  0  0  0
 13 16  2  0  0  0  0
 14 16  2  0  0  0  0
  1 17  1  0  0  0  0
  1 18  1  0  0  0  0
  2 19  1  0  0  0  0
  2 20  1  0  0  0  0
  3 21  1  0  0  0  0
  3 22  1  0  0  0  0
  4 23  1  0  0  0  0
  4 24  1  0  0  0  0
  5 25  1  0  0  0  0
  6 26  1  0  0  0  0
  7 27  1  0  0  0  0
  7 28  1  0  0  0  0
  7 29  1  0  0  0  0
  8 30  1  0  0  0  0
  8 31  1  0  0  0  0
  8 32  1  0  0  0  0
  9 33  1  0  0  0  0
 10 34  1  0  0  0  0
M  END
> <Mol Weight>
270,36

> <Formula>
C8H18N2O4S2

> <ID>
EN300-19836555

> <name>
Sulfonamides

> <LogP>
-1,38

> <ROCS_ShapeQuery>
x0446_0A_x1080_0A_x0929_0A_x0812_0A_x0719_0A_x1140_0A_x0528_0A_x0310_0A

> <ROCS_TanimotoCombo>
0.348 

> <ROCS_ShapeTanimoto>
0.195 

> <ROCS_ColorTanimoto>
0.153 

> <ROCS_RefTversky>
0.180 

> <ROCS_RefColorTversky>
0.165 

> <ROCS_RefTverskyCombo>
0.344 

> <ROCS_FitTversky>
1.742 

> <ROCS_FitColorTversky>
0.690 

> <ROCS_FitTverskyCombo>
2.432 

> <ROCS_ColorScore>
-5.873

> <ROCS_Overlap>
2119.392

> <ROCS_Rank>
163                 

$$$$
untitled-dbase-1131_65
  -OEChem-02082415043D

 28 28  0     1  0  0  0  0  0999 V2000
    7.5184   11.5157   23.7255 C   0  0  0  0  0  0  0  0  0  0  0  0
    9.5824   10.4937   24.3673 C   0  0  0  0  0  0  0  0  0  0  0  0
    8.3239   12.7630   24.0764 C   0  0  2  0  0  0  0  0  0  0  0  0
   10.2711   11.5003   23.4327 C   0  0  0  0  0  0  0  0  0  0  0  0
   11.6807   11.8064   23.9453 C   0  0  0  0  0  0  0  0  0  0  0  0
   10.3558   10.9584   22.0008 C   0  0  0  0  0  0  0  0  0  0  0  0
    7.5789   14.0330   23.6933 C   0  0  0  0  0  0  0  0  0  0  0  0
    6.4242   15.4235   21.7480 N   0  0  0  0  0  0  0  0  0  0  0  0
    8.9809   15.1436   21.7884 O   0  0  0  0  0  0  0  0  0  0  0  0
    7.5233   13.1556   21.2326 O   0  0  0  0  0  0  0  0  0  0  0  0
    8.2123   10.3018   24.0216 O   0  0  0  0  0  0  0  0  0  0  0  0
    9.5663   12.7508   23.3698 O   0  0  0  0  0  0  0  0  0  0  0  0
    7.7561   14.3828   21.9775 S   0  0  0  0  0  0  0  0  0  0  0  0
    6.5639   11.5013   24.2887 H   0  0  0  0  0  0  0  0  0  0  0  0
    7.2399   11.5030   22.6500 H   0  0  0  0  0  0  0  0  0  0  0  0
   10.0853    9.5126   24.3352 H   0  0  0  0  0  0  0  0  0  0  0  0
    9.6235   10.8377   25.4123 H   0  0  0  0  0  0  0  0  0  0  0  0
    8.5318   12.7904   25.1522 H   0  0  0  0  0  0  0  0  0  0  0  0
   12.1602   12.5180   23.2796 H   0  0  0  0  0  0  0  0  0  0  0  0
   12.2610   10.8889   23.9748 H   0  0  0  0  0  0  0  0  0  0  0  0
   11.6177   12.2286   24.9439 H   0  0  0  0  0  0  0  0  0  0  0  0
   10.8463   11.6896   21.3631 H   0  0  0  0  0  0  0  0  0  0  0  0
    9.3543   10.7661   21.6244 H   0  0  0  0  0  0  0  0  0  0  0  0
   10.9272   10.0336   21.9947 H   0  0  0  0  0  0  0  0  0  0  0  0
    7.9716   14.8875   24.2448 H   0  0  0  0  0  0  0  0  0  0  0  0
    6.5136   13.9279   23.8989 H   0  0  0  0  0  0  0  0  0  0  0  0
    6.6187   16.4196   21.5876 H   0  0  0  0  0  0  0  0  0  0  0  0
    5.6260   15.0656   21.2092 H   0  0  0  0  0  0  0  0  0  0  0  0
  1  3  1  0  0  0  0
  1 11  1  0  0  0  0
  2  4  1  0  0  0  0
  2 11  1  0  0  0  0
  3  7  1  0  0  0  0
  3 12  1  0  0  0  0
  4  5  1  0  0  0  0
  4  6  1  0  0  0  0
  4 12  1  0  0  0  0
  7 13  1  0  0  0  0
  8 13  1  0  0  0  0
  9 13  2  0  0  0  0
 10 13  2  0  0  0  0
  1 14  1  0  0  0  0
  1 15  1  0  0  0  0
  2 16  1  0  0  0  0
  2 17  1  0  0  0  0
  3 18  1  0  0  0  0
  5 19  1  0  0  0  0
  5 20  1  0  0  0  0
  5 21  1  0  0  0  0
  6 22  1  0  0  0  0
  6 23  1  0  0  0  0
  6 24  1  0  0  0  0
  7 25  1  0  0  0  0
  7 26  1  0  0  0  0
  8 27  1  0  0  0  0
  8 28  1  0  0  0  0
M  END
> <Mol Weight>
209,26

> <Formula>
C7H15NO4S

> <ID>
EN300-761135

> <name>
Sulfonamides

> <LogP>
-0,89

> <ROCS_ShapeQuery>
x0446_0A_x1080_0A_x0929_0A_x0812_0A_x0719_0A_x1140_0A_x0528_0A_x0310_0A

> <ROCS_TanimotoCombo>
0.348 

> <ROCS_ShapeTanimoto>
0.186 

> <ROCS_ColorTanimoto>
0.161 

> <ROCS_RefTversky>
0.172 

> <ROCS_RefColorTversky>
0.172 

> <ROCS_RefTverskyCombo>
0.344 

> <ROCS_FitTversky>
1.807 

> <ROCS_FitColorTversky>
0.721 

> <ROCS_FitTverskyCombo>
2.528 

> <ROCS_ColorScore>
-6.140

> <ROCS_Overlap>
2028.780

> <ROCS_Rank>
164                 

$$$$
untitled-dbase-2045_42
  -OEChem-02082415043D

 26 27  0     1  0  0  0  0  0999 V2000
    9.4820   10.9083   22.1407 C   0  0  0  0  0  0  0  0  0  0  0  0
   10.0543   12.0694   21.6183 C   0  0  0  0  0  0  0  0  0  0  0  0
    9.3801   13.3347   23.5852 C   0  0  0  0  0  0  0  0  0  0  0  0
    8.8104   12.1785   24.0872 C   0  0  0  0  0  0  0  0  0  0  0  0
    8.8645   10.9923   23.3740 C   0  0  0  0  0  0  0  0  0  0  0  0
   10.0029   13.2758   22.3357 C   0  0  0  0  0  0  0  0  0  0  0  0
    6.1234   10.4747   24.9388 C   0  0  0  0  0  0  0  0  0  0  0  0
    8.1388   11.9505   25.3862 C   0  0  0  0  0  0  0  0  0  0  0  0
    7.6027   10.5251   25.1630 C   0  0  2  0  0  0  0  0  0  0  0  0
    5.7230    9.4565   24.1062 N   0  0  0  0  0  0  0  0  0  0  0  0
   11.3046   14.1172   20.1673 N   0  0  0  0  0  0  0  0  0  0  0  0
    5.3546   11.2699   25.4736 O   0  0  0  0  0  0  0  0  0  0  0  0
    9.6464   15.6715   21.3839 O   0  0  0  0  0  0  0  0  0  0  0  0
   11.8442   15.1123   22.4815 O   0  0  0  0  0  0  0  0  0  0  0  0
    8.2620    9.9385   24.0108 O   0  0  0  0  0  0  0  0  0  0  0  0
   10.7135   14.7186   21.6531 S   0  0  0  0  0  0  0  0  0  0  0  0
    9.5266    9.9730   21.5935 H   0  0  0  0  0  0  0  0  0  0  0  0
   10.5386   12.0307   20.6458 H   0  0  0  0  0  0  0  0  0  0  0  0
    9.3359   14.2619   24.1478 H   0  0  0  0  0  0  0  0  0  0  0  0
    8.8317   11.9828   26.2354 H   0  0  0  0  0  0  0  0  0  0  0  0
    7.3393   12.6854   25.5450 H   0  0  0  0  0  0  0  0  0  0  0  0
    7.8434    9.8759   26.0485 H   0  0  0  0  0  0  0  0  0  0  0  0
    4.7342    9.3537   23.9032 H   0  0  0  0  0  0  0  0  0  0  0  0
    6.3768    8.8036   23.6864 H   0  0  0  0  0  0  0  0  0  0  0  0
   10.8206   14.4002   19.3064 H   0  0  0  0  0  0  0  0  0  0  0  0
   12.3211   14.0170   20.0582 H   0  0  0  0  0  0  0  0  0  0  0  0
  1  2  2  0  0  0  0
  1  5  1  0  0  0  0
  2  6  1  0  0  0  0
  3  4  1  0  0  0  0
  3  6  2  0  0  0  0
  4  5  2  0  0  0  0
  4  8  1  0  0  0  0
  5 15  1  0  0  0  0
  6 16  1  0  0  0  0
  7  9  1  0  0  0  0
  7 10  1  0  0  0  0
  7 12  2  0  0  0  0
  8  9  1  0  0  0  0
  9 15  1  0  0  0  0
 11 16  1  0  0  0  0
 13 16  2  0  0  0  0
 14 16  2  0  0  0  0
  1 17  1  0  0  0  0
  2 18  1  0  0  0  0
  3 19  1  0  0  0  0
  8 20  1  0  0  0  0
  8 21  1  0  0  0  0
  9 22  1  0  0  0  0
 10 23  1  0  0  0  0
 10 24  1  0  0  0  0
 11 25  1  0  0  0  0
 11 26  1  0  0  0  0
M  END
> <Mol Weight>
242,25

> <Formula>
C9H10N2O4S

> <ID>
EN300-116428

> <name>
Sulfonamides

> <LogP>
-0,66

> <ROCS_ShapeQuery>
x0446_0A_x1080_0A_x0929_0A_x0812_0A_x0719_0A_x1140_0A_x0528_0A_x0310_0A

> <ROCS_TanimotoCombo>
0.348 

> <ROCS_ShapeTanimoto>
0.200 

> <ROCS_ColorTanimoto>
0.148 

> <ROCS_RefTversky>
0.185 

> <ROCS_RefColorTversky>
0.163 

> <ROCS_RefTverskyCombo>
0.348 

> <ROCS_FitTversky>
1.691 

> <ROCS_FitColorTversky>
0.615 

> <ROCS_FitTverskyCombo>
2.306 

> <ROCS_ColorScore>
-5.829

> <ROCS_Overlap>
2177.343

> <ROCS_Rank>
165                 

$$$$
untitled-dbase-2628_730
  -OEChem-02082415043D

 40 40  0     1  0  0  0  0  0999 V2000
    7.3296   12.6796   24.6339 C   0  0  0  0  0  0  0  0  0  0  0  0
    9.9595   10.8215   23.0655 C   0  0  0  0  0  0  0  0  0  0  0  0
    9.8894   11.2927   21.6121 C   0  0  0  0  0  0  0  0  0  0  0  0
    8.5751   10.7463   23.7011 C   0  0  0  0  0  0  0  0  0  0  0  0
    7.7042   12.4621   22.1408 C   0  0  0  0  0  0  0  0  0  0  0  0
    9.0613   12.5697   21.4446 C   0  0  1  0  0  0  0  0  0  0  0  0
    8.7791   14.5245   26.2730 C   0  0  0  0  0  0  0  0  0  0  0  0
    7.3604   16.3012   25.2051 C   0  0  0  0  0  0  0  0  0  0  0  0
    6.2818   14.5015   26.5857 C   0  0  0  0  0  0  0  0  0  0  0  0
   12.6144   13.5182   21.5387 C   0  0  0  0  0  0  0  0  0  0  0  0
    7.4276   14.8364   25.6318 C   0  0  0  0  0  0  0  0  0  0  0  0
    7.8503   12.0033   23.5269 N   0  0  0  0  0  0  0  0  0  0  0  0
   11.3163   13.9468   20.9877 N   0  0  0  0  0  0  0  0  0  0  0  0
    6.9498   12.1298   25.6663 O   0  0  0  0  0  0  0  0  0  0  0  0
    9.1560   15.1714   21.7143 O   0  0  0  0  0  0  0  0  0  0  0  0
   10.3886   13.7247   23.3708 O   0  0  0  0  0  0  0  0  0  0  0  0
    7.2874   14.0365   24.4521 O   0  0  0  0  0  0  0  0  0  0  0  0
    9.9522   13.9966   22.0139 S   0  0  0  0  0  0  0  0  0  0  0  0
   10.4366    9.8356   23.1066 H   0  0  0  0  0  0  0  0  0  0  0  0
   10.5931   11.5010   23.6476 H   0  0  0  0  0  0  0  0  0  0  0  0
   10.9048   11.4350   21.2242 H   0  0  0  0  0  0  0  0  0  0  0  0
    9.4304   10.4971   21.0115 H   0  0  0  0  0  0  0  0  0  0  0  0
    7.9792    9.9584   23.2255 H   0  0  0  0  0  0  0  0  0  0  0  0
    8.6663   10.4926   24.7619 H   0  0  0  0  0  0  0  0  0  0  0  0
    7.1716   13.4161   22.0904 H   0  0  0  0  0  0  0  0  0  0  0  0
    7.0813   11.7182   21.6292 H   0  0  0  0  0  0  0  0  0  0  0  0
    8.9026   12.7524   20.3752 H   0  0  0  0  0  0  0  0  0  0  0  0
    8.8313   13.4740   26.5806 H   0  0  0  0  0  0  0  0  0  0  0  0
    9.6076   14.7274   25.5865 H   0  0  0  0  0  0  0  0  0  0  0  0
    8.9280   15.1203   27.1808 H   0  0  0  0  0  0  0  0  0  0  0  0
    6.3924   16.5294   24.7446 H   0  0  0  0  0  0  0  0  0  0  0  0
    8.1220   16.5227   24.4487 H   0  0  0  0  0  0  0  0  0  0  0  0
    7.5083   16.9765   26.0541 H   0  0  0  0  0  0  0  0  0  0  0  0
    5.3123   14.7251   26.1260 H   0  0  0  0  0  0  0  0  0  0  0  0
    6.2923   13.4453   26.8736 H   0  0  0  0  0  0  0  0  0  0  0  0
    6.3409   15.1109   27.4948 H   0  0  0  0  0  0  0  0  0  0  0  0
   12.4526   12.7314   22.2902 H   0  0  0  0  0  0  0  0  0  0  0  0
   13.2454   13.1260   20.7275 H   0  0  0  0  0  0  0  0  0  0  0  0
   13.1145   14.3774   22.0095 H   0  0  0  0  0  0  0  0  0  0  0  0
   11.3886   14.6845   20.2750 H   0  0  0  0  0  0  0  0  0  0  0  0
  1 12  1  0  0  0  0
  1 14  2  0  0  0  0
  1 17  1  0  0  0  0
  2  3  1  0  0  0  0
  2  4  1  0  0  0  0
  3  6  1  0  0  0  0
  4 12  1  0  0  0  0
  5  6  1  0  0  0  0
  5 12  1  0  0  0  0
  6 18  1  1  0  0  0
  7 11  1  0  0  0  0
  8 11  1  0  0  0  0
  9 11  1  0  0  0  0
 10 13  1  0  0  0  0
 11 17  1  0  0  0  0
 13 18  1  0  0  0  0
 15 18  2  0  0  0  0
 16 18  2  0  0  0  0
  2 19  1  0  0  0  0
  2 20  1  0  0  0  0
  3 21  1  0  0  0  0
  3 22  1  0  0  0  0
  4 23  1  0  0  0  0
  4 24  1  0  0  0  0
  5 25  1  0  0  0  0
  5 26  1  0  0  0  0
  6 27  1  0  0  0  0
  7 28  1  0  0  0  0
  7 29  1  0  0  0  0
  7 30  1  0  0  0  0
  8 31  1  0  0  0  0
  8 32  1  0  0  0  0
  8 33  1  0  0  0  0
  9 34  1  0  0  0  0
  9 35  1  0  0  0  0
  9 36  1  0  0  0  0
 10 37  1  0  0  0  0
 10 38  1  0  0  0  0
 10 39  1  0  0  0  0
 13 40  1  0  0  0  0
M  END
> <Mol Weight>
278,37

> <Formula>
C11H22N2O4S

> <ID>
EN300-27752587

> <name>
Sulfonamides

> <LogP>
0,38

> <ROCS_ShapeQuery>
x0446_0A_x1080_0A_x0929_0A_x0812_0A_x0719_0A_x1140_0A_x0528_0A_x0310_0A

> <ROCS_TanimotoCombo>
0.348 

> <ROCS_ShapeTanimoto>
0.194 

> <ROCS_ColorTanimoto>
0.154 

> <ROCS_RefTversky>
0.181 

> <ROCS_RefColorTversky>
0.161 

> <ROCS_RefTverskyCombo>
0.342 

> <ROCS_FitTversky>
1.605 

> <ROCS_FitColorTversky>
0.760 

> <ROCS_FitTverskyCombo>
2.365 

> <ROCS_ColorScore>
-5.750

> <ROCS_Overlap>
2132.948

> <ROCS_Rank>
166                 

$$$$
untitled-dbase-2624_2
  -OEChem-02082415043D

 27 28  0     0  0  0  0  0  0999 V2000
    5.9447   12.8253   24.8070 C   0  0  0  0  0  0  0  0  0  0  0  0
    6.7990   11.7939   25.2073 C   0  0  0  0  0  0  0  0  0  0  0  0
    6.2235   13.5913   23.6768 C   0  0  0  0  0  0  0  0  0  0  0  0
    9.4644   11.7998   22.7699 C   0  0  0  0  0  0  0  0  0  0  0  0
    8.2453   12.3128   23.2950 C   0  0  0  0  0  0  0  0  0  0  0  0
    7.9406   11.5614   24.4321 C   0  0  0  0  0  0  0  0  0  0  0  0
    7.3692   13.3473   22.9108 C   0  0  0  0  0  0  0  0  0  0  0  0
    9.8688   10.7665   23.5834 C   0  0  0  0  0  0  0  0  0  0  0  0
    9.0087    9.6489   25.6465 C   0  0  0  0  0  0  0  0  0  0  0  0
   11.0615    9.8997   23.4880 C   0  0  0  0  0  0  0  0  0  0  0  0
    8.9432   10.6302   24.5829 N   0  0  0  0  0  0  0  0  0  0  0  0
    6.3051   15.3808   21.5553 N   0  0  0  0  0  0  0  0  0  0  0  0
    8.8639   15.1289   21.7423 O   0  0  0  0  0  0  0  0  0  0  0  0
    7.5660   13.5054   20.3184 O   0  0  0  0  0  0  0  0  0  0  0  0
   11.8769   10.1820   22.4219 F   0  0  0  0  0  0  0  0  0  0  0  0
   11.8894    9.9631   24.5796 F   0  0  0  0  0  0  0  0  0  0  0  0
   10.7530    8.5712   23.3550 F   0  0  0  0  0  0  0  0  0  0  0  0
    7.6623   14.3461   21.5011 S   0  0  0  0  0  0  0  0  0  0  0  0
    5.0493   13.0322   25.3876 H   0  0  0  0  0  0  0  0  0  0  0  0
    6.5766   11.2009   26.0882 H   0  0  0  0  0  0  0  0  0  0  0  0
    5.5358   14.3855   23.3959 H   0  0  0  0  0  0  0  0  0  0  0  0
    9.9900   12.1489   21.8912 H   0  0  0  0  0  0  0  0  0  0  0  0
    8.4885    8.7490   25.3077 H   0  0  0  0  0  0  0  0  0  0  0  0
   10.0552    9.4241   25.8706 H   0  0  0  0  0  0  0  0  0  0  0  0
    8.5298   10.0543   26.5422 H   0  0  0  0  0  0  0  0  0  0  0  0
    6.4587   16.3619   21.8185 H   0  0  0  0  0  0  0  0  0  0  0  0
    5.5726   15.2508   20.8470 H   0  0  0  0  0  0  0  0  0  0  0  0
  1  2  2  0  0  0  0
  1  3  1  0  0  0  0
  2  6  1  0  0  0  0
  3  7  2  0  0  0  0
  4  5  1  0  0  0  0
  4  8  2  0  0  0  0
  5  6  2  0  0  0  0
  5  7  1  0  0  0  0
  6 11  1  0  0  0  0
  7 18  1  0  0  0  0
  8 10  1  0  0  0  0
  8 11  1  0  0  0  0
  9 11  1  0  0  0  0
 10 15  1  0  0  0  0
 10 16  1  0  0  0  0
 10 17  1  0  0  0  0
 12 18  1  0  0  0  0
 13 18  2  0  0  0  0
 14 18  2  0  0  0  0
  1 19  1  0  0  0  0
  2 20  1  0  0  0  0
  3 21  1  0  0  0  0
  4 22  1  0  0  0  0
  9 23  1  0  0  0  0
  9 24  1  0  0  0  0
  9 25  1  0  0  0  0
 12 26  1  0  0  0  0
 12 27  1  0  0  0  0
M  END
> <Mol Weight>
278,25

> <Formula>
C10H9F3N2O2S

> <ID>
EN300-39924009

> <name>
Sulfonamides

> <LogP>
1,70

> <ROCS_ShapeQuery>
x0446_0A_x1080_0A_x0929_0A_x0812_0A_x0719_0A_x1140_0A_x0528_0A_x0310_0A

> <ROCS_TanimotoCombo>
0.348 

> <ROCS_ShapeTanimoto>
0.206 

> <ROCS_ColorTanimoto>
0.142 

> <ROCS_RefTversky>
0.191 

> <ROCS_RefColorTversky>
0.147 

> <ROCS_RefTverskyCombo>
0.338 

> <ROCS_FitTversky>
1.622 

> <ROCS_FitColorTversky>
0.791 

> <ROCS_FitTverskyCombo>
2.413 

> <ROCS_ColorScore>
-5.243

> <ROCS_Overlap>
2250.429

> <ROCS_Rank>
167                 

$$$$
untitled-dbase-2567_1589
  -OEChem-02082415043D

 34 34  0     0  0  0  0  0  0999 V2000
    9.1947   10.2529   23.4744 C   0  0  0  0  0  0  0  0  0  0  0  0
    7.9942   10.8604   23.8419 C   0  0  0  0  0  0  0  0  0  0  0  0
    8.9342   13.0268   23.3316 C   0  0  0  0  0  0  0  0  0  0  0  0
   10.1348   12.4192   22.9641 C   0  0  0  0  0  0  0  0  0  0  0  0
   10.2651   11.0323   23.0355 C   0  0  0  0  0  0  0  0  0  0  0  0
    7.8639   12.2473   23.7705 C   0  0  0  0  0  0  0  0  0  0  0  0
   10.0166   14.5778   20.7867 C   0  0  0  0  0  0  0  0  0  0  0  0
    8.8929   15.7979   18.8823 C   0  0  0  0  0  0  0  0  0  0  0  0
   12.4020   10.2334   23.7074 C   0  0  0  0  0  0  0  0  0  0  0  0
   11.2765   13.2735   22.4941 C   0  0  0  0  0  0  0  0  0  0  0  0
   10.0585   14.9247   19.3099 C   0  0  0  0  0  0  0  0  0  0  0  0
    5.5300   13.0160   22.7376 N   0  0  0  0  0  0  0  0  0  0  0  0
   11.0732   13.7540   21.1465 N   0  0  0  0  0  0  0  0  0  0  0  0
    9.1464   14.9896   21.5491 O   0  0  0  0  0  0  0  0  0  0  0  0
    5.6619   12.1225   25.1521 O   0  0  0  0  0  0  0  0  0  0  0  0
    6.6381   14.3832   24.6191 O   0  0  0  0  0  0  0  0  0  0  0  0
   11.4307   10.4226   22.6804 O   0  0  0  0  0  0  0  0  0  0  0  0
    6.3608   13.0073   24.2306 S   0  0  0  0  0  0  0  0  0  0  0  0
    9.2896    9.1719   23.5323 H   0  0  0  0  0  0  0  0  0  0  0  0
    7.1667   10.2437   24.1824 H   0  0  0  0  0  0  0  0  0  0  0  0
    8.8337   14.1081   23.2756 H   0  0  0  0  0  0  0  0  0  0  0  0
    7.9367   15.3019   19.0795 H   0  0  0  0  0  0  0  0  0  0  0  0
    8.9058   16.7455   19.4292 H   0  0  0  0  0  0  0  0  0  0  0  0
    8.9408   16.0210   17.8113 H   0  0  0  0  0  0  0  0  0  0  0  0
   13.2820    9.7373   23.2908 H   0  0  0  0  0  0  0  0  0  0  0  0
   11.9731    9.6260   24.5084 H   0  0  0  0  0  0  0  0  0  0  0  0
   12.6912   11.2083   24.1071 H   0  0  0  0  0  0  0  0  0  0  0  0
   11.4017   14.1440   23.1472 H   0  0  0  0  0  0  0  0  0  0  0  0
   12.2184   12.7153   22.5120 H   0  0  0  0  0  0  0  0  0  0  0  0
   11.0014   15.4434   19.1021 H   0  0  0  0  0  0  0  0  0  0  0  0
   10.0499   13.9927   18.7335 H   0  0  0  0  0  0  0  0  0  0  0  0
    4.7367   12.3732   22.6238 H   0  0  0  0  0  0  0  0  0  0  0  0
    5.4059   13.9171   22.2603 H   0  0  0  0  0  0  0  0  0  0  0  0
   11.7355   13.4753   20.4284 H   0  0  0  0  0  0  0  0  0  0  0  0
  1  2  2  0  0  0  0
  1  5  1  0  0  0  0
  2  6  1  0  0  0  0
  3  4  1  0  0  0  0
  3  6  2  0  0  0  0
  4  5  2  0  0  0  0
  4 10  1  0  0  0  0
  5 17  1  0  0  0  0
  6 18  1  0  0  0  0
  7 11  1  0  0  0  0
  7 13  1  0  0  0  0
  7 14  2  0  0  0  0
  8 11  1  0  0  0  0
  9 17  1  0  0  0  0
 10 13  1  0  0  0  0
 12 18  1  0  0  0  0
 15 18  2  0  0  0  0
 16 18  2  0  0  0  0
  1 19  1  0  0  0  0
  2 20  1  0  0  0  0
  3 21  1  0  0  0  0
  8 22  1  0  0  0  0
  8 23  1  0  0  0  0
  8 24  1  0  0  0  0
  9 25  1  0  0  0  0
  9 26  1  0  0  0  0
  9 27  1  0  0  0  0
 10 28  1  0  0  0  0
 10 29  1  0  0  0  0
 11 30  1  0  0  0  0
 11 31  1  0  0  0  0
 12 32  1  0  0  0  0
 12 33  1  0  0  0  0
 13 34  1  0  0  0  0
M  END
> <Mol Weight>
272,32

> <Formula>
C11H16N2O4S

> <ID>
EN300-116251

> <name>
Sulfonamides

> <LogP>
0,07

> <ROCS_ShapeQuery>
x0446_0A_x1080_0A_x0929_0A_x0812_0A_x0719_0A_x1140_0A_x0528_0A_x0310_0A

> <ROCS_TanimotoCombo>
0.348 

> <ROCS_ShapeTanimoto>
0.208 

> <ROCS_ColorTanimoto>
0.140 

> <ROCS_RefTversky>
0.191 

> <ROCS_RefColorTversky>
0.155 

> <ROCS_RefTverskyCombo>
0.347 

> <ROCS_FitTversky>
1.693 

> <ROCS_FitColorTversky>
0.586 

> <ROCS_FitTverskyCombo>
2.278 

> <ROCS_ColorScore>
-5.542

> <ROCS_Overlap>
2259.310

> <ROCS_Rank>
168                 

$$$$
untitled-dbase-2413_11
  -OEChem-02082415043D

 27 27  0     1  0  0  0  0  0999 V2000
    8.9202   10.0649   23.7145 C   0  0  0  0  0  0  0  0  0  0  0  0
    9.8444   10.7979   22.9702 C   0  0  0  0  0  0  0  0  0  0  0  0
    7.9163   10.7240   24.4241 C   0  0  0  0  0  0  0  0  0  0  0  0
    8.7610   12.8492   23.6451 C   0  0  0  0  0  0  0  0  0  0  0  0
    9.7649   12.1901   22.9355 C   0  0  0  0  0  0  0  0  0  0  0  0
    7.8368   12.1162   24.3894 C   0  0  0  0  0  0  0  0  0  0  0  0
   10.4629   14.1574   21.5855 C   0  0  0  0  0  0  0  0  0  0  0  0
   11.3749   15.5850   19.7070 C   0  0  0  0  0  0  0  0  0  0  0  0
   11.7083   14.6495   20.8583 C   0  0  1  0  0  0  0  0  0  0  0  0
    7.3534   13.1854   26.7827 N   0  0  0  0  0  0  0  0  0  0  0  0
   10.6891   12.9234   22.1908 N   0  0  0  0  0  0  0  0  0  0  0  0
    9.4327   14.8244   21.6067 O   0  0  0  0  0  0  0  0  0  0  0  0
    6.3492   14.2353   24.6532 O   0  0  0  0  0  0  0  0  0  0  0  0
    5.4683   12.0203   25.4690 O   0  0  0  0  0  0  0  0  0  0  0  0
    6.5807   12.9407   25.2785 S   0  0  0  0  0  0  0  0  0  0  0  0
   12.6998   15.5120   22.0649 Cl  0  0  0  0  0  0  0  0  0  0  0  0
    8.9816    8.9809   23.7413 H   0  0  0  0  0  0  0  0  0  0  0  0
   10.6220   10.2733   22.4206 H   0  0  0  0  0  0  0  0  0  0  0  0
    7.2017   10.1434   25.0012 H   0  0  0  0  0  0  0  0  0  0  0  0
    8.6982   13.9349   23.6184 H   0  0  0  0  0  0  0  0  0  0  0  0
   10.7890   16.4424   20.0550 H   0  0  0  0  0  0  0  0  0  0  0  0
   10.8025   15.0797   18.9211 H   0  0  0  0  0  0  0  0  0  0  0  0
   12.2923   15.9689   19.2477 H   0  0  0  0  0  0  0  0  0  0  0  0
   12.2932   13.8019   20.4863 H   0  0  0  0  0  0  0  0  0  0  0  0
    7.6368   14.1416   27.0290 H   0  0  0  0  0  0  0  0  0  0  0  0
    7.0356   12.6271   27.5844 H   0  0  0  0  0  0  0  0  0  0  0  0
   11.6143   12.5086   22.0970 H   0  0  0  0  0  0  0  0  0  0  0  0
  1  2  2  0  0  0  0
  1  3  1  0  0  0  0
  2  5  1  0  0  0  0
  3  6  2  0  0  0  0
  4  5  2  0  0  0  0
  4  6  1  0  0  0  0
  5 11  1  0  0  0  0
  6 15  1  0  0  0  0
  7  9  1  0  0  0  0
  7 11  1  0  0  0  0
  7 12  2  0  0  0  0
  8  9  1  0  0  0  0
  9 16  1  0  0  0  0
 10 15  1  0  0  0  0
 13 15  2  0  0  0  0
 14 15  2  0  0  0  0
  1 17  1  0  0  0  0
  2 18  1  0  0  0  0
  3 19  1  0  0  0  0
  4 20  1  0  0  0  0
  8 21  1  0  0  0  0
  8 22  1  0  0  0  0
  8 23  1  0  0  0  0
  9 24  1  0  0  0  0
 10 25  1  0  0  0  0
 10 26  1  0  0  0  0
 11 27  1  0  0  0  0
M  END
> <Mol Weight>
262,71

> <Formula>
C9H11ClN2O3S

> <ID>
EN300-23326

> <name>
Sulfonamides

> <LogP>
0,92

> <ROCS_ShapeQuery>
x0446_0A_x1080_0A_x0929_0A_x0812_0A_x0719_0A_x1140_0A_x0528_0A_x0310_0A

> <ROCS_TanimotoCombo>
0.347 

> <ROCS_ShapeTanimoto>
0.207 

> <ROCS_ColorTanimoto>
0.140 

> <ROCS_RefTversky>
0.190 

> <ROCS_RefColorTversky>
0.149 

> <ROCS_RefTverskyCombo>
0.339 

> <ROCS_FitTversky>
1.793 

> <ROCS_FitColorTversky>
0.702 

> <ROCS_FitTverskyCombo>
2.495 

> <ROCS_ColorScore>
-5.308

> <ROCS_Overlap>
2240.273

> <ROCS_Rank>
169                 

$$$$
untitled-dbase-2717_0
  -OEChem-02082415043D

 22 23  0     0  0  0  0  0  0999 V2000
    9.0484   10.3381   22.0124 C   0  0  0  0  0  0  0  0  0  0  0  0
    7.9771   10.0911   22.8705 C   0  0  0  0  0  0  0  0  0  0  0  0
    9.5880   11.6190   21.9212 C   0  0  0  0  0  0  0  0  0  0  0  0
    6.3651   10.9387   24.5212 C   0  0  0  0  0  0  0  0  0  0  0  0
    6.3632   13.1412   25.1723 C   0  0  0  0  0  0  0  0  0  0  0  0
    7.4365   11.1298   23.6465 C   0  0  0  0  0  0  0  0  0  0  0  0
    7.9801   12.4280   23.5570 C   0  0  0  0  0  0  0  0  0  0  0  0
    9.0588   12.6587   22.6877 C   0  0  0  0  0  0  0  0  0  0  0  0
    7.4273   13.4492   24.3384 C   0  0  0  0  0  0  0  0  0  0  0  0
    5.8174   11.9115   25.2841 N   0  0  0  0  0  0  0  0  0  0  0  0
   11.0683   13.6477   21.2425 N   0  0  0  0  0  0  0  0  0  0  0  0
    8.9938   15.0886   21.7579 O   0  0  0  0  0  0  0  0  0  0  0  0
   10.6051   14.5385   23.6150 O   0  0  0  0  0  0  0  0  0  0  0  0
    9.9175   14.1642   22.3916 S   0  0  0  0  0  0  0  0  0  0  0  0
    7.9002   15.2909   24.4621 Br  0  0  0  0  0  0  0  0  0  0  0  0
    9.4625    9.5302   21.4158 H   0  0  0  0  0  0  0  0  0  0  0  0
    7.5681    9.0851   22.9299 H   0  0  0  0  0  0  0  0  0  0  0  0
   10.4245   11.7817   21.2454 H   0  0  0  0  0  0  0  0  0  0  0  0
    5.9001    9.9637   24.6383 H   0  0  0  0  0  0  0  0  0  0  0  0
    5.8843   13.8835   25.8053 H   0  0  0  0  0  0  0  0  0  0  0  0
   10.9499   13.9599   20.2710 H   0  0  0  0  0  0  0  0  0  0  0  0
   12.0491   13.5829   21.5411 H   0  0  0  0  0  0  0  0  0  0  0  0
  1  2  1  0  0  0  0
  1  3  2  0  0  0  0
  2  6  2  0  0  0  0
  3  8  1  0  0  0  0
  4  6  1  0  0  0  0
  4 10  2  0  0  0  0
  5  9  2  0  0  0  0
  5 10  1  0  0  0  0
  6  7  1  0  0  0  0
  7  8  2  0  0  0  0
  7  9  1  0  0  0  0
  8 14  1  0  0  0  0
  9 15  1  0  0  0  0
 11 14  1  0  0  0  0
 12 14  2  0  0  0  0
 13 14  2  0  0  0  0
  1 16  1  0  0  0  0
  2 17  1  0  0  0  0
  3 18  1  0  0  0  0
  4 19  1  0  0  0  0
  5 20  1  0  0  0  0
 11 21  1  0  0  0  0
 11 22  1  0  0  0  0
M  END
> <Mol Weight>
287,13

> <Formula>
C9H7BrN2O2S

> <ID>
EN300-180757

> <name>
Sulfonamides

> <LogP>
1,12

> <ROCS_ShapeQuery>
x0446_0A_x1080_0A_x0929_0A_x0812_0A_x0719_0A_x1140_0A_x0528_0A_x0310_0A

> <ROCS_TanimotoCombo>
0.347 

> <ROCS_ShapeTanimoto>
0.183 

> <ROCS_ColorTanimoto>
0.164 

> <ROCS_RefTversky>
0.171 

> <ROCS_RefColorTversky>
0.175 

> <ROCS_RefTverskyCombo>
0.346 

> <ROCS_FitTversky>
1.628 

> <ROCS_FitColorTversky>
0.732 

> <ROCS_FitTverskyCombo>
2.361 

> <ROCS_ColorScore>
-6.238

> <ROCS_Overlap>
2017.053

> <ROCS_Rank>
170                 

$$$$
untitled-dbase-2084_1
  -OEChem-02082415043D

 33 33  0     0  0  0  0  0  0999 V2000
    8.1611   11.8073   24.4987 C   0  0  0  0  0  0  0  0  0  0  0  0
    9.8990   11.7672   22.3168 C   0  0  0  0  0  0  0  0  0  0  0  0
    8.6812   13.0014   23.9993 C   0  0  0  0  0  0  0  0  0  0  0  0
    9.3789   10.5732   22.8162 C   0  0  0  0  0  0  0  0  0  0  0  0
    8.5101   10.5932   23.9072 C   0  0  0  0  0  0  0  0  0  0  0  0
    9.5500   12.9813   22.9083 C   0  0  0  0  0  0  0  0  0  0  0  0
    9.7632    9.2827   22.1708 C   0  0  0  0  0  0  0  0  0  0  0  0
    8.7391   14.3533   26.1259 C   0  0  0  0  0  0  0  0  0  0  0  0
    6.7751   14.5533   24.5582 C   0  0  0  0  0  0  0  0  0  0  0  0
    7.1134    9.5490   25.5242 C   0  0  0  0  0  0  0  0  0  0  0  0
    8.2878   14.2843   24.6557 C   0  0  0  0  0  0  0  0  0  0  0  0
   11.1769   13.8453   20.9817 N   0  0  0  0  0  0  0  0  0  0  0  0
    9.1328   15.2452   21.6942 O   0  0  0  0  0  0  0  0  0  0  0  0
   11.0974   15.0470   23.2591 O   0  0  0  0  0  0  0  0  0  0  0  0
    7.9934    9.4361   24.4076 O   0  0  0  0  0  0  0  0  0  0  0  0
   10.2212   14.4604   22.2566 S   0  0  0  0  0  0  0  0  0  0  0  0
    7.4834   11.8189   25.3491 H   0  0  0  0  0  0  0  0  0  0  0  0
   10.5764   11.7491   21.4662 H   0  0  0  0  0  0  0  0  0  0  0  0
   10.6621    8.8728   22.6459 H   0  0  0  0  0  0  0  0  0  0  0  0
    8.9570    8.5431   22.2518 H   0  0  0  0  0  0  0  0  0  0  0  0
    9.9647    9.4189   21.1009 H   0  0  0  0  0  0  0  0  0  0  0  0
    8.2983   13.5467   26.7219 H   0  0  0  0  0  0  0  0  0  0  0  0
    8.4504   15.3036   26.5880 H   0  0  0  0  0  0  0  0  0  0  0  0
    9.8289   14.2634   26.1969 H   0  0  0  0  0  0  0  0  0  0  0  0
    6.2109   13.7507   25.0463 H   0  0  0  0  0  0  0  0  0  0  0  0
    6.4458   14.6079   23.5149 H   0  0  0  0  0  0  0  0  0  0  0  0
    6.5007   15.4968   25.0427 H   0  0  0  0  0  0  0  0  0  0  0  0
    6.7738    8.5544   25.8234 H   0  0  0  0  0  0  0  0  0  0  0  0
    6.2572   10.1718   25.2531 H   0  0  0  0  0  0  0  0  0  0  0  0
    7.6507   10.0131   26.3547 H   0  0  0  0  0  0  0  0  0  0  0  0
    8.7819   15.1314   24.1445 H   0  0  0  0  0  0  0  0  0  0  0  0
   10.8572   14.0077   20.0190 H   0  0  0  0  0  0  0  0  0  0  0  0
   12.1981   13.8712   21.0900 H   0  0  0  0  0  0  0  0  0  0  0  0
  1  3  2  0  0  0  0
  1  5  1  0  0  0  0
  2  4  1  0  0  0  0
  2  6  2  0  0  0  0
  3  6  1  0  0  0  0
  3 11  1  0  0  0  0
  4  5  2  0  0  0  0
  4  7  1  0  0  0  0
  5 15  1  0  0  0  0
  6 16  1  0  0  0  0
  8 11  1  0  0  0  0
  9 11  1  0  0  0  0
 10 15  1  0  0  0  0
 12 16  1  0  0  0  0
 13 16  2  0  0  0  0
 14 16  2  0  0  0  0
  1 17  1  0  0  0  0
  2 18  1  0  0  0  0
  7 19  1  0  0  0  0
  7 20  1  0  0  0  0
  7 21  1  0  0  0  0
  8 22  1  0  0  0  0
  8 23  1  0  0  0  0
  8 24  1  0  0  0  0
  9 25  1  0  0  0  0
  9 26  1  0  0  0  0
  9 27  1  0  0  0  0
 10 28  1  0  0  0  0
 10 29  1  0  0  0  0
 10 30  1  0  0  0  0
 11 31  1  0  0  0  0
 12 32  1  0  0  0  0
 12 33  1  0  0  0  0
M  END
> <Mol Weight>
243,32

> <Formula>
C11H17NO3S

> <ID>
EN300-280748

> <name>
Sulfonamides

> <LogP>
2,18

> <ROCS_ShapeQuery>
x0446_0A_x1080_0A_x0929_0A_x0812_0A_x0719_0A_x1140_0A_x0528_0A_x0310_0A

> <ROCS_TanimotoCombo>
0.347 

> <ROCS_ShapeTanimoto>
0.209 

> <ROCS_ColorTanimoto>
0.138 

> <ROCS_RefTversky>
0.191 

> <ROCS_RefColorTversky>
0.147 

> <ROCS_RefTverskyCombo>
0.339 

> <ROCS_FitTversky>
1.801 

> <ROCS_FitColorTversky>
0.694 

> <ROCS_FitTverskyCombo>
2.495 

> <ROCS_ColorScore>
-5.250

> <ROCS_Overlap>
2255.653

> <ROCS_Rank>
171                 

$$$$
untitled-dbase-2546_18
  -OEChem-02082415043D

 22 23  0     0  0  0  0  0  0999 V2000
    8.3430   11.8508   23.8345 C   0  0  0  0  0  0  0  0  0  0  0  0
    9.2992   12.3242   22.9606 C   0  0  0  0  0  0  0  0  0  0  0  0
    8.8920    9.9512   22.8857 C   0  0  0  0  0  0  0  0  0  0  0  0
    5.4520   12.5951   25.6125 C   0  0  0  0  0  0  0  0  0  0  0  0
    5.4382   13.3618   24.3166 C   0  0  0  0  0  0  0  0  0  0  0  0
    7.5507   12.6794   24.8062 C   0  0  0  0  0  0  0  0  0  0  0  0
    8.1079   10.4904   23.7927 N   0  0  0  0  0  0  0  0  0  0  0  0
   11.0948   13.4972   21.3780 N   0  0  0  0  0  0  0  0  0  0  0  0
    8.9215   14.7234   22.0253 O   0  0  0  0  0  0  0  0  0  0  0  0
   10.7013   14.3638   23.7719 O   0  0  0  0  0  0  0  0  0  0  0  0
    6.6529   11.8287   25.5305 O   0  0  0  0  0  0  0  0  0  0  0  0
    6.8128   13.6691   24.0751 O   0  0  0  0  0  0  0  0  0  0  0  0
    9.9377   11.0217   22.0457 S   0  0  0  0  0  0  0  0  0  0  0  0
    9.9737   13.9008   22.6010 S   0  0  0  0  0  0  0  0  0  0  0  0
    8.9023    8.2753   22.5291 Cl  0  0  0  0  0  0  0  0  0  0  0  0
    5.5317   13.2657   26.4751 H   0  0  0  0  0  0  0  0  0  0  0  0
    4.5837   11.9440   25.7395 H   0  0  0  0  0  0  0  0  0  0  0  0
    5.0856   12.7371   23.4889 H   0  0  0  0  0  0  0  0  0  0  0  0
    4.8388   14.2745   24.3580 H   0  0  0  0  0  0  0  0  0  0  0  0
    8.2195   13.1669   25.4844 H   0  0  0  0  0  0  0  0  0  0  0  0
   11.9409   12.9830   21.6520 H   0  0  0  0  0  0  0  0  0  0  0  0
   10.7265   13.2299   20.4570 H   0  0  0  0  0  0  0  0  0  0  0  0
  1  2  2  0  0  0  0
  1  6  1  0  0  0  0
  1  7  1  0  0  0  0
  2 13  1  0  0  0  0
  2 14  1  0  0  0  0
  3  7  2  0  0  0  0
  3 13  1  0  0  0  0
  3 15  1  0  0  0  0
  4  5  1  0  0  0  0
  4 11  1  0  0  0  0
  5 12  1  0  0  0  0
  6 11  1  0  0  0  0
  6 12  1  0  0  0  0
  8 14  1  0  0  0  0
  9 14  2  0  0  0  0
 10 14  2  0  0  0  0
  4 16  1  0  0  0  0
  4 17  1  0  0  0  0
  5 18  1  0  0  0  0
  5 19  1  0  0  0  0
  6 20  1  0  0  0  0
  8 21  1  0  0  0  0
  8 22  1  0  0  0  0
M  END
> <Mol Weight>
270,70

> <Formula>
C6H7ClN2O4S2

> <ID>
EN300-27106045

> <name>
Sulfonamides

> <LogP>
0,46

> <ROCS_ShapeQuery>
x0446_0A_x1080_0A_x0929_0A_x0812_0A_x0719_0A_x1140_0A_x0528_0A_x0310_0A

> <ROCS_TanimotoCombo>
0.347 

> <ROCS_ShapeTanimoto>
0.198 

> <ROCS_ColorTanimoto>
0.149 

> <ROCS_RefTversky>
0.182 

> <ROCS_RefColorTversky>
0.164 

> <ROCS_RefTverskyCombo>
0.347 

> <ROCS_FitTversky>
1.768 

> <ROCS_FitColorTversky>
0.619 

> <ROCS_FitTverskyCombo>
2.387 

> <ROCS_ColorScore>
-5.867

> <ROCS_Overlap>
2152.049

> <ROCS_Rank>
172                 

$$$$
untitled-dbase-1826_23
  -OEChem-02082415043D

 22 22  0     0  0  0  0  0  0999 V2000
    8.3654   10.2788   24.1346 C   0  0  0  0  0  0  0  0  0  0  0  0
    7.5483   11.3287   23.7157 C   0  0  0  0  0  0  0  0  0  0  0  0
    9.7529   10.4036   24.0633 C   0  0  0  0  0  0  0  0  0  0  0  0
    8.1186   12.5035   23.2254 C   0  0  0  0  0  0  0  0  0  0  0  0
   10.3232   11.5783   23.5730 C   0  0  0  0  0  0  0  0  0  0  0  0
    9.5061   12.6283   23.1541 C   0  0  0  0  0  0  0  0  0  0  0  0
   12.4320   14.1237   20.8450 C   0  0  0  0  0  0  0  0  0  0  0  0
   11.1521   13.4981   21.2072 N   0  0  0  0  0  0  0  0  0  0  0  0
    7.2580   13.5561   22.8070 N   0  3  0  0  0  0  0  0  0  0  0  0
    6.9061   14.4196   23.6447 O   0  5  0  0  0  0  0  0  0  0  0  0
    6.8769   13.5882   21.6132 O   0  0  0  0  0  0  0  0  0  0  0  0
    9.2206   14.9775   22.0541 O   0  0  0  0  0  0  0  0  0  0  0  0
   11.1937   14.5556   23.5552 O   0  0  0  0  0  0  0  0  0  0  0  0
   11.6580   11.6850   23.5103 F   0  0  0  0  0  0  0  0  0  0  0  0
   10.2623   14.0857   22.5411 S   0  0  0  0  0  0  0  0  0  0  0  0
    7.9214    9.3639   24.5157 H   0  0  0  0  0  0  0  0  0  0  0  0
    6.4687   11.2170   23.7776 H   0  0  0  0  0  0  0  0  0  0  0  0
   10.3893    9.5863   24.3900 H   0  0  0  0  0  0  0  0  0  0  0  0
   12.8772   14.5912   21.7356 H   0  0  0  0  0  0  0  0  0  0  0  0
   13.1165   13.3574   20.4524 H   0  0  0  0  0  0  0  0  0  0  0  0
   12.2601   14.8908   20.0756 H   0  0  0  0  0  0  0  0  0  0  0  0
   10.6480   13.0292   20.4447 H   0  0  0  0  0  0  0  0  0  0  0  0
  1  2  2  0  0  0  0
  1  3  1  0  0  0  0
  2  4  1  0  0  0  0
  3  5  2  0  0  0  0
  4  6  2  0  0  0  0
  4  9  1  0  0  0  0
  5  6  1  0  0  0  0
  5 14  1  0  0  0  0
  6 15  1  0  0  0  0
  7  8  1  0  0  0  0
  8 15  1  0  0  0  0
  9 10  1  0  0  0  0
  9 11  2  0  0  0  0
 12 15  2  0  0  0  0
 13 15  2  0  0  0  0
  1 16  1  0  0  0  0
  2 17  1  0  0  0  0
  3 18  1  0  0  0  0
  7 19  1  0  0  0  0
  7 20  1  0  0  0  0
  7 21  1  0  0  0  0
  8 22  1  0  0  0  0
M  CHG  2   9   1  10  -1
M  END
> <Mol Weight>
234,20

> <Formula>
C7H7FN2O4S

> <ID>
EN300-214751

> <name>
Sulfonamides

> <LogP>
0,89

> <ROCS_ShapeQuery>
x0446_0A_x1080_0A_x0929_0A_x0812_0A_x0719_0A_x1140_0A_x0528_0A_x0310_0A

> <ROCS_TanimotoCombo>
0.347 

> <ROCS_ShapeTanimoto>
0.202 

> <ROCS_ColorTanimoto>
0.145 

> <ROCS_RefTversky>
0.185 

> <ROCS_RefColorTversky>
0.154 

> <ROCS_RefTverskyCombo>
0.339 

> <ROCS_FitTversky>
1.769 

> <ROCS_FitColorTversky>
0.724 

> <ROCS_FitTverskyCombo>
2.492 

> <ROCS_ColorScore>
-5.485

> <ROCS_Overlap>
2187.056

> <ROCS_Rank>
173                 

$$$$
untitled-dbase-1260_15
  -OEChem-02082415043D

 24 24  0     1  0  0  0  0  0999 V2000
    8.9220    9.9885   24.5976 C   0  0  0  0  0  0  0  0  0  0  0  0
    9.2477    9.9844   23.2413 C   0  0  0  0  0  0  0  0  0  0  0  0
    8.3688   11.1296   25.1787 C   0  0  0  0  0  0  0  0  0  0  0  0
    9.0203   11.1215   22.4661 C   0  0  0  0  0  0  0  0  0  0  0  0
    8.1415   12.2667   24.4034 C   0  0  0  0  0  0  0  0  0  0  0  0
    8.4672   12.2627   23.0471 C   0  0  0  0  0  0  0  0  0  0  0  0
    7.0482   14.3231   22.6877 C   0  0  0  0  0  0  0  0  0  0  0  0
    8.2241   13.4789   22.2188 C   0  0  1  0  0  0  0  0  0  0  0  0
    6.1044   14.5172   21.7013 N   0  0  0  0  0  0  0  0  0  0  0  0
   10.5943   13.5671   21.0248 N   0  0  0  0  0  0  0  0  0  0  0  0
    6.9380   14.7714   23.8261 O   0  0  0  0  0  0  0  0  0  0  0  0
    9.4047   15.7489   21.6891 O   0  0  0  0  0  0  0  0  0  0  0  0
   10.3678   14.2621   23.4911 O   0  0  0  0  0  0  0  0  0  0  0  0
    9.7206   14.4310   22.2047 S   0  0  0  0  0  0  0  0  0  0  0  0
    9.0978    9.1026   25.2008 H   0  0  0  0  0  0  0  0  0  0  0  0
    9.6774    9.0956   22.7885 H   0  0  0  0  0  0  0  0  0  0  0  0
    8.1141   11.1328   26.2343 H   0  0  0  0  0  0  0  0  0  0  0  0
    9.2774   11.1093   21.4102 H   0  0  0  0  0  0  0  0  0  0  0  0
    7.7103   13.1512   24.8647 H   0  0  0  0  0  0  0  0  0  0  0  0
    8.0514   13.2224   21.1595 H   0  0  0  0  0  0  0  0  0  0  0  0
    6.2022   14.1265   20.7696 H   0  0  0  0  0  0  0  0  0  0  0  0
    5.2667   15.0604   21.8817 H   0  0  0  0  0  0  0  0  0  0  0  0
   10.7367   14.0137   20.1106 H   0  0  0  0  0  0  0  0  0  0  0  0
   11.3925   13.0010   21.3379 H   0  0  0  0  0  0  0  0  0  0  0  0
  1  2  1  0  0  0  0
  1  3  2  0  0  0  0
  2  4  2  0  0  0  0
  3  5  1  0  0  0  0
  4  6  1  0  0  0  0
  5  6  2  0  0  0  0
  6  8  1  0  0  0  0
  7  8  1  0  0  0  0
  7  9  1  0  0  0  0
  7 11  2  0  0  0  0
  8 14  1  0  0  0  0
 10 14  1  0  0  0  0
 12 14  2  0  0  0  0
 13 14  2  0  0  0  0
  1 15  1  0  0  0  0
  2 16  1  0  0  0  0
  3 17  1  0  0  0  0
  4 18  1  0  0  0  0
  5 19  1  0  0  0  0
  8 20  1  0  0  0  0
  9 21  1  0  0  0  0
  9 22  1  0  0  0  0
 10 23  1  0  0  0  0
 10 24  1  0  0  0  0
M  END
> <Mol Weight>
214,24

> <Formula>
C8H10N2O3S

> <ID>
EN300-234192

> <name>
Sulfonamides

> <LogP>
-0,47

> <ROCS_ShapeQuery>
x0446_0A_x1080_0A_x0929_0A_x0812_0A_x0719_0A_x1140_0A_x0528_0A_x0310_0A

> <ROCS_TanimotoCombo>
0.347 

> <ROCS_ShapeTanimoto>
0.187 

> <ROCS_ColorTanimoto>
0.160 

> <ROCS_RefTversky>
0.173 

> <ROCS_RefColorTversky>
0.167 

> <ROCS_RefTverskyCombo>
0.340 

> <ROCS_FitTversky>
1.729 

> <ROCS_FitColorTversky>
0.789 

> <ROCS_FitTverskyCombo>
2.518 

> <ROCS_ColorScore>
-5.967

> <ROCS_Overlap>
2040.030

> <ROCS_Rank>
174                 

$$$$
untitled-dbase-2606_235
  -OEChem-02082415043D

 30 30  0     0  0  0  0  0  0999 V2000
    8.9182   10.0563   23.6915 C   0  0  0  0  0  0  0  0  0  0  0  0
    9.8430   10.7995   22.9581 C   0  0  0  0  0  0  0  0  0  0  0  0
    8.7606   12.8414   23.6623 C   0  0  0  0  0  0  0  0  0  0  0  0
    7.9145   10.7056   24.4103 C   0  0  0  0  0  0  0  0  0  0  0  0
    9.7642   12.1920   22.9435 C   0  0  0  0  0  0  0  0  0  0  0  0
    7.8357   12.0981   24.3957 C   0  0  0  0  0  0  0  0  0  0  0  0
   10.4607   14.1694   21.6141 C   0  0  0  0  0  0  0  0  0  0  0  0
    6.9404    9.8802   25.1857 C   0  0  0  0  0  0  0  0  0  0  0  0
    8.5786   13.9666   26.8956 C   0  0  0  0  0  0  0  0  0  0  0  0
   11.6887   14.6841   20.8995 C   0  0  0  0  0  0  0  0  0  0  0  0
   10.6901   12.9346   22.2103 N   0  0  0  0  0  0  0  0  0  0  0  0
    7.3329   13.1915   26.8056 N   0  0  0  0  0  0  0  0  0  0  0  0
    9.4199   14.8211   21.6005 O   0  0  0  0  0  0  0  0  0  0  0  0
    6.3673   14.2393   24.6594 O   0  0  0  0  0  0  0  0  0  0  0  0
    5.4713   12.0294   25.4578 O   0  0  0  0  0  0  0  0  0  0  0  0
    6.5901   12.9447   25.2873 S   0  0  0  0  0  0  0  0  0  0  0  0
   11.6278   14.0970   19.2300 Cl  0  0  0  0  0  0  0  0  0  0  0  0
    8.9885    8.9717   23.6958 H   0  0  0  0  0  0  0  0  0  0  0  0
   10.6213   10.2826   22.4021 H   0  0  0  0  0  0  0  0  0  0  0  0
    8.6998   13.9274   23.6500 H   0  0  0  0  0  0  0  0  0  0  0  0
    7.3096    9.7145   26.2043 H   0  0  0  0  0  0  0  0  0  0  0  0
    5.9621   10.3728   25.2441 H   0  0  0  0  0  0  0  0  0  0  0  0
    6.7794    8.9055   24.7089 H   0  0  0  0  0  0  0  0  0  0  0  0
    8.6360   14.6688   26.0508 H   0  0  0  0  0  0  0  0  0  0  0  0
    8.5931   14.5287   27.8411 H   0  0  0  0  0  0  0  0  0  0  0  0
    9.4392   13.2823   26.8626 H   0  0  0  0  0  0  0  0  0  0  0  0
   12.6199   14.3439   21.3594 H   0  0  0  0  0  0  0  0  0  0  0  0
   11.6756   15.7777   20.8947 H   0  0  0  0  0  0  0  0  0  0  0  0
   11.6205   12.5351   22.1017 H   0  0  0  0  0  0  0  0  0  0  0  0
    7.1770   12.5011   27.5502 H   0  0  0  0  0  0  0  0  0  0  0  0
  1  2  2  0  0  0  0
  1  4  1  0  0  0  0
  2  5  1  0  0  0  0
  3  5  2  0  0  0  0
  3  6  1  0  0  0  0
  4  6  2  0  0  0  0
  4  8  1  0  0  0  0
  5 11  1  0  0  0  0
  6 16  1  0  0  0  0
  7 10  1  0  0  0  0
  7 11  1  0  0  0  0
  7 13  2  0  0  0  0
  9 12  1  0  0  0  0
 10 17  1  0  0  0  0
 12 16  1  0  0  0  0
 14 16  2  0  0  0  0
 15 16  2  0  0  0  0
  1 18  1  0  0  0  0
  2 19  1  0  0  0  0
  3 20  1  0  0  0  0
  8 21  1  0  0  0  0
  8 22  1  0  0  0  0
  8 23  1  0  0  0  0
  9 24  1  0  0  0  0
  9 25  1  0  0  0  0
  9 26  1  0  0  0  0
 10 27  1  0  0  0  0
 10 28  1  0  0  0  0
 11 29  1  0  0  0  0
 12 30  1  0  0  0  0
M  END
> <Mol Weight>
276,74

> <Formula>
C10H13ClN2O3S

> <ID>
EN300-23268

> <name>
Sulfonamides

> <LogP>
1,09

> <ROCS_ShapeQuery>
x0446_0A_x1080_0A_x0929_0A_x0812_0A_x0719_0A_x1140_0A_x0528_0A_x0310_0A

> <ROCS_TanimotoCombo>
0.347 

> <ROCS_ShapeTanimoto>
0.207 

> <ROCS_ColorTanimoto>
0.140 

> <ROCS_RefTversky>
0.190 

> <ROCS_RefColorTversky>
0.149 

> <ROCS_RefTverskyCombo>
0.339 

> <ROCS_FitTversky>
1.737 

> <ROCS_FitColorTversky>
0.702 

> <ROCS_FitTverskyCombo>
2.440 

> <ROCS_ColorScore>
-5.311

> <ROCS_Overlap>
2240.884

> <ROCS_Rank>
175                 

$$$$
untitled-dbase-2472_60
  -OEChem-02082415043D

 29 30  0     0  0  0  0  0  0999 V2000
    9.6191   10.6270   23.7227 C   0  0  0  0  0  0  0  0  0  0  0  0
    8.4099   12.6881   23.3666 C   0  0  0  0  0  0  0  0  0  0  0  0
    8.5061   10.0851   24.3656 C   0  0  0  0  0  0  0  0  0  0  0  0
    7.2969   12.1462   24.0095 C   0  0  0  0  0  0  0  0  0  0  0  0
   12.4443   14.0520   22.9457 C   0  0  0  0  0  0  0  0  0  0  0  0
   12.8824   15.3537   22.8122 C   0  0  0  0  0  0  0  0  0  0  0  0
    9.5710   11.9285   23.2232 C   0  0  0  0  0  0  0  0  0  0  0  0
    7.3451   10.8447   24.5091 C   0  0  0  0  0  0  0  0  0  0  0  0
   11.1811   13.7938   22.4539 C   0  0  0  0  0  0  0  0  0  0  0  0
   10.9371   15.9581   21.8033 C   0  0  0  0  0  0  0  0  0  0  0  0
   12.1523   16.3358   22.2440 N   0  0  0  0  0  0  0  0  0  0  0  0
   10.3970   14.7265   21.8746 N   0  0  0  0  0  0  0  0  0  0  0  0
   10.1441   16.9605   21.2040 N   0  0  0  0  0  0  0  0  0  0  0  0
    5.1280    9.4564   23.9969 N   0  0  0  0  0  0  0  0  0  0  0  0
   10.6961   12.4769   22.5730 N   0  0  0  0  0  0  0  0  0  0  0  0
    6.4060    9.1124   26.2092 O   0  0  0  0  0  0  0  0  0  0  0  0
    5.1427   11.2601   25.8363 O   0  0  0  0  0  0  0  0  0  0  0  0
    5.9517   10.1675   25.3142 S   0  0  0  0  0  0  0  0  0  0  0  0
   10.5188   10.0263   23.6168 H   0  0  0  0  0  0  0  0  0  0  0  0
    8.3613   13.7030   22.9802 H   0  0  0  0  0  0  0  0  0  0  0  0
    8.5550    9.0702   24.7510 H   0  0  0  0  0  0  0  0  0  0  0  0
    6.3976   12.7472   24.1158 H   0  0  0  0  0  0  0  0  0  0  0  0
   13.0619   13.2931   23.4099 H   0  0  0  0  0  0  0  0  0  0  0  0
   13.8619   15.6531   23.1698 H   0  0  0  0  0  0  0  0  0  0  0  0
    9.2549   16.7132   20.8208 H   0  0  0  0  0  0  0  0  0  0  0  0
   10.5243   17.8775   21.0891 H   0  0  0  0  0  0  0  0  0  0  0  0
    5.1201    8.4313   23.9302 H   0  0  0  0  0  0  0  0  0  0  0  0
    4.2590    9.9001   23.6756 H   0  0  0  0  0  0  0  0  0  0  0  0
   11.2677   11.7853   22.0969 H   0  0  0  0  0  0  0  0  0  0  0  0
  1  3  2  0  0  0  0
  1  7  1  0  0  0  0
  2  4  1  0  0  0  0
  2  7  2  0  0  0  0
  3  8  1  0  0  0  0
  4  8  2  0  0  0  0
  5  6  1  0  0  0  0
  5  9  2  0  0  0  0
  6 11  2  0  0  0  0
  7 15  1  0  0  0  0
  8 18  1  0  0  0  0
  9 12  1  0  0  0  0
  9 15  1  0  0  0  0
 10 11  1  0  0  0  0
 10 12  2  0  0  0  0
 10 13  1  0  0  0  0
 14 18  1  0  0  0  0
 16 18  2  0  0  0  0
 17 18  2  0  0  0  0
  1 19  1  0  0  0  0
  2 20  1  0  0  0  0
  3 21  1  0  0  0  0
  4 22  1  0  0  0  0
  5 23  1  0  0  0  0
  6 24  1  0  0  0  0
 13 25  1  0  0  0  0
 13 26  1  0  0  0  0
 14 27  1  0  0  0  0
 14 28  1  0  0  0  0
 15 29  1  0  0  0  0
M  END
> <Mol Weight>
265,29

> <Formula>
C10H11N5O2S

> <ID>
EN300-24853

> <name>
Sulfonamides

> <LogP>
0,54

> <ROCS_ShapeQuery>
x0446_0A_x1080_0A_x0929_0A_x0812_0A_x0719_0A_x1140_0A_x0528_0A_x0310_0A

> <ROCS_TanimotoCombo>
0.347 

> <ROCS_ShapeTanimoto>
0.204 

> <ROCS_ColorTanimoto>
0.142 

> <ROCS_RefTversky>
0.189 

> <ROCS_RefColorTversky>
0.164 

> <ROCS_RefTverskyCombo>
0.353 

> <ROCS_FitTversky>
1.628 

> <ROCS_FitColorTversky>
0.517 

> <ROCS_FitTverskyCombo>
2.145 

> <ROCS_ColorScore>
-5.882

> <ROCS_Overlap>
2234.342

> <ROCS_Rank>
176                 

$$$$
untitled-dbase-2711_488
  -OEChem-02082415043D

 37 38  0     1  0  0  0  0  0999 V2000
    9.7372   11.6847   23.4718 C   0  0  0  0  0  0  0  0  0  0  0  0
    9.4985   10.3175   23.7075 C   0  0  0  0  0  0  0  0  0  0  0  0
    8.5396   12.2957   23.7528 C   0  0  0  0  0  0  0  0  0  0  0  0
    7.6232   14.2449   22.5213 C   0  0  0  0  0  0  0  0  0  0  0  0
    7.6199   15.7375   25.0447 C   0  0  0  0  0  0  0  0  0  0  0  0
    7.5270   16.5117   23.7489 C   0  0  0  0  0  0  0  0  0  0  0  0
    8.5236   14.5335   24.8471 C   0  0  0  0  0  0  0  0  0  0  0  0
    7.0040   15.6325   22.6306 C   0  0  2  0  0  0  0  0  0  0  0  0
   10.4492    9.2026   23.5587 C   0  0  0  0  0  0  0  0  0  0  0  0
    6.3056   11.4317   24.5180 C   0  0  0  0  0  0  0  0  0  0  0  0
    4.4038   16.7913   20.7648 C   0  0  0  0  0  0  0  0  0  0  0  0
    8.2476   10.0739   24.1075 N   0  0  0  0  0  0  0  0  0  0  0  0
    7.6896   11.2963   24.1255 N   0  0  0  0  0  0  0  0  0  0  0  0
    8.1552   13.6894   23.6990 N   0  0  0  0  0  0  0  0  0  0  0  0
    5.5849   15.3986   22.7269 N   0  0  0  0  0  0  0  0  0  0  0  0
    7.5432   13.6612   21.4353 O   0  0  0  0  0  0  0  0  0  0  0  0
    3.4131   14.5267   21.6251 O   0  0  0  0  0  0  0  0  0  0  0  0
    5.5751   14.5016   20.3284 O   0  0  0  0  0  0  0  0  0  0  0  0
    4.6950   15.1210   21.3006 S   0  0  0  0  0  0  0  0  0  0  0  0
   10.6508   12.1600   23.1440 H   0  0  0  0  0  0  0  0  0  0  0  0
    8.0140   16.3754   25.8437 H   0  0  0  0  0  0  0  0  0  0  0  0
    6.6246   15.4053   25.3563 H   0  0  0  0  0  0  0  0  0  0  0  0
    6.8747   17.3968   23.8869 H   0  0  0  0  0  0  0  0  0  0  0  0
    8.5216   16.9168   23.4818 H   0  0  0  0  0  0  0  0  0  0  0  0
    9.5578   14.8638   24.7162 H   0  0  0  0  0  0  0  0  0  0  0  0
    8.4797   13.8932   25.7340 H   0  0  0  0  0  0  0  0  0  0  0  0
    7.1993   16.1243   21.6390 H   0  0  0  0  0  0  0  0  0  0  0  0
   10.9992    9.0172   24.4973 H   0  0  0  0  0  0  0  0  0  0  0  0
    9.9463    8.2604   23.2766 H   0  0  0  0  0  0  0  0  0  0  0  0
   11.1965    9.3944   22.7680 H   0  0  0  0  0  0  0  0  0  0  0  0
    5.6898   11.3429   23.6192 H   0  0  0  0  0  0  0  0  0  0  0  0
    6.0517   10.6455   25.2346 H   0  0  0  0  0  0  0  0  0  0  0  0
    6.1574   12.4073   24.9894 H   0  0  0  0  0  0  0  0  0  0  0  0
    3.8290   16.7603   19.8378 H   0  0  0  0  0  0  0  0  0  0  0  0
    3.8443   17.3104   21.5444 H   0  0  0  0  0  0  0  0  0  0  0  0
    5.3686   17.2734   20.6007 H   0  0  0  0  0  0  0  0  0  0  0  0
    5.1291   15.9409   23.4683 H   0  0  0  0  0  0  0  0  0  0  0  0
  1  2  1  0  0  0  0
  1  3  2  0  0  0  0
  2  9  1  0  0  0  0
  2 12  2  0  0  0  0
  3 13  1  0  0  0  0
  3 14  1  0  0  0  0
  4  8  1  0  0  0  0
  4 14  1  0  0  0  0
  4 16  2  0  0  0  0
  5  6  1  0  0  0  0
  5  7  1  0  0  0  0
  6  8  1  0  0  0  0
  7 14  1  0  0  0  0
  8 15  1  0  0  0  0
 10 13  1  0  0  0  0
 11 19  1  0  0  0  0
 12 13  1  0  0  0  0
 15 19  1  0  0  0  0
 17 19  2  0  0  0  0
 18 19  2  0  0  0  0
  1 20  1  0  0  0  0
  5 21  1  0  0  0  0
  5 22  1  0  0  0  0
  6 23  1  0  0  0  0
  6 24  1  0  0  0  0
  7 25  1  0  0  0  0
  7 26  1  0  0  0  0
  8 27  1  0  0  0  0
  9 28  1  0  0  0  0
  9 29  1  0  0  0  0
  9 30  1  0  0  0  0
 10 31  1  0  0  0  0
 10 32  1  0  0  0  0
 10 33  1  0  0  0  0
 11 34  1  0  0  0  0
 11 35  1  0  0  0  0
 11 36  1  0  0  0  0
 15 37  1  0  0  0  0
M  END
> <Mol Weight>
286,35

> <Formula>
C11H18N4O3S

> <ID>
EN300-158303

> <name>
Sulfonamides

> <LogP>
-1,27

> <ROCS_ShapeQuery>
x0446_0A_x1080_0A_x0929_0A_x0812_0A_x0719_0A_x1140_0A_x0528_0A_x0310_0A

> <ROCS_TanimotoCombo>
0.347 

> <ROCS_ShapeTanimoto>
0.201 

> <ROCS_ColorTanimoto>
0.145 

> <ROCS_RefTversky>
0.187 

> <ROCS_RefColorTversky>
0.157 

> <ROCS_RefTverskyCombo>
0.345 

> <ROCS_FitTversky>
1.574 

> <ROCS_FitColorTversky>
0.659 

> <ROCS_FitTverskyCombo>
2.233 

> <ROCS_ColorScore>
-5.610

> <ROCS_Overlap>
2211.800

> <ROCS_Rank>
177                 

$$$$
untitled-dbase-640_303
  -OEChem-02082415043D

 21 21  0     0  0  0  0  0  0999 V2000
    7.5361   10.8590   24.3594 C   0  0  0  0  0  0  0  0  0  0  0  0
    7.3863   13.7456   22.3651 C   0  0  0  0  0  0  0  0  0  0  0  0
    7.7554   13.3236   23.7884 C   0  0  0  0  0  0  0  0  0  0  0  0
    8.5483   13.6238   21.3888 C   0  0  0  0  0  0  0  0  0  0  0  0
    8.3219    9.8104   24.2746 N   0  0  0  0  0  0  0  0  0  0  0  0
    9.5039   10.2743   23.7427 N   0  0  0  0  0  0  0  0  0  0  0  0
    9.4412   11.5791   23.5067 N   0  0  0  0  0  0  0  0  0  0  0  0
    8.2103   11.9423   23.8931 N   0  0  0  0  0  0  0  0  0  0  0  0
   11.1612   13.9034   21.0072 N   0  0  0  0  0  0  0  0  0  0  0  0
    9.6744   15.9803   21.3113 O   0  0  0  0  0  0  0  0  0  0  0  0
   10.1245   14.4756   23.2908 O   0  0  0  0  0  0  0  0  0  0  0  0
    9.8971   14.6572   21.8677 S   0  0  0  0  0  0  0  0  0  0  0  0
    6.5225   10.8868   24.7315 H   0  0  0  0  0  0  0  0  0  0  0  0
    7.0074   14.7750   22.3587 H   0  0  0  0  0  0  0  0  0  0  0  0
    6.5601   13.1112   22.0204 H   0  0  0  0  0  0  0  0  0  0  0  0
    8.5695   13.9543   24.1660 H   0  0  0  0  0  0  0  0  0  0  0  0
    6.9061   13.4612   24.4678 H   0  0  0  0  0  0  0  0  0  0  0  0
    8.2558   13.9318   20.3806 H   0  0  0  0  0  0  0  0  0  0  0  0
    8.9389   12.6033   21.3492 H   0  0  0  0  0  0  0  0  0  0  0  0
   11.4790   12.9823   21.3332 H   0  0  0  0  0  0  0  0  0  0  0  0
   11.1724   14.0074   19.9851 H   0  0  0  0  0  0  0  0  0  0  0  0
  1  5  2  0  0  0  0
  1  8  1  0  0  0  0
  2  3  1  0  0  0  0
  2  4  1  0  0  0  0
  3  8  1  0  0  0  0
  4 12  1  0  0  0  0
  5  6  1  0  0  0  0
  6  7  2  0  0  0  0
  7  8  1  0  0  0  0
  9 12  1  0  0  0  0
 10 12  2  0  0  0  0
 11 12  2  0  0  0  0
  1 13  1  0  0  0  0
  2 14  1  0  0  0  0
  2 15  1  0  0  0  0
  3 16  1  0  0  0  0
  3 17  1  0  0  0  0
  4 18  1  0  0  0  0
  4 19  1  0  0  0  0
  9 20  1  0  0  0  0
  9 21  1  0  0  0  0
M  END
> <Mol Weight>
191,21

> <Formula>
C4H9N5O2S

> <ID>
EN300-1698504

> <name>
Sulfonamides

> <LogP>
-2,14

> <ROCS_ShapeQuery>
x0446_0A_x1080_0A_x0929_0A_x0812_0A_x0719_0A_x1140_0A_x0528_0A_x0310_0A

> <ROCS_TanimotoCombo>
0.346 

> <ROCS_ShapeTanimoto>
0.173 

> <ROCS_ColorTanimoto>
0.173 

> <ROCS_RefTversky>
0.161 

> <ROCS_RefColorTversky>
0.185 

> <ROCS_RefTverskyCombo>
0.347 

> <ROCS_FitTversky>
1.744 

> <ROCS_FitColorTversky>
0.724 

> <ROCS_FitTverskyCombo>
2.468 

> <ROCS_ColorScore>
-6.617

> <ROCS_Overlap>
1902.469

> <ROCS_Rank>
178                 

$$$$
untitled-dbase-1776_7
  -OEChem-02082415043D

 28 29  0     0  0  0  0  0  0999 V2000
    9.2059   10.9669   23.2263 C   0  0  0  0  0  0  0  0  0  0  0  0
    9.0068   12.3539   23.3824 C   0  0  0  0  0  0  0  0  0  0  0  0
    7.8577   12.4583   24.1313 C   0  0  0  0  0  0  0  0  0  0  0  0
    6.2507   10.7979   25.0728 C   0  0  0  0  0  0  0  0  0  0  0  0
    6.1928   13.2478   25.5761 C   0  0  0  0  0  0  0  0  0  0  0  0
    5.3191   12.0117   25.2617 C   0  0  0  0  0  0  0  0  0  0  0  0
    4.3547   11.7472   26.4268 C   0  0  0  0  0  0  0  0  0  0  0  0
    4.4946   12.2543   23.9823 C   0  0  0  0  0  0  0  0  0  0  0  0
    8.2539   10.2376   23.8163 N   0  0  0  0  0  0  0  0  0  0  0  0
    7.4446   11.1717   24.3425 N   0  0  0  0  0  0  0  0  0  0  0  0
   11.2154   12.7669   21.9485 N   0  0  0  0  0  0  0  0  0  0  0  0
    9.2207   14.3908   21.7766 O   0  0  0  0  0  0  0  0  0  0  0  0
   10.6007   14.3519   23.8841 O   0  0  0  0  0  0  0  0  0  0  0  0
    7.1747   13.5193   24.5649 O   0  0  0  0  0  0  0  0  0  0  0  0
    9.9712   13.6144   22.7767 S   0  0  0  0  0  0  0  0  0  0  0  0
   10.0058   10.4555   22.7097 H   0  0  0  0  0  0  0  0  0  0  0  0
    6.5572   10.3655   26.0319 H   0  0  0  0  0  0  0  0  0  0  0  0
    5.7683   10.0151   24.4750 H   0  0  0  0  0  0  0  0  0  0  0  0
    5.5729   14.1459   25.6969 H   0  0  0  0  0  0  0  0  0  0  0  0
    6.7326   13.1045   26.5191 H   0  0  0  0  0  0  0  0  0  0  0  0
    3.7045   12.6056   26.5514 H   0  0  0  0  0  0  0  0  0  0  0  0
    4.9281   11.5858   27.3325 H   0  0  0  0  0  0  0  0  0  0  0  0
    3.7626   10.8667   26.2046 H   0  0  0  0  0  0  0  0  0  0  0  0
    3.8436   13.1111   24.1292 H   0  0  0  0  0  0  0  0  0  0  0  0
    3.8942   11.3751   23.7675 H   0  0  0  0  0  0  0  0  0  0  0  0
    5.1664   12.4472   23.1509 H   0  0  0  0  0  0  0  0  0  0  0  0
   11.2144   12.7769   20.9212 H   0  0  0  0  0  0  0  0  0  0  0  0
   12.1554   12.7497   22.3625 H   0  0  0  0  0  0  0  0  0  0  0  0
  1  2  1  0  0  0  0
  1  9  2  0  0  0  0
  2  3  2  0  0  0  0
  2 15  1  0  0  0  0
  3 10  1  0  0  0  0
  3 14  1  0  0  0  0
  4  6  1  0  0  0  0
  4 10  1  0  0  0  0
  5  6  1  0  0  0  0
  5 14  1  0  0  0  0
  6  7  1  0  0  0  0
  6  8  1  0  0  0  0
  9 10  1  0  0  0  0
 11 15  1  0  0  0  0
 12 15  2  0  0  0  0
 13 15  2  0  0  0  0
  1 16  1  0  0  0  0
  4 17  1  0  0  0  0
  4 18  1  0  0  0  0
  5 19  1  0  0  0  0
  5 20  1  0  0  0  0
  7 21  1  0  0  0  0
  7 22  1  0  0  0  0
  7 23  1  0  0  0  0
  8 24  1  0  0  0  0
  8 25  1  0  0  0  0
  8 26  1  0  0  0  0
 11 27  1  0  0  0  0
 11 28  1  0  0  0  0
M  END
> <Mol Weight>
231,27

> <Formula>
C8H13N3O3S

> <ID>
EN300-396325

> <name>
Sulfonamides

> <LogP>
-0,20

> <ROCS_ShapeQuery>
x0446_0A_x1080_0A_x0929_0A_x0812_0A_x0719_0A_x1140_0A_x0528_0A_x0310_0A

> <ROCS_TanimotoCombo>
0.346 

> <ROCS_ShapeTanimoto>
0.193 

> <ROCS_ColorTanimoto>
0.153 

> <ROCS_RefTversky>
0.179 

> <ROCS_RefColorTversky>
0.168 

> <ROCS_RefTverskyCombo>
0.347 

> <ROCS_FitTversky>
1.699 

> <ROCS_FitColorTversky>
0.632 

> <ROCS_FitTverskyCombo>
2.331 

> <ROCS_ColorScore>
-5.995

> <ROCS_Overlap>
2113.537

> <ROCS_Rank>
179                 

$$$$
untitled-dbase-2415_92
  -OEChem-02082415043D

 27 27  0     0  0  0  0  0  0999 V2000
    8.9285   10.0601   23.6851 C   0  0  0  0  0  0  0  0  0  0  0  0
    9.8518   10.8071   22.9536 C   0  0  0  0  0  0  0  0  0  0  0  0
    8.7608   12.8446   23.6574 C   0  0  0  0  0  0  0  0  0  0  0  0
    7.9213   10.7053   24.4027 C   0  0  0  0  0  0  0  0  0  0  0  0
    9.7680   12.1994   22.9398 C   0  0  0  0  0  0  0  0  0  0  0  0
    7.8375   12.0976   24.3889 C   0  0  0  0  0  0  0  0  0  0  0  0
   10.4594   14.1801   21.6127 C   0  0  0  0  0  0  0  0  0  0  0  0
    6.9490    9.8760   25.1761 C   0  0  0  0  0  0  0  0  0  0  0  0
   11.6866   14.6997   20.9003 C   0  0  0  0  0  0  0  0  0  0  0  0
    7.3620   13.1662   26.7840 N   0  0  0  0  0  0  0  0  0  0  0  0
   10.6923   12.9458   22.2085 N   0  0  0  0  0  0  0  0  0  0  0  0
    9.4162   14.8280   21.5978 O   0  0  0  0  0  0  0  0  0  0  0  0
    6.3791   14.2367   24.6548 O   0  0  0  0  0  0  0  0  0  0  0  0
    5.4646   12.0318   25.4611 O   0  0  0  0  0  0  0  0  0  0  0  0
    6.5874   12.9391   25.2789 S   0  0  0  0  0  0  0  0  0  0  0  0
   12.1221   13.5255   19.6484 Cl  0  0  0  0  0  0  0  0  0  0  0  0
    9.0028    8.9757   23.6889 H   0  0  0  0  0  0  0  0  0  0  0  0
   10.6329   10.2934   22.3987 H   0  0  0  0  0  0  0  0  0  0  0  0
    8.6961   13.9305   23.6456 H   0  0  0  0  0  0  0  0  0  0  0  0
    7.3173    9.7109   26.1952 H   0  0  0  0  0  0  0  0  0  0  0  0
    5.9688   10.3649   25.2332 H   0  0  0  0  0  0  0  0  0  0  0  0
    6.7924    8.9009   24.6985 H   0  0  0  0  0  0  0  0  0  0  0  0
   12.5397   14.8342   21.5701 H   0  0  0  0  0  0  0  0  0  0  0  0
   11.4544   15.6578   20.4267 H   0  0  0  0  0  0  0  0  0  0  0  0
    7.6580   14.1176   27.0341 H   0  0  0  0  0  0  0  0  0  0  0  0
    7.0339   12.6100   27.5830 H   0  0  0  0  0  0  0  0  0  0  0  0
   11.6243   12.5497   22.1012 H   0  0  0  0  0  0  0  0  0  0  0  0
  1  2  2  0  0  0  0
  1  4  1  0  0  0  0
  2  5  1  0  0  0  0
  3  5  2  0  0  0  0
  3  6  1  0  0  0  0
  4  6  2  0  0  0  0
  4  8  1  0  0  0  0
  5 11  1  0  0  0  0
  6 15  1  0  0  0  0
  7  9  1  0  0  0  0
  7 11  1  0  0  0  0
  7 12  2  0  0  0  0
  9 16  1  0  0  0  0
 10 15  1  0  0  0  0
 13 15  2  0  0  0  0
 14 15  2  0  0  0  0
  1 17  1  0  0  0  0
  2 18  1  0  0  0  0
  3 19  1  0  0  0  0
  8 20  1  0  0  0  0
  8 21  1  0  0  0  0
  8 22  1  0  0  0  0
  9 23  1  0  0  0  0
  9 24  1  0  0  0  0
 10 25  1  0  0  0  0
 10 26  1  0  0  0  0
 11 27  1  0  0  0  0
M  END
> <Mol Weight>
262,71

> <Formula>
C9H11ClN2O3S

> <ID>
EN300-12408

> <name>
Sulfonamides

> <LogP>
0,87

> <ROCS_ShapeQuery>
x0446_0A_x1080_0A_x0929_0A_x0812_0A_x0719_0A_x1140_0A_x0528_0A_x0310_0A

> <ROCS_TanimotoCombo>
0.346 

> <ROCS_ShapeTanimoto>
0.206 

> <ROCS_ColorTanimoto>
0.140 

> <ROCS_RefTversky>
0.189 

> <ROCS_RefColorTversky>
0.149 

> <ROCS_RefTverskyCombo>
0.338 

> <ROCS_FitTversky>
1.779 

> <ROCS_FitColorTversky>
0.703 

> <ROCS_FitTverskyCombo>
2.482 

> <ROCS_ColorScore>
-5.315

> <ROCS_Overlap>
2227.548

> <ROCS_Rank>
180                 

$$$$
untitled-dbase-2641_0
  -OEChem-02082415043D

 23 23  0     0  0  0  0  0  0999 V2000
    8.1356   10.4589   24.0351 C   0  0  0  0  0  0  0  0  0  0  0  0
    9.6561   11.5547   22.5106 C   0  0  0  0  0  0  0  0  0  0  0  0
    9.0706   10.3881   23.0025 C   0  0  0  0  0  0  0  0  0  0  0  0
    7.7859   11.6963   24.5758 C   0  0  0  0  0  0  0  0  0  0  0  0
    9.3065   12.7921   23.0513 C   0  0  0  0  0  0  0  0  0  0  0  0
    8.3714   12.8628   24.0839 C   0  0  0  0  0  0  0  0  0  0  0  0
    9.4353    9.0980   22.4389 C   0  0  0  0  0  0  0  0  0  0  0  0
   10.3730    9.0823   21.4104 N   0  0  0  0  0  0  0  0  0  0  0  0
   11.0834   13.5116   21.1994 N   0  0  0  0  0  0  0  0  0  0  0  0
    6.8266   11.7215   25.6277 N   0  3  0  0  0  0  0  0  0  0  0  0
    7.2263   11.6381   26.8122 O   0  5  0  0  0  0  0  0  0  0  0  0
    8.9180    8.0430   22.8463 O   0  0  0  0  0  0  0  0  0  0  0  0
    5.6126   11.8259   25.3357 O   0  0  0  0  0  0  0  0  0  0  0  0
    9.0619   15.0208   21.7297 O   0  0  0  0  0  0  0  0  0  0  0  0
   10.9170   14.8055   23.4208 O   0  0  0  0  0  0  0  0  0  0  0  0
   10.0805   14.2179   22.3868 S   0  0  0  0  0  0  0  0  0  0  0  0
    7.9347   14.4020   24.7586 Cl  0  0  0  0  0  0  0  0  0  0  0  0
    7.6816    9.5460   24.4162 H   0  0  0  0  0  0  0  0  0  0  0  0
   10.3851   11.4966   21.7051 H   0  0  0  0  0  0  0  0  0  0  0  0
   10.6444    8.1952   21.0003 H   0  0  0  0  0  0  0  0  0  0  0  0
   10.7911    9.9388   21.0618 H   0  0  0  0  0  0  0  0  0  0  0  0
   10.8303   13.6482   20.2131 H   0  0  0  0  0  0  0  0  0  0  0  0
   12.0963   13.5003   21.3703 H   0  0  0  0  0  0  0  0  0  0  0  0
  1  3  1  0  0  0  0
  1  4  2  0  0  0  0
  2  3  2  0  0  0  0
  2  5  1  0  0  0  0
  3  7  1  0  0  0  0
  4  6  1  0  0  0  0
  4 10  1  0  0  0  0
  5  6  2  0  0  0  0
  5 16  1  0  0  0  0
  6 17  1  0  0  0  0
  7  8  1  0  0  0  0
  7 12  2  0  0  0  0
  9 16  1  0  0  0  0
 10 11  1  0  0  0  0
 10 13  2  0  0  0  0
 14 16  2  0  0  0  0
 15 16  2  0  0  0  0
  1 18  1  0  0  0  0
  2 19  1  0  0  0  0
  8 20  1  0  0  0  0
  8 21  1  0  0  0  0
  9 22  1  0  0  0  0
  9 23  1  0  0  0  0
M  CHG  2  10   1  11  -1
M  END
> <Mol Weight>
279,65

> <Formula>
C7H6ClN3O5S

> <ID>
EN300-277778

> <name>
Sulfonamides

> <LogP>
-0,03

> <ROCS_ShapeQuery>
x0446_0A_x1080_0A_x0929_0A_x0812_0A_x0719_0A_x1140_0A_x0528_0A_x0310_0A

> <ROCS_TanimotoCombo>
0.346 

> <ROCS_ShapeTanimoto>
0.215 

> <ROCS_ColorTanimoto>
0.131 

> <ROCS_RefTversky>
0.197 

> <ROCS_RefColorTversky>
0.147 

> <ROCS_RefTverskyCombo>
0.343 

> <ROCS_FitTversky>
1.770 

> <ROCS_FitColorTversky>
0.553 

> <ROCS_FitTverskyCombo>
2.323 

> <ROCS_ColorScore>
-5.240

> <ROCS_Overlap>
2320.437

> <ROCS_Rank>
181                 

$$$$
untitled-dbase-1474_528
  -OEChem-02082415043D

 30 30  0     0  0  0  0  0  0999 V2000
   10.5542   13.1444   23.2764 C   0  0  0  0  0  0  0  0  0  0  0  0
    7.8874   10.0319   24.2360 C   0  0  0  0  0  0  0  0  0  0  0  0
    7.7338   11.4718   24.7232 C   0  0  0  0  0  0  0  0  0  0  0  0
    9.3163    9.7639   23.7658 C   0  0  0  0  0  0  0  0  0  0  0  0
    8.2068   12.4657   23.6660 C   0  0  0  0  0  0  0  0  0  0  0  0
    9.7608   10.7909   22.7267 C   0  0  0  0  0  0  0  0  0  0  0  0
   11.1962   15.9820   19.5419 C   0  0  0  0  0  0  0  0  0  0  0  0
   11.6546   13.0503   22.2498 C   0  0  0  0  0  0  0  0  0  0  0  0
    9.5705   12.1571   23.2302 N   0  0  0  0  0  0  0  0  0  0  0  0
   11.2263   13.7963   21.1057 N   0  0  0  0  0  0  0  0  0  0  0  0
   10.5711   14.0671   24.0951 O   0  0  0  0  0  0  0  0  0  0  0  0
   11.9585   16.0994   22.0430 O   0  0  0  0  0  0  0  0  0  0  0  0
    9.5207   15.7195   21.5240 O   0  0  0  0  0  0  0  0  0  0  0  0
   10.9226   15.4933   21.2296 S   0  0  0  0  0  0  0  0  0  0  0  0
    7.6231    9.3364   25.0404 H   0  0  0  0  0  0  0  0  0  0  0  0
    7.1898    9.8488   23.4096 H   0  0  0  0  0  0  0  0  0  0  0  0
    6.6840   11.6664   24.9697 H   0  0  0  0  0  0  0  0  0  0  0  0
    8.3122   11.6132   25.6444 H   0  0  0  0  0  0  0  0  0  0  0  0
    9.9989    9.7928   24.6244 H   0  0  0  0  0  0  0  0  0  0  0  0
    9.3791    8.7565   23.3395 H   0  0  0  0  0  0  0  0  0  0  0  0
    7.5623   12.4187   22.7801 H   0  0  0  0  0  0  0  0  0  0  0  0
    8.1440   13.4842   24.0620 H   0  0  0  0  0  0  0  0  0  0  0  0
   10.7980   10.5973   22.4479 H   0  0  0  0  0  0  0  0  0  0  0  0
    9.1580   10.6966   21.8155 H   0  0  0  0  0  0  0  0  0  0  0  0
   11.0362   17.0585   19.4648 H   0  0  0  0  0  0  0  0  0  0  0  0
   12.2222   15.7276   19.2717 H   0  0  0  0  0  0  0  0  0  0  0  0
   10.4892   15.4439   18.9087 H   0  0  0  0  0  0  0  0  0  0  0  0
   11.8007   12.0025   22.0047 H   0  0  0  0  0  0  0  0  0  0  0  0
   12.5573   13.4732   22.6807 H   0  0  0  0  0  0  0  0  0  0  0  0
   10.5919   13.2954   20.4414 H   0  0  0  0  0  0  0  0  0  0  0  0
  1  8  1  0  0  0  0
  1  9  1  0  0  0  0
  1 11  2  0  0  0  0
  2  3  1  0  0  0  0
  2  4  1  0  0  0  0
  3  5  1  0  0  0  0
  4  6  1  0  0  0  0
  5  9  1  0  0  0  0
  6  9  1  0  0  0  0
  7 14  1  0  0  0  0
  8 10  1  0  0  0  0
 10 14  1  0  0  0  0
 12 14  2  0  0  0  0
 13 14  2  0  0  0  0
  2 15  1  0  0  0  0
  2 16  1  0  0  0  0
  3 17  1  0  0  0  0
  3 18  1  0  0  0  0
  4 19  1  0  0  0  0
  4 20  1  0  0  0  0
  5 21  1  0  0  0  0
  5 22  1  0  0  0  0
  6 23  1  0  0  0  0
  6 24  1  0  0  0  0
  7 25  1  0  0  0  0
  7 26  1  0  0  0  0
  7 27  1  0  0  0  0
  8 28  1  0  0  0  0
  8 29  1  0  0  0  0
 10 30  1  0  0  0  0
M  END
> <Mol Weight>
220,29

> <Formula>
C8H16N2O3S

> <ID>
EN300-7530328

> <name>
Sulfonamides

> <LogP>
-1,34

> <ROCS_ShapeQuery>
x0446_0A_x1080_0A_x0929_0A_x0812_0A_x0719_0A_x1140_0A_x0528_0A_x0310_0A

> <ROCS_TanimotoCombo>
0.346 

> <ROCS_ShapeTanimoto>
0.187 

> <ROCS_ColorTanimoto>
0.159 

> <ROCS_RefTversky>
0.173 

> <ROCS_RefColorTversky>
0.163 

> <ROCS_RefTverskyCombo>
0.336 

> <ROCS_FitTversky>
1.760 

> <ROCS_FitColorTversky>
0.877 

> <ROCS_FitTverskyCombo>
2.637 

> <ROCS_ColorScore>
-5.801

> <ROCS_Overlap>
2037.668

> <ROCS_Rank>
182                 

$$$$
untitled-dbase-1325_0
  -OEChem-02082415043D

 18 19  0     0  0  0  0  0  0999 V2000
    7.0418   11.6558   21.1238 C   0  0  0  0  0  0  0  0  0  0  0  0
    7.0948   10.6175   22.0693 C   0  0  0  0  0  0  0  0  0  0  0  0
    7.8999   12.7802   21.1556 C   0  0  0  0  0  0  0  0  0  0  0  0
    8.0740   10.7535   23.0825 C   0  0  0  0  0  0  0  0  0  0  0  0
    8.9893   11.9527   23.1163 C   0  0  0  0  0  0  0  0  0  0  0  0
    8.8892   12.9687   22.1355 C   0  0  0  0  0  0  0  0  0  0  0  0
    8.3037    9.8891   24.0838 N   0  0  0  0  0  0  0  0  0  0  0  0
    9.8564   11.9228   24.1411 N   0  0  0  0  0  0  0  0  0  0  0  0
   11.1973   13.8385   21.1253 N   0  0  0  0  0  0  0  0  0  0  0  0
    9.1918   15.4390   21.3744 O   0  0  0  0  0  0  0  0  0  0  0  0
   10.3988   14.6445   23.4382 O   0  0  0  0  0  0  0  0  0  0  0  0
    9.5499   10.5228   24.9800 S   0  0  0  0  0  0  0  0  0  0  0  0
    9.9012   14.3894   22.0932 S   0  0  0  0  0  0  0  0  0  0  0  0
    6.3030   11.5929   20.3259 H   0  0  0  0  0  0  0  0  0  0  0  0
    6.4234    9.7686   22.0180 H   0  0  0  0  0  0  0  0  0  0  0  0
    7.7775   13.5311   20.3754 H   0  0  0  0  0  0  0  0  0  0  0  0
   11.2785   14.2106   20.1711 H   0  0  0  0  0  0  0  0  0  0  0  0
   12.1012   13.6666   21.5821 H   0  0  0  0  0  0  0  0  0  0  0  0
  1  2  2  0  0  0  0
  1  3  1  0  0  0  0
  2  4  1  0  0  0  0
  3  6  2  0  0  0  0
  4  5  1  0  0  0  0
  4  7  2  0  0  0  0
  5  6  1  0  0  0  0
  5  8  2  0  0  0  0
  6 13  1  0  0  0  0
  7 12  1  0  0  0  0
  8 12  1  0  0  0  0
  9 13  1  0  0  0  0
 10 13  2  0  0  0  0
 11 13  2  0  0  0  0
  1 14  1  0  0  0  0
  2 15  1  0  0  0  0
  3 16  1  0  0  0  0
  9 17  1  0  0  0  0
  9 18  1  0  0  0  0
M  END
> <Mol Weight>
215,25

> <Formula>
C6H5N3O2S2

> <ID>
EN300-197137

> <name>
Sulfonamides

> <LogP>
0,72

> <ROCS_ShapeQuery>
x0446_0A_x1080_0A_x0929_0A_x0812_0A_x0719_0A_x1140_0A_x0528_0A_x0310_0A

> <ROCS_TanimotoCombo>
0.346 

> <ROCS_ShapeTanimoto>
0.145 

> <ROCS_ColorTanimoto>
0.201 

> <ROCS_RefTversky>
0.139 

> <ROCS_RefColorTversky>
0.208 

> <ROCS_RefTverskyCombo>
0.346 

> <ROCS_FitTversky>
1.429 

> <ROCS_FitColorTversky>
0.869 

> <ROCS_FitTverskyCombo>
2.297 

> <ROCS_ColorScore>
-7.413

> <ROCS_Overlap>
1635.083

> <ROCS_Rank>
183                 

$$$$
untitled-dbase-2632_775
  -OEChem-02082415043D

 40 40  0     1  0  0  0  0  0999 V2000
    7.0642   12.7631   24.7421 C   0  0  0  0  0  0  0  0  0  0  0  0
    9.5156   10.1941   24.2804 C   0  0  0  0  0  0  0  0  0  0  0  0
   10.0671   10.4976   22.8860 C   0  0  0  0  0  0  0  0  0  0  0  0
    8.0243   10.5040   24.3657 C   0  0  0  0  0  0  0  0  0  0  0  0
    8.2177   12.1893   22.5633 C   0  0  0  0  0  0  0  0  0  0  0  0
    9.7222   11.9196   22.4120 C   0  0  1  0  0  0  0  0  0  0  0  0
    8.2644   14.3957   26.7629 C   0  0  0  0  0  0  0  0  0  0  0  0
    7.8105   16.3214   25.2153 C   0  0  0  0  0  0  0  0  0  0  0  0
    5.8976   14.9805   26.1376 C   0  0  0  0  0  0  0  0  0  0  0  0
   10.5488   12.9781   23.1482 C   0  0  0  0  0  0  0  0  0  0  0  0
    7.3499   14.9365   25.6647 C   0  0  0  0  0  0  0  0  0  0  0  0
    7.7496   11.8678   23.9165 N   0  0  0  0  0  0  0  0  0  0  0  0
   11.3276   13.9396   20.7987 N   0  0  0  0  0  0  0  0  0  0  0  0
    6.2205   12.4322   25.5732 O   0  0  0  0  0  0  0  0  0  0  0  0
    9.2329   14.8908   21.9493 O   0  0  0  0  0  0  0  0  0  0  0  0
   11.5144   15.3946   22.9117 O   0  0  0  0  0  0  0  0  0  0  0  0
    7.4342   14.0649   24.5312 O   0  0  0  0  0  0  0  0  0  0  0  0
   10.5987   14.4839   22.2420 S   0  0  0  0  0  0  0  0  0  0  0  0
    9.6860    9.1377   24.5217 H   0  0  0  0  0  0  0  0  0  0  0  0
   10.0589   10.7854   25.0258 H   0  0  0  0  0  0  0  0  0  0  0  0
   11.1625   10.3615   22.8939 H   0  0  0  0  0  0  0  0  0  0  0  0
    9.6727    9.7574   22.1701 H   0  0  0  0  0  0  0  0  0  0  0  0
    7.4635    9.7662   23.7830 H   0  0  0  0  0  0  0  0  0  0  0  0
    7.6775   10.4275   25.4043 H   0  0  0  0  0  0  0  0  0  0  0  0
    7.9905   13.2497   22.3887 H   0  0  0  0  0  0  0  0  0  0  0  0
    7.6552   11.6125   21.8193 H   0  0  0  0  0  0  0  0  0  0  0  0
    9.9724   11.9924   21.3350 H   0  0  0  0  0  0  0  0  0  0  0  0
    7.9371   13.4017   27.0882 H   0  0  0  0  0  0  0  0  0  0  0  0
    9.3034   14.3263   26.4248 H   0  0  0  0  0  0  0  0  0  0  0  0
    8.2315   15.0378   27.6505 H   0  0  0  0  0  0  0  0  0  0  0  0
    7.1572   16.7133   24.4274 H   0  0  0  0  0  0  0  0  0  0  0  0
    8.8185   16.2776   24.7871 H   0  0  0  0  0  0  0  0  0  0  0  0
    7.8175   17.0342   26.0463 H   0  0  0  0  0  0  0  0  0  0  0  0
    5.2414   15.3683   25.3500 H   0  0  0  0  0  0  0  0  0  0  0  0
    5.5382   13.9883   26.4293 H   0  0  0  0  0  0  0  0  0  0  0  0
    5.7867   15.6565   26.9932 H   0  0  0  0  0  0  0  0  0  0  0  0
   11.5733   12.6340   23.2764 H   0  0  0  0  0  0  0  0  0  0  0  0
   10.1091   13.1903   24.1207 H   0  0  0  0  0  0  0  0  0  0  0  0
   12.3223   13.6847   20.8332 H   0  0  0  0  0  0  0  0  0  0  0  0
   10.7684   13.3418   20.1778 H   0  0  0  0  0  0  0  0  0  0  0  0
  1 12  1  0  0  0  0
  1 14  2  0  0  0  0
  1 17  1  0  0  0  0
  2  3  1  0  0  0  0
  2  4  1  0  0  0  0
  3  6  1  0  0  0  0
  4 12  1  0  0  0  0
  5  6  1  0  0  0  0
  5 12  1  0  0  0  0
  6 10  1  6  0  0  0
  7 11  1  0  0  0  0
  8 11  1  0  0  0  0
  9 11  1  0  0  0  0
 10 18  1  0  0  0  0
 11 17  1  0  0  0  0
 13 18  1  0  0  0  0
 15 18  2  0  0  0  0
 16 18  2  0  0  0  0
  2 19  1  0  0  0  0
  2 20  1  0  0  0  0
  3 21  1  0  0  0  0
  3 22  1  0  0  0  0
  4 23  1  0  0  0  0
  4 24  1  0  0  0  0
  5 25  1  0  0  0  0
  5 26  1  0  0  0  0
  6 27  1  0  0  0  0
  7 28  1  0  0  0  0
  7 29  1  0  0  0  0
  7 30  1  0  0  0  0
  8 31  1  0  0  0  0
  8 32  1  0  0  0  0
  8 33  1  0  0  0  0
  9 34  1  0  0  0  0
  9 35  1  0  0  0  0
  9 36  1  0  0  0  0
 10 37  1  0  0  0  0
 10 38  1  0  0  0  0
 13 39  1  0  0  0  0
 13 40  1  0  0  0  0
M  END
> <Mol Weight>
278,37

> <Formula>
C11H22N2O4S

> <ID>
EN300-28309212

> <name>
Sulfonamides

> <LogP>
0,05

> <ROCS_ShapeQuery>
x0446_0A_x1080_0A_x0929_0A_x0812_0A_x0719_0A_x1140_0A_x0528_0A_x0310_0A

> <ROCS_TanimotoCombo>
0.346 

> <ROCS_ShapeTanimoto>
0.214 

> <ROCS_ColorTanimoto>
0.132 

> <ROCS_RefTversky>
0.196 

> <ROCS_RefColorTversky>
0.141 

> <ROCS_RefTverskyCombo>
0.337 

> <ROCS_FitTversky>
1.743 

> <ROCS_FitColorTversky>
0.666 

> <ROCS_FitTverskyCombo>
2.409 

> <ROCS_ColorScore>
-5.036

> <ROCS_Overlap>
2314.318

> <ROCS_Rank>
184                 

$$$$
untitled-dbase-2119_151
  -OEChem-02082415043D

 30 30  0     0  0  0  0  0  0999 V2000
    8.2242   12.6894   23.9582 C   0  0  0  0  0  0  0  0  0  0  0  0
    9.2571   12.7044   22.9887 C   0  0  0  0  0  0  0  0  0  0  0  0
    7.8372   11.3782   24.1267 C   0  0  0  0  0  0  0  0  0  0  0  0
    9.4699   11.4019   22.5941 C   0  0  0  0  0  0  0  0  0  0  0  0
    6.8328   10.8451   24.9934 C   0  0  0  0  0  0  0  0  0  0  0  0
    7.6641   13.8631   24.6612 C   0  0  0  0  0  0  0  0  0  0  0  0
   10.4148   10.8238   21.6191 C   0  0  0  0  0  0  0  0  0  0  0  0
    7.6850    9.4797   27.7383 C   0  0  0  0  0  0  0  0  0  0  0  0
    6.6392    9.1540   26.6934 C   0  0  0  0  0  0  0  0  0  0  0  0
    8.6010   10.6045   23.2922 N   0  0  0  0  0  0  0  0  0  0  0  0
   11.1830   13.3950   21.2803 N   0  0  0  0  0  0  0  0  0  0  0  0
    5.7951   11.4451   25.3555 O   0  0  0  0  0  0  0  0  0  0  0  0
    9.1630   14.9478   21.6728 O   0  0  0  0  0  0  0  0  0  0  0  0
   10.8818   14.6764   23.4948 O   0  0  0  0  0  0  0  0  0  0  0  0
    7.1202    9.5636   25.4087 O   0  0  0  0  0  0  0  0  0  0  0  0
   10.0887   14.0791   22.4120 S   0  0  0  0  0  0  0  0  0  0  0  0
    6.8141   14.2884   24.1045 H   0  0  0  0  0  0  0  0  0  0  0  0
    7.3096   13.6062   25.6731 H   0  0  0  0  0  0  0  0  0  0  0  0
    8.4141   14.6606   24.7924 H   0  0  0  0  0  0  0  0  0  0  0  0
   11.3697   10.5568   22.1011 H   0  0  0  0  0  0  0  0  0  0  0  0
   10.0134    9.9125   21.1436 H   0  0  0  0  0  0  0  0  0  0  0  0
   10.6394   11.5231   20.7954 H   0  0  0  0  0  0  0  0  0  0  0  0
    8.6206    8.9526   27.5316 H   0  0  0  0  0  0  0  0  0  0  0  0
    7.8838   10.5562   27.7630 H   0  0  0  0  0  0  0  0  0  0  0  0
    7.3339    9.1980   28.7366 H   0  0  0  0  0  0  0  0  0  0  0  0
    5.7062    9.6844   26.9060 H   0  0  0  0  0  0  0  0  0  0  0  0
    6.4424    8.0780   26.6695 H   0  0  0  0  0  0  0  0  0  0  0  0
    8.5342    9.5994   23.2054 H   0  0  0  0  0  0  0  0  0  0  0  0
   11.0072   13.5448   20.2792 H   0  0  0  0  0  0  0  0  0  0  0  0
   12.1799   13.3585   21.5257 H   0  0  0  0  0  0  0  0  0  0  0  0
  1  2  1  0  0  0  0
  1  3  2  0  0  0  0
  1  6  1  0  0  0  0
  2  4  2  0  0  0  0
  2 16  1  0  0  0  0
  3  5  1  0  0  0  0
  3 10  1  0  0  0  0
  4  7  1  0  0  0  0
  4 10  1  0  0  0  0
  5 12  2  0  0  0  0
  5 15  1  0  0  0  0
  8  9  1  0  0  0  0
  9 15  1  0  0  0  0
 11 16  1  0  0  0  0
 13 16  2  0  0  0  0
 14 16  2  0  0  0  0
  6 17  1  0  0  0  0
  6 18  1  0  0  0  0
  6 19  1  0  0  0  0
  7 20  1  0  0  0  0
  7 21  1  0  0  0  0
  7 22  1  0  0  0  0
  8 23  1  0  0  0  0
  8 24  1  0  0  0  0
  8 25  1  0  0  0  0
  9 26  1  0  0  0  0
  9 27  1  0  0  0  0
 10 28  1  0  0  0  0
 11 29  1  0  0  0  0
 11 30  1  0  0  0  0
M  END
> <Mol Weight>
246,28

> <Formula>
C9H14N2O4S

> <ID>
EN300-1618086

> <name>
Sulfonamides

> <LogP>
0,65

> <ROCS_ShapeQuery>
x0446_0A_x1080_0A_x0929_0A_x0812_0A_x0719_0A_x1140_0A_x0528_0A_x0310_0A

> <ROCS_TanimotoCombo>
0.346 

> <ROCS_ShapeTanimoto>
0.195 

> <ROCS_ColorTanimoto>
0.151 

> <ROCS_RefTversky>
0.180 

> <ROCS_RefColorTversky>
0.159 

> <ROCS_RefTverskyCombo>
0.340 

> <ROCS_FitTversky>
1.683 

> <ROCS_FitColorTversky>
0.751 

> <ROCS_FitTverskyCombo>
2.433 

> <ROCS_ColorScore>
-5.677

> <ROCS_Overlap>
2127.814

> <ROCS_Rank>
185                 

$$$$
untitled-dbase-506_75
  -OEChem-02082415043D

 22 22  0     0  0  0  0  0  0999 V2000
    7.6593   10.6983   23.4464 C   0  0  0  0  0  0  0  0  0  0  0  0
    8.8992   10.0737   23.5212 C   0  0  0  0  0  0  0  0  0  0  0  0
    7.5537   12.0570   23.7222 C   0  0  0  0  0  0  0  0  0  0  0  0
    9.9943   10.8461   23.8735 C   0  0  0  0  0  0  0  0  0  0  0  0
    8.7089   12.7406   24.0657 C   0  0  0  0  0  0  0  0  0  0  0  0
    8.6326   14.1998   24.3684 C   0  0  0  0  0  0  0  0  0  0  0  0
    7.5188   14.9257   23.6096 C   0  0  0  0  0  0  0  0  0  0  0  0
    9.9309   12.1681   24.1486 N   0  0  0  0  0  0  0  0  0  0  0  0
    6.3130   15.6729   21.3649 N   0  0  0  0  0  0  0  0  0  0  0  0
    8.8766   15.4784   21.4467 O   0  0  0  0  0  0  0  0  0  0  0  0
    7.4702   13.3798   21.5036 O   0  0  0  0  0  0  0  0  0  0  0  0
    7.6749   14.7735   21.8577 S   0  0  0  0  0  0  0  0  0  0  0  0
    6.7769   10.1272   23.1736 H   0  0  0  0  0  0  0  0  0  0  0  0
    9.0052    9.0157   23.3104 H   0  0  0  0  0  0  0  0  0  0  0  0
    6.5922   12.5561   23.6674 H   0  0  0  0  0  0  0  0  0  0  0  0
   10.9836   10.4065   23.9458 H   0  0  0  0  0  0  0  0  0  0  0  0
    9.5916   14.6786   24.1060 H   0  0  0  0  0  0  0  0  0  0  0  0
    8.5066   14.3751   25.4506 H   0  0  0  0  0  0  0  0  0  0  0  0
    6.5429   14.4984   23.8616 H   0  0  0  0  0  0  0  0  0  0  0  0
    7.4958   15.9955   23.8388 H   0  0  0  0  0  0  0  0  0  0  0  0
    6.4769   16.5873   20.9260 H   0  0  0  0  0  0  0  0  0  0  0  0
    5.5190   15.1580   20.9649 H   0  0  0  0  0  0  0  0  0  0  0  0
  1  2  1  0  0  0  0
  1  3  2  0  0  0  0
  2  4  2  0  0  0  0
  3  5  1  0  0  0  0
  4  8  1  0  0  0  0
  5  6  1  0  0  0  0
  5  8  2  0  0  0  0
  6  7  1  0  0  0  0
  7 12  1  0  0  0  0
  9 12  1  0  0  0  0
 10 12  2  0  0  0  0
 11 12  2  0  0  0  0
  1 13  1  0  0  0  0
  2 14  1  0  0  0  0
  3 15  1  0  0  0  0
  4 16  1  0  0  0  0
  6 17  1  0  0  0  0
  6 18  1  0  0  0  0
  7 19  1  0  0  0  0
  7 20  1  0  0  0  0
  9 21  1  0  0  0  0
  9 22  1  0  0  0  0
M  END
> <Mol Weight>
186,23

> <Formula>
C7H10N2O2S

> <ID>
EN300-272127

> <name>
Sulfonamides

> <LogP>
-0,56

> <ROCS_ShapeQuery>
x0446_0A_x1080_0A_x0929_0A_x0812_0A_x0719_0A_x1140_0A_x0528_0A_x0310_0A

> <ROCS_TanimotoCombo>
0.346 

> <ROCS_ShapeTanimoto>
0.167 

> <ROCS_ColorTanimoto>
0.179 

> <ROCS_RefTversky>
0.156 

> <ROCS_RefColorTversky>
0.180 

> <ROCS_RefTverskyCombo>
0.336 

> <ROCS_FitTversky>
1.692 

> <ROCS_FitColorTversky>
0.971 

> <ROCS_FitTverskyCombo>
2.662 

> <ROCS_ColorScore>
-6.419

> <ROCS_Overlap>
1837.568

> <ROCS_Rank>
186                 

$$$$
untitled-dbase-1226_30
  -OEChem-02082415043D

 25 26  0     0  0  0  0  0  0999 V2000
    7.9505   10.1345   23.8393 C   0  0  0  0  0  0  0  0  0  0  0  0
    8.8228   10.6443   22.8752 C   0  0  0  0  0  0  0  0  0  0  0  0
    8.0280   12.9040   23.2946 C   0  0  0  0  0  0  0  0  0  0  0  0
    7.1274   11.0217   24.5095 C   0  0  0  0  0  0  0  0  0  0  0  0
    7.1655   12.3821   24.2419 C   0  0  0  0  0  0  0  0  0  0  0  0
    8.8612   12.0212   22.6043 C   0  0  0  0  0  0  0  0  0  0  0  0
    6.1350   10.7581   25.5777 C   0  0  0  0  0  0  0  0  0  0  0  0
    6.2002   13.0836   25.1203 C   0  0  0  0  0  0  0  0  0  0  0  0
    9.8033   12.5449   21.5723 C   0  0  0  0  0  0  0  0  0  0  0  0
   11.6707   14.3782   21.1216 N   0  0  0  0  0  0  0  0  0  0  0  0
    9.2242   15.0909   21.4729 O   0  0  0  0  0  0  0  0  0  0  0  0
   10.5561   14.2165   23.4343 O   0  0  0  0  0  0  0  0  0  0  0  0
    5.4540   12.0222   25.7629 O   0  0  0  0  0  0  0  0  0  0  0  0
   10.2316   14.1965   22.0179 S   0  0  0  0  0  0  0  0  0  0  0  0
    7.9242    9.0716   24.0537 H   0  0  0  0  0  0  0  0  0  0  0  0
    9.4767    9.9629   22.3365 H   0  0  0  0  0  0  0  0  0  0  0  0
    8.0544   13.9707   23.0961 H   0  0  0  0  0  0  0  0  0  0  0  0
    5.3963   10.0067   25.2866 H   0  0  0  0  0  0  0  0  0  0  0  0
    6.6170   10.4806   26.5195 H   0  0  0  0  0  0  0  0  0  0  0  0
    6.7062   13.6709   25.8920 H   0  0  0  0  0  0  0  0  0  0  0  0
    5.5000   13.7077   24.5588 H   0  0  0  0  0  0  0  0  0  0  0  0
    9.3529   12.5706   20.5739 H   0  0  0  0  0  0  0  0  0  0  0  0
   10.7279   11.9593   21.5188 H   0  0  0  0  0  0  0  0  0  0  0  0
   12.4985   13.8569   21.4356 H   0  0  0  0  0  0  0  0  0  0  0  0
   11.5913   14.4526   20.1000 H   0  0  0  0  0  0  0  0  0  0  0  0
  1  2  2  0  0  0  0
  1  4  1  0  0  0  0
  2  6  1  0  0  0  0
  3  5  1  0  0  0  0
  3  6  2  0  0  0  0
  4  5  2  0  0  0  0
  4  7  1  0  0  0  0
  5  8  1  0  0  0  0
  6  9  1  0  0  0  0
  7 13  1  0  0  0  0
  8 13  1  0  0  0  0
  9 14  1  0  0  0  0
 10 14  1  0  0  0  0
 11 14  2  0  0  0  0
 12 14  2  0  0  0  0
  1 15  1  0  0  0  0
  2 16  1  0  0  0  0
  3 17  1  0  0  0  0
  7 18  1  0  0  0  0
  7 19  1  0  0  0  0
  8 20  1  0  0  0  0
  8 21  1  0  0  0  0
  9 22  1  0  0  0  0
  9 23  1  0  0  0  0
 10 24  1  0  0  0  0
 10 25  1  0  0  0  0
M  END
> <Mol Weight>
213,25

> <Formula>
C9H11NO3S

> <ID>
EN300-252928

> <name>
Sulfonamides

> <LogP>
-0,03

> <ROCS_ShapeQuery>
x0446_0A_x1080_0A_x0929_0A_x0812_0A_x0719_0A_x1140_0A_x0528_0A_x0310_0A

> <ROCS_TanimotoCombo>
0.346 

> <ROCS_ShapeTanimoto>
0.178 

> <ROCS_ColorTanimoto>
0.168 

> <ROCS_RefTversky>
0.166 

> <ROCS_RefColorTversky>
0.174 

> <ROCS_RefTverskyCombo>
0.341 

> <ROCS_FitTversky>
1.644 

> <ROCS_FitColorTversky>
0.820 

> <ROCS_FitTverskyCombo>
2.464 

> <ROCS_ColorScore>
-6.217

> <ROCS_Overlap>
1960.538

> <ROCS_Rank>
187                 

$$$$
untitled-dbase-2152_37
  -OEChem-02082415043D

 24 24  0     0  0  0  0  0  0999 V2000
    8.9088   10.0649   23.6908 C   0  0  0  0  0  0  0  0  0  0  0  0
    9.8374   10.8027   22.9566 C   0  0  0  0  0  0  0  0  0  0  0  0
    7.9073   10.7200   24.4074 C   0  0  0  0  0  0  0  0  0  0  0  0
    8.7631   12.8507   23.6557 C   0  0  0  0  0  0  0  0  0  0  0  0
    9.7646   12.1955   22.9391 C   0  0  0  0  0  0  0  0  0  0  0  0
    7.8344   12.1129   24.3899 C   0  0  0  0  0  0  0  0  0  0  0  0
   10.4682   14.1681   21.6063 C   0  0  0  0  0  0  0  0  0  0  0  0
   11.6980   14.6771   20.8907 C   0  0  0  0  0  0  0  0  0  0  0  0
    7.3534   13.1547   26.7957 N   0  0  0  0  0  0  0  0  0  0  0  0
   10.6931   12.9335   22.2045 N   0  0  0  0  0  0  0  0  0  0  0  0
    9.4298   14.8236   21.5917 O   0  0  0  0  0  0  0  0  0  0  0  0
    6.3567   14.2357   24.6783 O   0  0  0  0  0  0  0  0  0  0  0  0
    5.4643   12.0150   25.4656 O   0  0  0  0  0  0  0  0  0  0  0  0
    6.5813   12.9323   25.2877 S   0  0  0  0  0  0  0  0  0  0  0  0
   12.6402   15.6307   22.0477 Cl  0  0  0  0  0  0  0  0  0  0  0  0
    8.9649    8.9804   23.7042 H   0  0  0  0  0  0  0  0  0  0  0  0
   10.6130   10.2812   22.4015 H   0  0  0  0  0  0  0  0  0  0  0  0
    7.1892   10.1357   24.9765 H   0  0  0  0  0  0  0  0  0  0  0  0
    8.7055   13.9369   23.6424 H   0  0  0  0  0  0  0  0  0  0  0  0
   11.4570   15.3052   20.0293 H   0  0  0  0  0  0  0  0  0  0  0  0
   12.2997   13.8289   20.5525 H   0  0  0  0  0  0  0  0  0  0  0  0
    7.5012   12.3283   27.3879 H   0  0  0  0  0  0  0  0  0  0  0  0
    8.1104   13.8468   26.8522 H   0  0  0  0  0  0  0  0  0  0  0  0
   11.6220   12.5304   22.0966 H   0  0  0  0  0  0  0  0  0  0  0  0
  1  2  1  0  0  0  0
  1  3  2  0  0  0  0
  2  5  2  0  0  0  0
  3  6  1  0  0  0  0
  4  5  1  0  0  0  0
  4  6  2  0  0  0  0
  5 10  1  0  0  0  0
  6 14  1  0  0  0  0
  7  8  1  0  0  0  0
  7 10  1  0  0  0  0
  7 11  2  0  0  0  0
  8 15  1  0  0  0  0
  9 14  1  0  0  0  0
 12 14  2  0  0  0  0
 13 14  2  0  0  0  0
  1 16  1  0  0  0  0
  2 17  1  0  0  0  0
  3 18  1  0  0  0  0
  4 19  1  0  0  0  0
  8 20  1  0  0  0  0
  8 21  1  0  0  0  0
  9 22  1  0  0  0  0
  9 23  1  0  0  0  0
 10 24  1  0  0  0  0
M  END
> <Mol Weight>
248,68

> <Formula>
C8H9ClN2O3S

> <ID>
EN300-01954

> <name>
Sulfonamides

> <LogP>
0,35

> <ROCS_ShapeQuery>
x0446_0A_x1080_0A_x0929_0A_x0812_0A_x0719_0A_x1140_0A_x0528_0A_x0310_0A

> <ROCS_TanimotoCombo>
0.346 

> <ROCS_ShapeTanimoto>
0.206 

> <ROCS_ColorTanimoto>
0.140 

> <ROCS_RefTversky>
0.188 

> <ROCS_RefColorTversky>
0.149 

> <ROCS_RefTverskyCombo>
0.337 

> <ROCS_FitTversky>
1.836 

> <ROCS_FitColorTversky>
0.700 

> <ROCS_FitTverskyCombo>
2.536 

> <ROCS_ColorScore>
-5.297

> <ROCS_Overlap>
2221.580

> <ROCS_Rank>
188                 

$$$$
untitled-dbase-2655_528
  -OEChem-02082415043D

 38 38  0     1  0  0  0  0  0999 V2000
   10.4812   13.2412   22.9710 C   0  0  0  0  0  0  0  0  0  0  0  0
   10.4216   10.7219   23.1913 C   0  0  0  0  0  0  0  0  0  0  0  0
    8.3339   11.9930   22.9294 C   0  0  0  0  0  0  0  0  0  0  0  0
    9.7631    9.9407   24.3190 C   0  0  0  0  0  0  0  0  0  0  0  0
    7.7104   11.1539   24.0467 C   0  0  2  0  0  0  0  0  0  0  0  0
   12.9341   13.8405   24.3174 C   0  0  0  0  0  0  0  0  0  0  0  0
   14.0016   13.6857   22.0490 C   0  0  0  0  0  0  0  0  0  0  0  0
   12.2599   15.4396   22.4946 C   0  0  0  0  0  0  0  0  0  0  0  0
    7.7012   11.8733   25.3943 C   0  0  0  0  0  0  0  0  0  0  0  0
   12.7230   14.0191   22.8147 C   0  0  0  0  0  0  0  0  0  0  0  0
    9.7877   12.0335   23.0571 N   0  0  0  0  0  0  0  0  0  0  0  0
    6.6382   13.6487   27.0583 N   0  0  0  0  0  0  0  0  0  0  0  0
   10.0472   14.3190   23.3735 O   0  0  0  0  0  0  0  0  0  0  0  0
    6.6361   14.0953   24.5251 O   0  0  0  0  0  0  0  0  0  0  0  0
    5.1251   12.3043   25.4709 O   0  0  0  0  0  0  0  0  0  0  0  0
    8.3472    9.8718   24.1345 O   0  0  0  0  0  0  0  0  0  0  0  0
   11.7108   13.1017   22.3844 O   0  0  0  0  0  0  0  0  0  0  0  0
    6.3824   13.0350   25.4875 S   0  0  0  0  0  0  0  0  0  0  0  0
   11.4749   10.9104   23.4273 H   0  0  0  0  0  0  0  0  0  0  0  0
   10.3781   10.1519   22.2604 H   0  0  0  0  0  0  0  0  0  0  0  0
    8.0402   11.6076   21.9443 H   0  0  0  0  0  0  0  0  0  0  0  0
    7.9909   13.0360   22.9919 H   0  0  0  0  0  0  0  0  0  0  0  0
   10.1740    8.9245   24.3985 H   0  0  0  0  0  0  0  0  0  0  0  0
    9.9475   10.4428   25.2766 H   0  0  0  0  0  0  0  0  0  0  0  0
    6.6217   10.9617   23.7717 H   0  0  0  0  0  0  0  0  0  0  0  0
   12.0185   14.0788   24.8706 H   0  0  0  0  0  0  0  0  0  0  0  0
   13.2326   12.8163   24.5639 H   0  0  0  0  0  0  0  0  0  0  0  0
   13.7060   14.5246   24.6879 H   0  0  0  0  0  0  0  0  0  0  0  0
   13.8548   13.8126   20.9704 H   0  0  0  0  0  0  0  0  0  0  0  0
   14.2856   12.6381   22.2008 H   0  0  0  0  0  0  0  0  0  0  0  0
   14.8371   14.3202   22.3621 H   0  0  0  0  0  0  0  0  0  0  0  0
   12.1085   15.5680   21.4167 H   0  0  0  0  0  0  0  0  0  0  0  0
   11.3235   15.6836   23.0066 H   0  0  0  0  0  0  0  0  0  0  0  0
   13.0193   16.1728   22.7896 H   0  0  0  0  0  0  0  0  0  0  0  0
    8.6323   12.4210   25.5413 H   0  0  0  0  0  0  0  0  0  0  0  0
    7.5685   11.1596   26.2074 H   0  0  0  0  0  0  0  0  0  0  0  0
    6.9917   14.6096   27.1438 H   0  0  0  0  0  0  0  0  0  0  0  0
    5.9627   13.3896   27.7879 H   0  0  0  0  0  0  0  0  0  0  0  0
  1 11  1  0  0  0  0
  1 13  2  0  0  0  0
  1 17  1  0  0  0  0
  2  4  1  0  0  0  0
  2 11  1  0  0  0  0
  3  5  1  0  0  0  0
  3 11  1  0  0  0  0
  4 16  1  0  0  0  0
  5  9  1  1  0  0  0
  5 16  1  0  0  0  0
  6 10  1  0  0  0  0
  7 10  1  0  0  0  0
  8 10  1  0  0  0  0
  9 18  1  0  0  0  0
 10 17  1  0  0  0  0
 12 18  1  0  0  0  0
 14 18  2  0  0  0  0
 15 18  2  0  0  0  0
  2 19  1  0  0  0  0
  2 20  1  0  0  0  0
  3 21  1  0  0  0  0
  3 22  1  0  0  0  0
  4 23  1  0  0  0  0
  4 24  1  0  0  0  0
  5 25  1  0  0  0  0
  6 26  1  0  0  0  0
  6 27  1  0  0  0  0
  6 28  1  0  0  0  0
  7 29  1  0  0  0  0
  7 30  1  0  0  0  0
  7 31  1  0  0  0  0
  8 32  1  0  0  0  0
  8 33  1  0  0  0  0
  8 34  1  0  0  0  0
  9 35  1  0  0  0  0
  9 36  1  0  0  0  0
 12 37  1  0  0  0  0
 12 38  1  0  0  0  0
M  END
> <Mol Weight>
280,34

> <Formula>
C10H20N2O5S

> <ID>
EN300-33051227

> <name>
Sulfonamides

> <LogP>
-0,62

> <ROCS_ShapeQuery>
x0446_0A_x1080_0A_x0929_0A_x0812_0A_x0719_0A_x1140_0A_x0528_0A_x0310_0A

> <ROCS_TanimotoCombo>
0.346 

> <ROCS_ShapeTanimoto>
0.216 

> <ROCS_ColorTanimoto>
0.129 

> <ROCS_RefTversky>
0.198 

> <ROCS_RefColorTversky>
0.142 

> <ROCS_RefTverskyCombo>
0.340 

> <ROCS_FitTversky>
1.748 

> <ROCS_FitColorTversky>
0.595 

> <ROCS_FitTverskyCombo>
2.343 

> <ROCS_ColorScore>
-5.063

> <ROCS_Overlap>
2335.761

> <ROCS_Rank>
189                 

$$$$
untitled-dbase-1421_17
  -OEChem-02082415043D

 29 29  0     0  0  0  0  0  0999 V2000
    9.0229   12.3742   23.4243 C   0  0  0  0  0  0  0  0  0  0  0  0
    9.2366   10.9889   23.2937 C   0  0  0  0  0  0  0  0  0  0  0  0
    7.8991   12.4759   24.2074 C   0  0  0  0  0  0  0  0  0  0  0  0
   10.0489    8.8049   22.3680 C   0  0  0  0  0  0  0  0  0  0  0  0
    7.8567   14.3349   25.8894 C   0  0  0  0  0  0  0  0  0  0  0  0
    6.3920   10.7767   25.2829 C   0  0  0  0  0  0  0  0  0  0  0  0
   10.3109   10.3043   22.5528 C   0  0  0  0  0  0  0  0  0  0  0  0
    7.1612   13.6520   24.7065 C   0  0  0  0  0  0  0  0  0  0  0  0
    8.3220   10.2627   23.9420 N   0  0  0  0  0  0  0  0  0  0  0  0
    7.5229   11.1953   24.4876 N   0  0  0  0  0  0  0  0  0  0  0  0
   11.1777   12.7991   21.9140 N   0  0  0  0  0  0  0  0  0  0  0  0
    9.1480   14.3822   21.7734 O   0  0  0  0  0  0  0  0  0  0  0  0
   10.5933   14.4109   23.8368 O   0  0  0  0  0  0  0  0  0  0  0  0
    9.9447   13.6411   22.7637 S   0  0  0  0  0  0  0  0  0  0  0  0
    9.8954    8.3163   23.3362 H   0  0  0  0  0  0  0  0  0  0  0  0
   10.8892    8.3121   21.8691 H   0  0  0  0  0  0  0  0  0  0  0  0
    9.1511    8.6404   21.7626 H   0  0  0  0  0  0  0  0  0  0  0  0
    8.0186   13.6243   26.7070 H   0  0  0  0  0  0  0  0  0  0  0  0
    7.2587   15.1660   26.2760 H   0  0  0  0  0  0  0  0  0  0  0  0
    8.8332   14.7301   25.5895 H   0  0  0  0  0  0  0  0  0  0  0  0
    5.5327   10.6673   24.6161 H   0  0  0  0  0  0  0  0  0  0  0  0
    6.6216    9.8248   25.7699 H   0  0  0  0  0  0  0  0  0  0  0  0
    6.1896   11.5309   26.0485 H   0  0  0  0  0  0  0  0  0  0  0  0
   10.4599   10.7563   21.5520 H   0  0  0  0  0  0  0  0  0  0  0  0
   11.2889   10.4257   23.0596 H   0  0  0  0  0  0  0  0  0  0  0  0
    7.0177   14.4037   23.9059 H   0  0  0  0  0  0  0  0  0  0  0  0
    6.1343   13.3775   25.0177 H   0  0  0  0  0  0  0  0  0  0  0  0
   11.1446   12.7886   20.8872 H   0  0  0  0  0  0  0  0  0  0  0  0
   12.1302   12.8075   22.2985 H   0  0  0  0  0  0  0  0  0  0  0  0
  1  2  1  0  0  0  0
  1  3  2  0  0  0  0
  1 14  1  0  0  0  0
  2  7  1  0  0  0  0
  2  9  2  0  0  0  0
  3  8  1  0  0  0  0
  3 10  1  0  0  0  0
  4  7  1  0  0  0  0
  5  8  1  0  0  0  0
  6 10  1  0  0  0  0
  9 10  1  0  0  0  0
 11 14  1  0  0  0  0
 12 14  2  0  0  0  0
 13 14  2  0  0  0  0
  4 15  1  0  0  0  0
  4 16  1  0  0  0  0
  4 17  1  0  0  0  0
  5 18  1  0  0  0  0
  5 19  1  0  0  0  0
  5 20  1  0  0  0  0
  6 21  1  0  0  0  0
  6 22  1  0  0  0  0
  6 23  1  0  0  0  0
  7 24  1  0  0  0  0
  7 25  1  0  0  0  0
  8 26  1  0  0  0  0
  8 27  1  0  0  0  0
 11 28  1  0  0  0  0
 11 29  1  0  0  0  0
M  END
> <Mol Weight>
217,29

> <Formula>
C8H15N3O2S

> <ID>
EN300-115660

> <name>
Sulfonamides

> <LogP>
0,56

> <ROCS_ShapeQuery>
x0446_0A_x1080_0A_x0929_0A_x0812_0A_x0719_0A_x1140_0A_x0528_0A_x0310_0A

> <ROCS_TanimotoCombo>
0.346 

> <ROCS_ShapeTanimoto>
0.210 

> <ROCS_ColorTanimoto>
0.136 

> <ROCS_RefTversky>
0.190 

> <ROCS_RefColorTversky>
0.148 

> <ROCS_RefTverskyCombo>
0.339 

> <ROCS_FitTversky>
1.913 

> <ROCS_FitColorTversky>
0.622 

> <ROCS_FitTverskyCombo>
2.535 

> <ROCS_ColorScore>
-5.295

> <ROCS_Overlap>
2246.212

> <ROCS_Rank>
190                 

$$$$
untitled-dbase-2712_583
  -OEChem-02082415043D

 37 37  0     0  0  0  0  0  0999 V2000
    9.1275   10.2063   23.6557 C   0  0  0  0  0  0  0  0  0  0  0  0
    9.9373   10.9266   22.7778 C   0  0  0  0  0  0  0  0  0  0  0  0
    8.1270   10.8587   24.3762 C   0  0  0  0  0  0  0  0  0  0  0  0
    8.7464   12.9519   23.3409 C   0  0  0  0  0  0  0  0  0  0  0  0
    9.7469   12.2994   22.6203 C   0  0  0  0  0  0  0  0  0  0  0  0
    7.9365   12.2315   24.2188 C   0  0  0  0  0  0  0  0  0  0  0  0
   10.3898   14.4376   21.5533 C   0  0  0  0  0  0  0  0  0  0  0  0
   12.2371   15.5297   23.4588 C   0  0  0  0  0  0  0  0  0  0  0  0
   13.2693   16.7169   21.5006 C   0  0  0  0  0  0  0  0  0  0  0  0
   10.8925   17.2060   22.1486 C   0  0  0  0  0  0  0  0  0  0  0  0
   11.6400   12.3542   20.9517 C   0  0  0  0  0  0  0  0  0  0  0  0
   11.9811   16.1360   22.0797 C   0  0  0  0  0  0  0  0  0  0  0  0
    7.5389   13.4935   26.5327 N   0  0  0  0  0  0  0  0  0  0  0  0
   10.5872   13.0471   21.7090 N   0  0  0  0  0  0  0  0  0  0  0  0
    9.3225   15.0340   21.6755 O   0  0  0  0  0  0  0  0  0  0  0  0
    6.3096   14.2549   24.3985 O   0  0  0  0  0  0  0  0  0  0  0  0
    5.6638   12.0737   25.4815 O   0  0  0  0  0  0  0  0  0  0  0  0
   11.5439   15.0984   21.2012 O   0  0  0  0  0  0  0  0  0  0  0  0
    6.6848   13.0478   25.1215 S   0  0  0  0  0  0  0  0  0  0  0  0
    9.2752    9.1373   23.7781 H   0  0  0  0  0  0  0  0  0  0  0  0
   10.7133   10.4072   22.2211 H   0  0  0  0  0  0  0  0  0  0  0  0
    7.5019   10.2882   25.0579 H   0  0  0  0  0  0  0  0  0  0  0  0
    8.5972   14.0224   23.2185 H   0  0  0  0  0  0  0  0  0  0  0  0
   11.3149   15.1116   23.8779 H   0  0  0  0  0  0  0  0  0  0  0  0
   12.9909   14.7367   23.4171 H   0  0  0  0  0  0  0  0  0  0  0  0
   12.5785   16.2950   24.1651 H   0  0  0  0  0  0  0  0  0  0  0  0
   13.0903   17.1530   20.5111 H   0  0  0  0  0  0  0  0  0  0  0  0
   14.0225   15.9331   21.3607 H   0  0  0  0  0  0  0  0  0  0  0  0
   13.6909   17.4912   22.1496 H   0  0  0  0  0  0  0  0  0  0  0  0
   10.7087   17.6411   21.1595 H   0  0  0  0  0  0  0  0  0  0  0  0
    9.9497   16.7984   22.5274 H   0  0  0  0  0  0  0  0  0  0  0  0
   11.2000   18.0336   22.7981 H   0  0  0  0  0  0  0  0  0  0  0  0
   11.2308   11.9998   19.9941 H   0  0  0  0  0  0  0  0  0  0  0  0
   12.4714   13.0487   20.7605 H   0  0  0  0  0  0  0  0  0  0  0  0
   12.0059   11.4958   21.5341 H   0  0  0  0  0  0  0  0  0  0  0  0
    7.7965   12.7513   27.1947 H   0  0  0  0  0  0  0  0  0  0  0  0
    8.2373   14.2430   26.4569 H   0  0  0  0  0  0  0  0  0  0  0  0
  1  2  2  0  0  0  0
  1  3  1  0  0  0  0
  2  5  1  0  0  0  0
  3  6  2  0  0  0  0
  4  5  2  0  0  0  0
  4  6  1  0  0  0  0
  5 14  1  0  0  0  0
  6 19  1  0  0  0  0
  7 14  1  0  0  0  0
  7 15  2  0  0  0  0
  7 18  1  0  0  0  0
  8 12  1  0  0  0  0
  9 12  1  0  0  0  0
 10 12  1  0  0  0  0
 11 14  1  0  0  0  0
 12 18  1  0  0  0  0
 13 19  1  0  0  0  0
 16 19  2  0  0  0  0
 17 19  2  0  0  0  0
  1 20  1  0  0  0  0
  2 21  1  0  0  0  0
  3 22  1  0  0  0  0
  4 23  1  0  0  0  0
  8 24  1  0  0  0  0
  8 25  1  0  0  0  0
  8 26  1  0  0  0  0
  9 27  1  0  0  0  0
  9 28  1  0  0  0  0
  9 29  1  0  0  0  0
 10 30  1  0  0  0  0
 10 31  1  0  0  0  0
 10 32  1  0  0  0  0
 11 33  1  0  0  0  0
 11 34  1  0  0  0  0
 11 35  1  0  0  0  0
 13 36  1  0  0  0  0
 13 37  1  0  0  0  0
M  END
> <Mol Weight>
286,35

> <Formula>
C12H18N2O4S

> <ID>
EN300-28221874

> <name>
Sulfonamides

> <LogP>
1,35

> <ROCS_ShapeQuery>
x0446_0A_x1080_0A_x0929_0A_x0812_0A_x0719_0A_x1140_0A_x0528_0A_x0310_0A

> <ROCS_TanimotoCombo>
0.345 

> <ROCS_ShapeTanimoto>
0.221 

> <ROCS_ColorTanimoto>
0.124 

> <ROCS_RefTversky>
0.203 

> <ROCS_RefColorTversky>
0.134 

> <ROCS_RefTverskyCombo>
0.336 

> <ROCS_FitTversky>
1.720 

> <ROCS_FitColorTversky>
0.630 

> <ROCS_FitTverskyCombo>
2.351 

> <ROCS_ColorScore>
-4.766

> <ROCS_Overlap>
2392.054

> <ROCS_Rank>
191                 

$$$$
untitled-dbase-1208_3
  -OEChem-02082415043D

 21 22  0     0  0  0  0  0  0999 V2000
    9.2111   10.9627   23.2274 C   0  0  0  0  0  0  0  0  0  0  0  0
    9.0074   12.3415   23.3724 C   0  0  0  0  0  0  0  0  0  0  0  0
    7.8473   12.4516   24.1050 C   0  0  0  0  0  0  0  0  0  0  0  0
    5.5404   11.9390   25.5522 C   0  0  0  0  0  0  0  0  0  0  0  0
    6.2611   10.9161   25.0847 C   0  0  0  0  0  0  0  0  0  0  0  0
    6.0556   13.3197   25.2456 C   0  0  0  0  0  0  0  0  0  0  0  0
    8.2620   10.2351   23.8152 N   0  0  0  0  0  0  0  0  0  0  0  0
    7.1539   13.5334   24.5558 N   0  0  0  0  0  0  0  0  0  0  0  0
    7.4195   11.1521   24.3581 N   0  0  0  0  0  0  0  0  0  0  0  0
    5.3309   14.3904   25.7182 N   0  0  0  0  0  0  0  0  0  0  0  0
   11.2386   12.7465   21.9715 N   0  0  0  0  0  0  0  0  0  0  0  0
    9.2462   14.3682   21.7572 O   0  0  0  0  0  0  0  0  0  0  0  0
   10.5922   14.3435   23.8869 O   0  0  0  0  0  0  0  0  0  0  0  0
    9.9813   13.5992   22.7739 S   0  0  0  0  0  0  0  0  0  0  0  0
   10.0131   10.4499   22.7157 H   0  0  0  0  0  0  0  0  0  0  0  0
    4.6308   11.8120   26.1239 H   0  0  0  0  0  0  0  0  0  0  0  0
    5.9789    9.8834   25.2493 H   0  0  0  0  0  0  0  0  0  0  0  0
    5.6650   15.3019   25.5197 H   0  0  0  0  0  0  0  0  0  0  0  0
    4.5072   14.2023   26.2361 H   0  0  0  0  0  0  0  0  0  0  0  0
   11.2542   12.7500   20.9443 H   0  0  0  0  0  0  0  0  0  0  0  0
   12.1718   12.7325   22.4008 H   0  0  0  0  0  0  0  0  0  0  0  0
  1  2  1  0  0  0  0
  1  7  2  0  0  0  0
  2  3  2  0  0  0  0
  2 14  1  0  0  0  0
  3  8  1  0  0  0  0
  3  9  1  0  0  0  0
  4  5  2  0  0  0  0
  4  6  1  0  0  0  0
  5  9  1  0  0  0  0
  6  8  2  0  0  0  0
  6 10  1  0  0  0  0
  7  9  1  0  0  0  0
 11 14  1  0  0  0  0
 12 14  2  0  0  0  0
 13 14  2  0  0  0  0
  1 15  1  0  0  0  0
  4 16  1  0  0  0  0
  5 17  1  0  0  0  0
 10 18  1  0  0  0  0
 10 19  1  0  0  0  0
 11 20  1  0  0  0  0
 11 21  1  0  0  0  0
M  END
> <Mol Weight>
213,22

> <Formula>
C6H7N5O2S

> <ID>
EN300-39860266

> <name>
Sulfonamides

> <LogP>
-0,98

> <ROCS_ShapeQuery>
x0446_0A_x1080_0A_x0929_0A_x0812_0A_x0719_0A_x1140_0A_x0528_0A_x0310_0A

> <ROCS_TanimotoCombo>
0.345 

> <ROCS_ShapeTanimoto>
0.196 

> <ROCS_ColorTanimoto>
0.150 

> <ROCS_RefTversky>
0.181 

> <ROCS_RefColorTversky>
0.168 

> <ROCS_RefTverskyCombo>
0.349 

> <ROCS_FitTversky>
1.755 

> <ROCS_FitColorTversky>
0.576 

> <ROCS_FitTverskyCombo>
2.331 

> <ROCS_ColorScore>
-6.015

> <ROCS_Overlap>
2130.696

> <ROCS_Rank>
192                 

$$$$
untitled-dbase-1253_2
  -OEChem-02082415043D

 21 22  0     0  0  0  0  0  0999 V2000
    5.8124   12.0226   24.3599 C   0  0  0  0  0  0  0  0  0  0  0  0
    6.5180   10.8582   24.0436 C   0  0  0  0  0  0  0  0  0  0  0  0
    6.4333   13.2698   24.3290 C   0  0  0  0  0  0  0  0  0  0  0  0
   10.0024   10.6265   23.0837 C   0  0  0  0  0  0  0  0  0  0  0  0
    8.5151   12.2293   23.6570 C   0  0  0  0  0  0  0  0  0  0  0  0
    7.8669   10.9930   23.6963 C   0  0  0  0  0  0  0  0  0  0  0  0
    7.7833   13.3894   23.9797 C   0  0  0  0  0  0  0  0  0  0  0  0
    9.8618   11.9826   23.2687 C   0  0  0  0  0  0  0  0  0  0  0  0
    8.7938   10.0382   23.3437 N   0  0  0  0  0  0  0  0  0  0  0  0
   10.9267   13.5670   21.4086 N   0  0  0  0  0  0  0  0  0  0  0  0
   10.7950   14.3377   23.8651 O   0  0  0  0  0  0  0  0  0  0  0  0
   12.4117   12.5125   23.2306 O   0  0  0  0  0  0  0  0  0  0  0  0
    8.3582   14.5994   23.9566 F   0  0  0  0  0  0  0  0  0  0  0  0
   11.0952   13.1434   23.0636 S   0  0  0  0  0  0  0  0  0  0  0  0
    4.7630   11.9528   24.6348 H   0  0  0  0  0  0  0  0  0  0  0  0
    6.0339    9.8877   24.0687 H   0  0  0  0  0  0  0  0  0  0  0  0
    5.8642   14.1611   24.5789 H   0  0  0  0  0  0  0  0  0  0  0  0
   10.8521   10.0259   22.7901 H   0  0  0  0  0  0  0  0  0  0  0  0
    8.6080    9.0465   23.2846 H   0  0  0  0  0  0  0  0  0  0  0  0
   11.2209   12.8860   20.6978 H   0  0  0  0  0  0  0  0  0  0  0  0
   10.1173   14.1348   21.1297 H   0  0  0  0  0  0  0  0  0  0  0  0
  1  2  2  0  0  0  0
  1  3  1  0  0  0  0
  2  6  1  0  0  0  0
  3  7  2  0  0  0  0
  4  8  2  0  0  0  0
  4  9  1  0  0  0  0
  5  6  2  0  0  0  0
  5  7  1  0  0  0  0
  5  8  1  0  0  0  0
  6  9  1  0  0  0  0
  7 13  1  0  0  0  0
  8 14  1  0  0  0  0
 10 14  1  0  0  0  0
 11 14  2  0  0  0  0
 12 14  2  0  0  0  0
  1 15  1  0  0  0  0
  2 16  1  0  0  0  0
  3 17  1  0  0  0  0
  4 18  1  0  0  0  0
  9 19  1  0  0  0  0
 10 20  1  0  0  0  0
 10 21  1  0  0  0  0
M  END
> <Mol Weight>
214,21

> <Formula>
C8H7FN2O2S

> <ID>
EN300-281962

> <name>
Sulfonamides

> <LogP>
0,82

> <ROCS_ShapeQuery>
x0446_0A_x1080_0A_x0929_0A_x0812_0A_x0719_0A_x1140_0A_x0528_0A_x0310_0A

> <ROCS_TanimotoCombo>
0.345 

> <ROCS_ShapeTanimoto>
0.210 

> <ROCS_ColorTanimoto>
0.136 

> <ROCS_RefTversky>
0.191 

> <ROCS_RefColorTversky>
0.145 

> <ROCS_RefTverskyCombo>
0.336 

> <ROCS_FitTversky>
1.865 

> <ROCS_FitColorTversky>
0.681 

> <ROCS_FitTverskyCombo>
2.545 

> <ROCS_ColorScore>
-5.161

> <ROCS_Overlap>
2254.960

> <ROCS_Rank>
193                 

$$$$
untitled-dbase-2720_1595
  -OEChem-02082415043D

 36 36  0     0  0  0  0  0  0999 V2000
    9.7367   10.7572   24.9295 C   0  0  0  0  0  0  0  0  0  0  0  0
   10.1193   10.8869   23.5944 C   0  0  0  0  0  0  0  0  0  0  0  0
    8.5504   11.3403   25.3749 C   0  0  0  0  0  0  0  0  0  0  0  0
    8.1294   12.1831   23.1501 C   0  0  0  0  0  0  0  0  0  0  0  0
    9.3157   11.5999   22.7048 C   0  0  0  0  0  0  0  0  0  0  0  0
    7.7468   12.0532   24.4852 C   0  0  0  0  0  0  0  0  0  0  0  0
    9.8697   14.0971   21.4177 C   0  0  0  0  0  0  0  0  0  0  0  0
   10.8029   15.2799   23.8338 C   0  0  0  0  0  0  0  0  0  0  0  0
   12.9946   14.1674   23.3162 C   0  0  0  0  0  0  0  0  0  0  0  0
   12.0648   15.8909   21.7436 C   0  0  0  0  0  0  0  0  0  0  0  0
    9.2839   12.9012   20.7145 C   0  0  0  0  0  0  0  0  0  0  0  0
   11.7224   14.7707   22.7248 C   0  0  0  0  0  0  0  0  0  0  0  0
    5.6917   13.5030   23.6023 N   0  0  0  0  0  0  0  0  0  0  0  0
    9.3646   15.2112   21.4455 O   0  0  0  0  0  0  0  0  0  0  0  0
    5.3445   11.7167   25.4283 O   0  0  0  0  0  0  0  0  0  0  0  0
    6.5893   13.8328   25.9945 O   0  0  0  0  0  0  0  0  0  0  0  0
    9.6930   11.7286   21.3898 O   0  0  0  0  0  0  0  0  0  0  0  0
   11.0452   13.7341   22.0131 O   0  0  0  0  0  0  0  0  0  0  0  0
    6.2604   12.7810   25.0426 S   0  0  0  0  0  0  0  0  0  0  0  0
   10.3626   10.2024   25.6221 H   0  0  0  0  0  0  0  0  0  0  0  0
   11.0445   10.4306   23.2537 H   0  0  0  0  0  0  0  0  0  0  0  0
    8.2611   11.2322   26.4167 H   0  0  0  0  0  0  0  0  0  0  0  0
    7.5066   12.7381   22.4527 H   0  0  0  0  0  0  0  0  0  0  0  0
    9.8886   15.7138   23.4134 H   0  0  0  0  0  0  0  0  0  0  0  0
   10.5217   14.4783   24.5245 H   0  0  0  0  0  0  0  0  0  0  0  0
   11.2877   16.0775   24.4083 H   0  0  0  0  0  0  0  0  0  0  0  0
   13.6573   13.8007   22.5240 H   0  0  0  0  0  0  0  0  0  0  0  0
   12.7597   13.3024   23.9471 H   0  0  0  0  0  0  0  0  0  0  0  0
   13.5453   14.8967   23.9190 H   0  0  0  0  0  0  0  0  0  0  0  0
   12.7244   15.5259   20.9480 H   0  0  0  0  0  0  0  0  0  0  0  0
   11.1656   16.3111   21.2815 H   0  0  0  0  0  0  0  0  0  0  0  0
   12.6069   16.6988   22.2483 H   0  0  0  0  0  0  0  0  0  0  0  0
    9.6537   12.8645   19.6863 H   0  0  0  0  0  0  0  0  0  0  0  0
    8.1924   12.9614   20.7380 H   0  0  0  0  0  0  0  0  0  0  0  0
    4.8749   13.0825   23.1424 H   0  0  0  0  0  0  0  0  0  0  0  0
    5.7274   14.5271   23.5298 H   0  0  0  0  0  0  0  0  0  0  0  0
  1  2  2  0  0  0  0
  1  3  1  0  0  0  0
  2  5  1  0  0  0  0
  3  6  2  0  0  0  0
  4  5  2  0  0  0  0
  4  6  1  0  0  0  0
  5 17  1  0  0  0  0
  6 19  1  0  0  0  0
  7 11  1  0  0  0  0
  7 14  2  0  0  0  0
  7 18  1  0  0  0  0
  8 12  1  0  0  0  0
  9 12  1  0  0  0  0
 10 12  1  0  0  0  0
 11 17  1  0  0  0  0
 12 18  1  0  0  0  0
 13 19  1  0  0  0  0
 15 19  2  0  0  0  0
 16 19  2  0  0  0  0
  1 20  1  0  0  0  0
  2 21  1  0  0  0  0
  3 22  1  0  0  0  0
  4 23  1  0  0  0  0
  8 24  1  0  0  0  0
  8 25  1  0  0  0  0
  8 26  1  0  0  0  0
  9 27  1  0  0  0  0
  9 28  1  0  0  0  0
  9 29  1  0  0  0  0
 10 30  1  0  0  0  0
 10 31  1  0  0  0  0
 10 32  1  0  0  0  0
 11 33  1  0  0  0  0
 11 34  1  0  0  0  0
 13 35  1  0  0  0  0
 13 36  1  0  0  0  0
M  END
> <Mol Weight>
287,33

> <Formula>
C12H17NO5S

> <ID>
EN300-45481960

> <name>
Sulfonamides

> <LogP>
1,10

> <ROCS_ShapeQuery>
x0446_0A_x1080_0A_x0929_0A_x0812_0A_x0719_0A_x1140_0A_x0528_0A_x0310_0A

> <ROCS_TanimotoCombo>
0.345 

> <ROCS_ShapeTanimoto>
0.211 

> <ROCS_ColorTanimoto>
0.134 

> <ROCS_RefTversky>
0.195 

> <ROCS_RefColorTversky>
0.147 

> <ROCS_RefTverskyCombo>
0.341 

> <ROCS_FitTversky>
1.659 

> <ROCS_FitColorTversky>
0.614 

> <ROCS_FitTverskyCombo>
2.273 

> <ROCS_ColorScore>
-5.230

> <ROCS_Overlap>
2299.251

> <ROCS_Rank>
194                 

$$$$
untitled-dbase-2131_19
  -OEChem-02082415043D

 29 29  0     0  0  0  0  0  0999 V2000
    9.1823   10.5261   23.0529 C   0  0  0  0  0  0  0  0  0  0  0  0
    9.7252   11.7239   22.5883 C   0  0  0  0  0  0  0  0  0  0  0  0
    8.0693   10.5444   23.8935 C   0  0  0  0  0  0  0  0  0  0  0  0
    7.4993   11.7607   24.2695 C   0  0  0  0  0  0  0  0  0  0  0  0
    8.0422   12.9586   23.8049 C   0  0  0  0  0  0  0  0  0  0  0  0
    9.1552   12.9402   22.9643 C   0  0  0  0  0  0  0  0  0  0  0  0
    8.0668    8.8526   25.5648 C   0  0  0  0  0  0  0  0  0  0  0  0
    5.2398   11.1102   24.6262 C   0  0  0  0  0  0  0  0  0  0  0  0
    6.4456   14.6592   23.3416 C   0  0  0  0  0  0  0  0  0  0  0  0
   11.1442   13.8208   21.4237 N   0  0  0  0  0  0  0  0  0  0  0  0
    8.8895   15.0688   21.4905 O   0  0  0  0  0  0  0  0  0  0  0  0
   10.4091   15.1600   23.4981 O   0  0  0  0  0  0  0  0  0  0  0  0
    7.5490    9.3671   24.3396 O   0  0  0  0  0  0  0  0  0  0  0  0
    6.4111   11.7768   25.0911 O   0  0  0  0  0  0  0  0  0  0  0  0
    7.4786   14.1433   24.1777 O   0  0  0  0  0  0  0  0  0  0  0  0
    9.8570   14.4277   22.3682 S   0  0  0  0  0  0  0  0  0  0  0  0
    9.6308    9.5819   22.7559 H   0  0  0  0  0  0  0  0  0  0  0  0
   10.5926   11.6968   21.9341 H   0  0  0  0  0  0  0  0  0  0  0  0
    7.5670    7.9112   25.8058 H   0  0  0  0  0  0  0  0  0  0  0  0
    7.9032    9.5794   26.3645 H   0  0  0  0  0  0  0  0  0  0  0  0
    9.1387    8.6745   25.4508 H   0  0  0  0  0  0  0  0  0  0  0  0
    4.4483   11.1983   25.3745 H   0  0  0  0  0  0  0  0  0  0  0  0
    5.4672   10.0570   24.4432 H   0  0  0  0  0  0  0  0  0  0  0  0
    4.9111   11.5771   23.6948 H   0  0  0  0  0  0  0  0  0  0  0  0
    6.0832   15.6055   23.7506 H   0  0  0  0  0  0  0  0  0  0  0  0
    5.6271   13.9373   23.2847 H   0  0  0  0  0  0  0  0  0  0  0  0
    6.8497   14.8285   22.3407 H   0  0  0  0  0  0  0  0  0  0  0  0
   11.0644   13.8877   20.4016 H   0  0  0  0  0  0  0  0  0  0  0  0
   12.1010   13.9490   21.7747 H   0  0  0  0  0  0  0  0  0  0  0  0
  1  2  2  0  0  0  0
  1  3  1  0  0  0  0
  2  6  1  0  0  0  0
  3  4  2  0  0  0  0
  3 13  1  0  0  0  0
  4  5  1  0  0  0  0
  4 14  1  0  0  0  0
  5  6  2  0  0  0  0
  5 15  1  0  0  0  0
  6 16  1  0  0  0  0
  7 13  1  0  0  0  0
  8 14  1  0  0  0  0
  9 15  1  0  0  0  0
 10 16  1  0  0  0  0
 11 16  2  0  0  0  0
 12 16  2  0  0  0  0
  1 17  1  0  0  0  0
  2 18  1  0  0  0  0
  7 19  1  0  0  0  0
  7 20  1  0  0  0  0
  7 21  1  0  0  0  0
  8 22  1  0  0  0  0
  8 23  1  0  0  0  0
  8 24  1  0  0  0  0
  9 25  1  0  0  0  0
  9 26  1  0  0  0  0
  9 27  1  0  0  0  0
 10 28  1  0  0  0  0
 10 29  1  0  0  0  0
M  END
> <Mol Weight>
247,27

> <Formula>
C9H13NO5S

> <ID>
EN300-157623

> <name>
Sulfonamides

> <LogP>
0,11

> <ROCS_ShapeQuery>
x0446_0A_x1080_0A_x0929_0A_x0812_0A_x0719_0A_x1140_0A_x0528_0A_x0310_0A

> <ROCS_TanimotoCombo>
0.345 

> <ROCS_ShapeTanimoto>
0.208 

> <ROCS_ColorTanimoto>
0.137 

> <ROCS_RefTversky>
0.191 

> <ROCS_RefColorTversky>
0.149 

> <ROCS_RefTverskyCombo>
0.340 

> <ROCS_FitTversky>
1.774 

> <ROCS_FitColorTversky>
0.625 

> <ROCS_FitTverskyCombo>
2.399 

> <ROCS_ColorScore>
-5.323

> <ROCS_Overlap>
2253.968

> <ROCS_Rank>
195                 

$$$$
untitled-dbase-1650_5
  -OEChem-02082415043D

 28 29  0     0  0  0  0  0  0999 V2000
    6.0042   12.7305   24.8215 C   0  0  0  0  0  0  0  0  0  0  0  0
    6.9001   11.7275   25.2006 C   0  0  0  0  0  0  0  0  0  0  0  0
    6.2513   13.5174   23.6848 C   0  0  0  0  0  0  0  0  0  0  0  0
    8.0261   11.5271   24.4223 C   0  0  0  0  0  0  0  0  0  0  0  0
    8.2622   12.3055   23.3020 C   0  0  0  0  0  0  0  0  0  0  0  0
    7.3954   13.3088   22.9130 C   0  0  0  0  0  0  0  0  0  0  0  0
    9.1444   10.5773   24.6185 C   0  0  0  0  0  0  0  0  0  0  0  0
    9.8980   10.7679   23.2814 C   0  0  0  0  0  0  0  0  0  0  0  0
   11.4018   10.9249   23.5119 C   0  0  0  0  0  0  0  0  0  0  0  0
    9.6362    9.6056   22.3151 C   0  0  0  0  0  0  0  0  0  0  0  0
    6.3493   15.3313   21.5273 N   0  0  0  0  0  0  0  0  0  0  0  0
    8.9050   15.0883   21.7607 O   0  0  0  0  0  0  0  0  0  0  0  0
    7.6373   13.4528   20.3235 O   0  0  0  0  0  0  0  0  0  0  0  0
    9.4212   11.9884   22.6441 O   0  0  0  0  0  0  0  0  0  0  0  0
    7.7084   14.2946   21.5113 S   0  0  0  0  0  0  0  0  0  0  0  0
    5.1053   12.9007   25.4077 H   0  0  0  0  0  0  0  0  0  0  0  0
    6.7108   11.1221   26.0806 H   0  0  0  0  0  0  0  0  0  0  0  0
    5.5371   14.2907   23.4131 H   0  0  0  0  0  0  0  0  0  0  0  0
    9.7596   10.8239   25.4891 H   0  0  0  0  0  0  0  0  0  0  0  0
    8.7505    9.5614   24.7301 H   0  0  0  0  0  0  0  0  0  0  0  0
   11.9031   11.0567   22.5569 H   0  0  0  0  0  0  0  0  0  0  0  0
   11.7879   10.0362   24.0035 H   0  0  0  0  0  0  0  0  0  0  0  0
   11.5837   11.7934   24.1390 H   0  0  0  0  0  0  0  0  0  0  0  0
   10.1795    9.7705   21.3869 H   0  0  0  0  0  0  0  0  0  0  0  0
    8.5717    9.5397   22.1002 H   0  0  0  0  0  0  0  0  0  0  0  0
    9.9696    8.6725   22.7646 H   0  0  0  0  0  0  0  0  0  0  0  0
    5.4359   14.9335   21.2762 H   0  0  0  0  0  0  0  0  0  0  0  0
    6.3013   16.0530   22.2567 H   0  0  0  0  0  0  0  0  0  0  0  0
  1  2  2  0  0  0  0
  1  3  1  0  0  0  0
  2  4  1  0  0  0  0
  3  6  2  0  0  0  0
  4  5  2  0  0  0  0
  4  7  1  0  0  0  0
  5  6  1  0  0  0  0
  5 14  1  0  0  0  0
  6 15  1  0  0  0  0
  7  8  1  0  0  0  0
  8  9  1  0  0  0  0
  8 10  1  0  0  0  0
  8 14  1  0  0  0  0
 11 15  1  0  0  0  0
 12 15  2  0  0  0  0
 13 15  2  0  0  0  0
  1 16  1  0  0  0  0
  2 17  1  0  0  0  0
  3 18  1  0  0  0  0
  7 19  1  0  0  0  0
  7 20  1  0  0  0  0
  9 21  1  0  0  0  0
  9 22  1  0  0  0  0
  9 23  1  0  0  0  0
 10 24  1  0  0  0  0
 10 25  1  0  0  0  0
 10 26  1  0  0  0  0
 11 27  1  0  0  0  0
 11 28  1  0  0  0  0
M  END
> <Mol Weight>
227,28

> <Formula>
C10H13NO3S

> <ID>
EN300-201969

> <name>
Sulfonamides

> <LogP>
1,16

> <ROCS_ShapeQuery>
x0446_0A_x1080_0A_x0929_0A_x0812_0A_x0719_0A_x1140_0A_x0528_0A_x0310_0A

> <ROCS_TanimotoCombo>
0.345 

> <ROCS_ShapeTanimoto>
0.203 

> <ROCS_ColorTanimoto>
0.143 

> <ROCS_RefTversky>
0.186 

> <ROCS_RefColorTversky>
0.155 

> <ROCS_RefTverskyCombo>
0.341 

> <ROCS_FitTversky>
1.768 

> <ROCS_FitColorTversky>
0.647 

> <ROCS_FitTverskyCombo>
2.416 

> <ROCS_ColorScore>
-5.524

> <ROCS_Overlap>
2195.693

> <ROCS_Rank>
196                 

$$$$
untitled-dbase-1629_4
  -OEChem-02082415043D

 29 30  0     1  0  0  0  0  0999 V2000
    5.9287   12.8200   24.6053 C   0  0  0  0  0  0  0  0  0  0  0  0
    6.8137   11.8449   25.0605 C   0  0  0  0  0  0  0  0  0  0  0  0
    6.2531   13.5840   23.4883 C   0  0  0  0  0  0  0  0  0  0  0  0
    8.0294   11.6254   24.3970 C   0  0  0  0  0  0  0  0  0  0  0  0
    8.3779   12.4139   23.2829 C   0  0  0  0  0  0  0  0  0  0  0  0
    7.4671   13.3797   22.8305 C   0  0  0  0  0  0  0  0  0  0  0  0
    8.9792   10.5698   24.9104 C   0  0  0  0  0  0  0  0  0  0  0  0
   10.6020   11.3607   23.1626 C   0  0  0  0  0  0  0  0  0  0  0  0
   10.0004   10.1294   23.8488 C   0  0  2  0  0  0  0  0  0  0  0  0
    9.3889    9.1534   22.8372 C   0  0  0  0  0  0  0  0  0  0  0  0
    9.5721   12.2145   22.6014 N   0  0  0  0  0  0  0  0  0  0  0  0
    6.3793   15.3315   21.3773 N   0  0  0  0  0  0  0  0  0  0  0  0
    8.9293   15.2383   21.7439 O   0  0  0  0  0  0  0  0  0  0  0  0
    7.8343   13.5253   20.2559 O   0  0  0  0  0  0  0  0  0  0  0  0
    7.7976   14.3834   21.4281 S   0  0  0  0  0  0  0  0  0  0  0  0
    4.9867   12.9824   25.1206 H   0  0  0  0  0  0  0  0  0  0  0  0
    6.5501   11.2520   25.9327 H   0  0  0  0  0  0  0  0  0  0  0  0
    5.5522   14.3379   23.1397 H   0  0  0  0  0  0  0  0  0  0  0  0
    9.5140   10.9944   25.7694 H   0  0  0  0  0  0  0  0  0  0  0  0
    8.4188    9.6987   25.2705 H   0  0  0  0  0  0  0  0  0  0  0  0
   11.1836   11.9402   23.8903 H   0  0  0  0  0  0  0  0  0  0  0  0
   11.2948   11.0592   22.3690 H   0  0  0  0  0  0  0  0  0  0  0  0
   10.8088    9.5913   24.3610 H   0  0  0  0  0  0  0  0  0  0  0  0
    8.5795    9.6436   22.3024 H   0  0  0  0  0  0  0  0  0  0  0  0
    9.0009    8.2832   23.3603 H   0  0  0  0  0  0  0  0  0  0  0  0
   10.1511    8.8388   22.1289 H   0  0  0  0  0  0  0  0  0  0  0  0
    9.8290   12.8333   21.8430 H   0  0  0  0  0  0  0  0  0  0  0  0
    6.4546   16.3226   21.6371 H   0  0  0  0  0  0  0  0  0  0  0  0
    5.7072   15.1503   20.6219 H   0  0  0  0  0  0  0  0  0  0  0  0
  1  2  2  0  0  0  0
  1  3  1  0  0  0  0
  2  4  1  0  0  0  0
  3  6  2  0  0  0  0
  4  5  2  0  0  0  0
  4  7  1  0  0  0  0
  5  6  1  0  0  0  0
  5 11  1  0  0  0  0
  6 15  1  0  0  0  0
  7  9  1  0  0  0  0
  8  9  1  0  0  0  0
  8 11  1  0  0  0  0
  9 10  1  0  0  0  0
 12 15  1  0  0  0  0
 13 15  2  0  0  0  0
 14 15  2  0  0  0  0
  1 16  1  0  0  0  0
  2 17  1  0  0  0  0
  3 18  1  0  0  0  0
  7 19  1  0  0  0  0
  7 20  1  0  0  0  0
  8 21  1  0  0  0  0
  8 22  1  0  0  0  0
  9 23  1  0  0  0  0
 10 24  1  0  0  0  0
 10 25  1  0  0  0  0
 10 26  1  0  0  0  0
 11 27  1  0  0  0  0
 12 28  1  0  0  0  0
 12 29  1  0  0  0  0
M  END
> <Mol Weight>
226,29

> <Formula>
C10H14N2O2S

> <ID>
EN300-39050

> <name>
Sulfonamides

> <LogP>
0,90

> <ROCS_ShapeQuery>
x0446_0A_x1080_0A_x0929_0A_x0812_0A_x0719_0A_x1140_0A_x0528_0A_x0310_0A

> <ROCS_TanimotoCombo>
0.345 

> <ROCS_ShapeTanimoto>
0.198 

> <ROCS_ColorTanimoto>
0.147 

> <ROCS_RefTversky>
0.183 

> <ROCS_RefColorTversky>
0.155 

> <ROCS_RefTverskyCombo>
0.338 

> <ROCS_FitTversky>
1.748 

> <ROCS_FitColorTversky>
0.731 

> <ROCS_FitTverskyCombo>
2.480 

> <ROCS_ColorScore>
-5.534

> <ROCS_Overlap>
2153.427

> <ROCS_Rank>
197                 

$$$$
untitled-dbase-2665_11834
  -OEChem-02082415043D

 28 28  0     0  0  0  0  0  0999 V2000
    8.4922   11.0407   25.0405 C   0  0  0  0  0  0  0  0  0  0  0  0
    9.6849   10.7185   24.3306 C   0  0  0  0  0  0  0  0  0  0  0  0
    7.5687   11.6754   24.2394 C   0  0  0  0  0  0  0  0  0  0  0  0
    9.6273   11.1192   23.0137 C   0  0  0  0  0  0  0  0  0  0  0  0
    6.2667   12.1511   24.5771 C   0  0  0  0  0  0  0  0  0  0  0  0
   12.1842   15.2216   22.1555 C   0  0  0  0  0  0  0  0  0  0  0  0
   10.6743   10.9628   21.9383 C   0  0  0  0  0  0  0  0  0  0  0  0
    5.6680   13.3759   23.8471 C   0  0  0  0  0  0  0  0  0  0  0  0
   11.4210   12.2608   21.6410 C   0  0  0  0  0  0  0  0  0  0  0  0
   10.5210   13.3445   21.2070 N   0  0  0  0  0  0  0  0  0  0  0  0
    5.5717   11.5930   25.4707 O   0  0  0  0  0  0  0  0  0  0  0  0
   10.0394   14.5008   23.4709 O   0  0  0  0  0  0  0  0  0  0  0  0
    9.7795   15.7990   21.3254 O   0  0  0  0  0  0  0  0  0  0  0  0
    8.1402   11.8805   22.6383 S   0  0  0  0  0  0  0  0  0  0  0  0
   10.4598   14.7896   22.1138 S   0  0  0  0  0  0  0  0  0  0  0  0
    6.6660   14.8330   24.0311 Cl  0  0  0  0  0  0  0  0  0  0  0  0
    8.3250   10.8162   26.0864 H   0  0  0  0  0  0  0  0  0  0  0  0
   10.5396   10.2178   24.7676 H   0  0  0  0  0  0  0  0  0  0  0  0
   12.2932   16.1499   22.7185 H   0  0  0  0  0  0  0  0  0  0  0  0
   12.7302   14.4124   22.6429 H   0  0  0  0  0  0  0  0  0  0  0  0
   12.5310   15.3536   21.1295 H   0  0  0  0  0  0  0  0  0  0  0  0
   10.1829   10.6094   21.0230 H   0  0  0  0  0  0  0  0  0  0  0  0
   11.3840   10.1756   22.2231 H   0  0  0  0  0  0  0  0  0  0  0  0
    5.6003   13.1596   22.7781 H   0  0  0  0  0  0  0  0  0  0  0  0
    4.6840   13.5987   24.2667 H   0  0  0  0  0  0  0  0  0  0  0  0
   11.9283   12.6145   22.5441 H   0  0  0  0  0  0  0  0  0  0  0  0
   12.1741   12.1234   20.8580 H   0  0  0  0  0  0  0  0  0  0  0  0
   10.4358   13.4323   20.1860 H   0  0  0  0  0  0  0  0  0  0  0  0
  1  2  1  0  0  0  0
  1  3  2  0  0  0  0
  2  4  2  0  0  0  0
  3  5  1  0  0  0  0
  3 14  1  0  0  0  0
  4  7  1  0  0  0  0
  4 14  1  0  0  0  0
  5  8  1  0  0  0  0
  5 11  2  0  0  0  0
  6 15  1  0  0  0  0
  7  9  1  0  0  0  0
  8 16  1  0  0  0  0
  9 10  1  0  0  0  0
 10 15  1  0  0  0  0
 12 15  2  0  0  0  0
 13 15  2  0  0  0  0
  1 17  1  0  0  0  0
  2 18  1  0  0  0  0
  6 19  1  0  0  0  0
  6 20  1  0  0  0  0
  6 21  1  0  0  0  0
  7 22  1  0  0  0  0
  7 23  1  0  0  0  0
  8 24  1  0  0  0  0
  8 25  1  0  0  0  0
  9 26  1  0  0  0  0
  9 27  1  0  0  0  0
 10 28  1  0  0  0  0
M  END
> <Mol Weight>
281,77

> <Formula>
C9H12ClNO3S2

> <ID>
EN300-15407

> <name>
Sulfonamides

> <LogP>
0,84

> <ROCS_ShapeQuery>
x0446_0A_x1080_0A_x0929_0A_x0812_0A_x0719_0A_x1140_0A_x0528_0A_x0310_0A

> <ROCS_TanimotoCombo>
0.345 

> <ROCS_ShapeTanimoto>
0.190 

> <ROCS_ColorTanimoto>
0.155 

> <ROCS_RefTversky>
0.176 

> <ROCS_RefColorTversky>
0.159 

> <ROCS_RefTverskyCombo>
0.335 

> <ROCS_FitTversky>
1.708 

> <ROCS_FitColorTversky>
0.856 

> <ROCS_FitTverskyCombo>
2.564 

> <ROCS_ColorScore>
-5.658

> <ROCS_Overlap>
2078.315

> <ROCS_Rank>
198                 

$$$$
untitled-dbase-1708_4
  -OEChem-02082415043D

 26 27  0     0  0  0  0  0  0999 V2000
    7.4356   11.0806   24.6069 C   0  0  0  0  0  0  0  0  0  0  0  0
    6.5529   13.0975   23.5665 C   0  0  0  0  0  0  0  0  0  0  0  0
    8.4684   11.1056   23.6881 C   0  0  0  0  0  0  0  0  0  0  0  0
    8.5410   12.1017   22.7256 C   0  0  0  0  0  0  0  0  0  0  0  0
    6.4740   12.0927   24.5456 C   0  0  0  0  0  0  0  0  0  0  0  0
    7.5953   13.1046   22.6379 C   0  0  0  0  0  0  0  0  0  0  0  0
    9.5730   10.1437   23.4827 C   0  0  0  0  0  0  0  0  0  0  0  0
   10.4410   10.9736   22.5354 C   0  0  0  0  0  0  0  0  0  0  0  0
    5.4334   11.0708   26.4240 C   0  0  0  0  0  0  0  0  0  0  0  0
    6.2926   15.2661   21.7802 N   0  0  0  0  0  0  0  0  0  0  0  0
    8.8652   15.1543   21.6585 O   0  0  0  0  0  0  0  0  0  0  0  0
    7.4940   13.7174   20.1084 O   0  0  0  0  0  0  0  0  0  0  0  0
    9.6158   11.9683   21.8836 O   0  0  0  0  0  0  0  0  0  0  0  0
    5.4543   12.1115   25.4492 O   0  0  0  0  0  0  0  0  0  0  0  0
    7.6817   14.3400   21.4129 S   0  0  0  0  0  0  0  0  0  0  0  0
    7.3773   10.3006   25.3589 H   0  0  0  0  0  0  0  0  0  0  0  0
    5.7935   13.8759   23.5386 H   0  0  0  0  0  0  0  0  0  0  0  0
   10.0909    9.9539   24.4279 H   0  0  0  0  0  0  0  0  0  0  0  0
    9.2615    9.1999   23.0283 H   0  0  0  0  0  0  0  0  0  0  0  0
   11.2555   11.4733   23.0696 H   0  0  0  0  0  0  0  0  0  0  0  0
   10.8853   10.3445   21.7532 H   0  0  0  0  0  0  0  0  0  0  0  0
    4.5706   11.2035   27.0813 H   0  0  0  0  0  0  0  0  0  0  0  0
    6.3571   11.0983   27.0075 H   0  0  0  0  0  0  0  0  0  0  0  0
    5.3554   10.1077   25.9141 H   0  0  0  0  0  0  0  0  0  0  0  0
    6.4285   16.1955   22.1964 H   0  0  0  0  0  0  0  0  0  0  0  0
    5.4925   15.2117   21.1382 H   0  0  0  0  0  0  0  0  0  0  0  0
  1  3  2  0  0  0  0
  1  5  1  0  0  0  0
  2  5  2  0  0  0  0
  2  6  1  0  0  0  0
  3  4  1  0  0  0  0
  3  7  1  0  0  0  0
  4  6  2  0  0  0  0
  4 13  1  0  0  0  0
  5 14  1  0  0  0  0
  6 15  1  0  0  0  0
  7  8  1  0  0  0  0
  8 13  1  0  0  0  0
  9 14  1  0  0  0  0
 10 15  1  0  0  0  0
 11 15  2  0  0  0  0
 12 15  2  0  0  0  0
  1 16  1  0  0  0  0
  2 17  1  0  0  0  0
  7 18  1  0  0  0  0
  7 19  1  0  0  0  0
  8 20  1  0  0  0  0
  8 21  1  0  0  0  0
  9 22  1  0  0  0  0
  9 23  1  0  0  0  0
  9 24  1  0  0  0  0
 10 25  1  0  0  0  0
 10 26  1  0  0  0  0
M  END
> <Mol Weight>
229,25

> <Formula>
C9H11NO4S

> <ID>
EN300-37158275

> <name>
Sulfonamides

> <LogP>
0,30

> <ROCS_ShapeQuery>
x0446_0A_x1080_0A_x0929_0A_x0812_0A_x0719_0A_x1140_0A_x0528_0A_x0310_0A

> <ROCS_TanimotoCombo>
0.345 

> <ROCS_ShapeTanimoto>
0.182 

> <ROCS_ColorTanimoto>
0.163 

> <ROCS_RefTversky>
0.170 

> <ROCS_RefColorTversky>
0.174 

> <ROCS_RefTverskyCombo>
0.344 

> <ROCS_FitTversky>
1.612 

> <ROCS_FitColorTversky>
0.727 

> <ROCS_FitTverskyCombo>
2.339 

> <ROCS_ColorScore>
-6.204

> <ROCS_Overlap>
2005.467

> <ROCS_Rank>
199                 

$$$$
untitled-dbase-900_324
  -OEChem-02082415043D

 24 24  0     0  0  0  0  0  0999 V2000
    8.6559   12.0011   24.9070 C   0  0  0  0  0  0  0  0  0  0  0  0
    9.2721   10.4858   22.7971 C   0  0  0  0  0  0  0  0  0  0  0  0
    7.9193   10.8787   24.5985 C   0  0  0  0  0  0  0  0  0  0  0  0
   10.0083   11.6086   23.1050 C   0  0  0  0  0  0  0  0  0  0  0  0
    6.7568   10.4828   25.4400 C   0  0  0  0  0  0  0  0  0  0  0  0
   11.6110   15.7325   21.3087 C   0  0  0  0  0  0  0  0  0  0  0  0
   11.1810   12.0077   22.2567 C   0  0  0  0  0  0  0  0  0  0  0  0
    8.2143   10.1007   23.5383 N   0  0  0  0  0  0  0  0  0  0  0  0
    9.7135   12.3864   24.1655 N   0  0  0  0  0  0  0  0  0  0  0  0
   10.8682   13.1574   21.3890 N   0  0  0  0  0  0  0  0  0  0  0  0
   10.7562   14.6217   23.5191 O   0  0  0  0  0  0  0  0  0  0  0  0
    9.1228   15.0226   21.6409 O   0  0  0  0  0  0  0  0  0  0  0  0
   10.4458   14.6494   22.1032 S   0  0  0  0  0  0  0  0  0  0  0  0
    8.4254   12.6312   25.7579 H   0  0  0  0  0  0  0  0  0  0  0  0
    9.5030    9.8553   21.9466 H   0  0  0  0  0  0  0  0  0  0  0  0
    5.8357   10.9499   25.0677 H   0  0  0  0  0  0  0  0  0  0  0  0
    6.6155    9.3932   25.4418 H   0  0  0  0  0  0  0  0  0  0  0  0
    6.8985   10.7840   26.4871 H   0  0  0  0  0  0  0  0  0  0  0  0
   11.4495   16.7451   21.6817 H   0  0  0  0  0  0  0  0  0  0  0  0
   12.6186   15.3917   21.5513 H   0  0  0  0  0  0  0  0  0  0  0  0
   11.4415   15.6901   20.2318 H   0  0  0  0  0  0  0  0  0  0  0  0
   12.0361   12.2815   22.8842 H   0  0  0  0  0  0  0  0  0  0  0  0
   11.5008   11.1806   21.6142 H   0  0  0  0  0  0  0  0  0  0  0  0
   10.3812   12.9036   20.5196 H   0  0  0  0  0  0  0  0  0  0  0  0
  1  3  1  0  0  0  0
  1  9  2  0  0  0  0
  2  4  2  0  0  0  0
  2  8  1  0  0  0  0
  3  5  1  0  0  0  0
  3  8  2  0  0  0  0
  4  7  1  0  0  0  0
  4  9  1  0  0  0  0
  6 13  1  0  0  0  0
  7 10  1  0  0  0  0
 10 13  1  0  0  0  0
 11 13  2  0  0  0  0
 12 13  2  0  0  0  0
  1 14  1  0  0  0  0
  2 15  1  0  0  0  0
  5 16  1  0  0  0  0
  5 17  1  0  0  0  0
  5 18  1  0  0  0  0
  6 19  1  0  0  0  0
  6 20  1  0  0  0  0
  6 21  1  0  0  0  0
  7 22  1  0  0  0  0
  7 23  1  0  0  0  0
 10 24  1  0  0  0  0
M  END
> <Mol Weight>
201,24

> <Formula>
C7H11N3O2S

> <ID>
EN300-748970

> <name>
Sulfonamides

> <LogP>
-1,81

> <ROCS_ShapeQuery>
x0446_0A_x1080_0A_x0929_0A_x0812_0A_x0719_0A_x1140_0A_x0528_0A_x0310_0A

> <ROCS_TanimotoCombo>
0.345 

> <ROCS_ShapeTanimoto>
0.182 

> <ROCS_ColorTanimoto>
0.163 

> <ROCS_RefTversky>
0.169 

> <ROCS_RefColorTversky>
0.169 

> <ROCS_RefTverskyCombo>
0.338 

> <ROCS_FitTversky>
1.758 

> <ROCS_FitColorTversky>
0.798 

> <ROCS_FitTverskyCombo>
2.556 

> <ROCS_ColorScore>
-6.039

> <ROCS_Overlap>
1991.830

> <ROCS_Rank>
200                 

$$$$
untitled-dbase-1009_27
  -OEChem-02082415043D

 22 22  0     0  0  0  0  0  0999 V2000
    7.7193   10.6609   24.1543 C   0  0  0  0  0  0  0  0  0  0  0  0
    7.5525   12.0208   24.3913 C   0  0  0  0  0  0  0  0  0  0  0  0
    8.9611   10.2258   23.7201 C   0  0  0  0  0  0  0  0  0  0  0  0
    8.6174   12.8917   24.1897 C   0  0  0  0  0  0  0  0  0  0  0  0
    9.8190   12.3568   23.7541 C   0  0  0  0  0  0  0  0  0  0  0  0
    8.4654   14.3509   24.4364 C   0  0  0  0  0  0  0  0  0  0  0  0
    7.3744   15.0106   23.5858 C   0  0  0  0  0  0  0  0  0  0  0  0
   10.0190   11.0416   23.5132 N   0  0  0  0  0  0  0  0  0  0  0  0
    6.2889   15.6431   21.2464 N   0  0  0  0  0  0  0  0  0  0  0  0
    8.8474   15.5531   21.4971 O   0  0  0  0  0  0  0  0  0  0  0  0
    7.5205   13.4028   21.5312 O   0  0  0  0  0  0  0  0  0  0  0  0
   10.8613   13.1797   23.5535 F   0  0  0  0  0  0  0  0  0  0  0  0
    7.6491   14.8134   21.8531 S   0  0  0  0  0  0  0  0  0  0  0  0
    6.9032    9.9635   24.3047 H   0  0  0  0  0  0  0  0  0  0  0  0
    6.5902   12.3925   24.7328 H   0  0  0  0  0  0  0  0  0  0  0  0
    9.1428    9.1748   23.5211 H   0  0  0  0  0  0  0  0  0  0  0  0
    9.4193   14.8647   24.2192 H   0  0  0  0  0  0  0  0  0  0  0  0
    8.2632   14.5595   25.5027 H   0  0  0  0  0  0  0  0  0  0  0  0
    6.3997   14.5551   23.7883 H   0  0  0  0  0  0  0  0  0  0  0  0
    7.2991   16.0850   23.7793 H   0  0  0  0  0  0  0  0  0  0  0  0
    6.4462   16.5500   20.7899 H   0  0  0  0  0  0  0  0  0  0  0  0
    5.5425   15.0855   20.8134 H   0  0  0  0  0  0  0  0  0  0  0  0
  1  2  2  0  0  0  0
  1  3  1  0  0  0  0
  2  4  1  0  0  0  0
  3  8  2  0  0  0  0
  4  5  2  0  0  0  0
  4  6  1  0  0  0  0
  5  8  1  0  0  0  0
  5 12  1  0  0  0  0
  6  7  1  0  0  0  0
  7 13  1  0  0  0  0
  9 13  1  0  0  0  0
 10 13  2  0  0  0  0
 11 13  2  0  0  0  0
  1 14  1  0  0  0  0
  2 15  1  0  0  0  0
  3 16  1  0  0  0  0
  6 17  1  0  0  0  0
  6 18  1  0  0  0  0
  7 19  1  0  0  0  0
  7 20  1  0  0  0  0
  9 21  1  0  0  0  0
  9 22  1  0  0  0  0
M  END
> <Mol Weight>
204,22

> <Formula>
C7H9FN2O2S

> <ID>
EN300-7444163

> <name>
Sulfonamides

> <LogP>
-0,05

> <ROCS_ShapeQuery>
x0446_0A_x1080_0A_x0929_0A_x0812_0A_x0719_0A_x1140_0A_x0528_0A_x0310_0A

> <ROCS_TanimotoCombo>
0.345 

> <ROCS_ShapeTanimoto>
0.191 

> <ROCS_ColorTanimoto>
0.153 

> <ROCS_RefTversky>
0.176 

> <ROCS_RefColorTversky>
0.158 

> <ROCS_RefTverskyCombo>
0.334 

> <ROCS_FitTversky>
1.830 

> <ROCS_FitColorTversky>
0.849 

> <ROCS_FitTverskyCombo>
2.679 

> <ROCS_ColorScore>
-5.613

> <ROCS_Overlap>
2073.831

> <ROCS_Rank>
201                 

$$$$
untitled-dbase-1751_563
  -OEChem-02082415043D

 29 29  0     0  0  0  0  0  0999 V2000
    9.2208   13.5235   23.9111 C   0  0  0  0  0  0  0  0  0  0  0  0
    8.0275   13.0754   24.4776 C   0  0  0  0  0  0  0  0  0  0  0  0
    9.7821   11.2548   23.2987 C   0  0  0  0  0  0  0  0  0  0  0  0
   10.0980   12.6132   23.3215 C   0  0  0  0  0  0  0  0  0  0  0  0
    8.5889   10.8066   23.8652 C   0  0  0  0  0  0  0  0  0  0  0  0
    7.7116   11.7169   24.4547 C   0  0  0  0  0  0  0  0  0  0  0  0
    5.7064   12.2998   25.5927 C   0  0  0  0  0  0  0  0  0  0  0  0
   11.4187   15.8029   19.6980 C   0  0  0  0  0  0  0  0  0  0  0  0
   11.3821   13.0962   22.7117 C   0  0  0  0  0  0  0  0  0  0  0  0
    8.2814    9.4289   23.8348 N   0  0  0  0  0  0  0  0  0  0  0  0
   11.1615   13.7581   21.4133 N   0  0  0  0  0  0  0  0  0  0  0  0
   11.8673   16.0991   22.2595 O   0  0  0  0  0  0  0  0  0  0  0  0
    9.5042   15.7175   21.4680 O   0  0  0  0  0  0  0  0  0  0  0  0
    6.5407   11.2991   25.0132 O   0  0  0  0  0  0  0  0  0  0  0  0
   10.9259   15.4484   21.3694 S   0  0  0  0  0  0  0  0  0  0  0  0
    9.4581   14.5839   23.9333 H   0  0  0  0  0  0  0  0  0  0  0  0
    7.3485   13.7899   24.9350 H   0  0  0  0  0  0  0  0  0  0  0  0
   10.4679   10.5468   22.8384 H   0  0  0  0  0  0  0  0  0  0  0  0
    4.8067   11.8333   26.0015 H   0  0  0  0  0  0  0  0  0  0  0  0
    5.4346   13.0349   24.8309 H   0  0  0  0  0  0  0  0  0  0  0  0
    6.2538   12.7970   26.3970 H   0  0  0  0  0  0  0  0  0  0  0  0
   11.3153   16.8758   19.5287 H   0  0  0  0  0  0  0  0  0  0  0  0
   12.4577   15.4943   19.5725 H   0  0  0  0  0  0  0  0  0  0  0  0
   10.7694   15.2447   19.0219 H   0  0  0  0  0  0  0  0  0  0  0  0
   11.8793   13.8123   23.3751 H   0  0  0  0  0  0  0  0  0  0  0  0
   12.0773   12.2657   22.5502 H   0  0  0  0  0  0  0  0  0  0  0  0
    8.9023    8.8023   23.3654 H   0  0  0  0  0  0  0  0  0  0  0  0
    7.4045    9.1184   24.1995 H   0  0  0  0  0  0  0  0  0  0  0  0
   10.6189   13.1955   20.7451 H   0  0  0  0  0  0  0  0  0  0  0  0
  1  2  2  0  0  0  0
  1  4  1  0  0  0  0
  2  6  1  0  0  0  0
  3  4  2  0  0  0  0
  3  5  1  0  0  0  0
  4  9  1  0  0  0  0
  5  6  2  0  0  0  0
  5 10  1  0  0  0  0
  6 14  1  0  0  0  0
  7 14  1  0  0  0  0
  8 15  1  0  0  0  0
  9 11  1  0  0  0  0
 11 15  1  0  0  0  0
 12 15  2  0  0  0  0
 13 15  2  0  0  0  0
  1 16  1  0  0  0  0
  2 17  1  0  0  0  0
  3 18  1  0  0  0  0
  7 19  1  0  0  0  0
  7 20  1  0  0  0  0
  7 21  1  0  0  0  0
  8 22  1  0  0  0  0
  8 23  1  0  0  0  0
  8 24  1  0  0  0  0
  9 25  1  0  0  0  0
  9 26  1  0  0  0  0
 10 27  1  0  0  0  0
 10 28  1  0  0  0  0
 11 29  1  0  0  0  0
M  END
> <Mol Weight>
230,28

> <Formula>
C9H14N2O3S

> <ID>
EN300-244391

> <name>
Sulfonamides

> <LogP>
-0,57

> <ROCS_ShapeQuery>
x0446_0A_x1080_0A_x0929_0A_x0812_0A_x0719_0A_x1140_0A_x0528_0A_x0310_0A

> <ROCS_TanimotoCombo>
0.344 

> <ROCS_ShapeTanimoto>
0.206 

> <ROCS_ColorTanimoto>
0.138 

> <ROCS_RefTversky>
0.189 

> <ROCS_RefColorTversky>
0.150 

> <ROCS_RefTverskyCombo>
0.339 

> <ROCS_FitTversky>
1.837 

> <ROCS_FitColorTversky>
0.629 

> <ROCS_FitTverskyCombo>
2.466 

> <ROCS_ColorScore>
-5.356

> <ROCS_Overlap>
2224.186

> <ROCS_Rank>
202                 

$$$$
untitled-dbase-1527_32
  -OEChem-02082415043D

 25 26  0     0  0  0  0  0  0999 V2000
    6.2597   10.4897   24.6758 C   0  0  0  0  0  0  0  0  0  0  0  0
    6.8081   11.7634   24.6327 C   0  0  0  0  0  0  0  0  0  0  0  0
   10.7514   12.2654   23.3082 C   0  0  0  0  0  0  0  0  0  0  0  0
   10.1701   10.9962   23.3632 C   0  0  0  0  0  0  0  0  0  0  0  0
    8.7100   13.2258   24.1371 C   0  0  0  0  0  0  0  0  0  0  0  0
    7.0570    9.4377   24.2727 C   0  0  0  0  0  0  0  0  0  0  0  0
    8.1255   11.9491   24.1924 C   0  0  0  0  0  0  0  0  0  0  0  0
   10.0208   13.3818   23.6956 C   0  0  0  0  0  0  0  0  0  0  0  0
    8.8614   10.8111   23.8008 C   0  0  0  0  0  0  0  0  0  0  0  0
   10.6366   14.7381   23.6378 C   0  0  0  0  0  0  0  0  0  0  0  0
    8.3319    9.5738   23.8414 N   0  0  0  0  0  0  0  0  0  0  0  0
   11.1839   13.7383   21.2395 N   0  0  0  0  0  0  0  0  0  0  0  0
    9.3867   15.5608   21.4958 O   0  0  0  0  0  0  0  0  0  0  0  0
   11.8212   16.1670   21.7986 O   0  0  0  0  0  0  0  0  0  0  0  0
   10.7268   15.2223   21.9440 S   0  0  0  0  0  0  0  0  0  0  0  0
    5.2431   10.3272   25.0136 H   0  0  0  0  0  0  0  0  0  0  0  0
    6.2019   12.6109   24.9446 H   0  0  0  0  0  0  0  0  0  0  0  0
   11.7762   12.3684   22.9612 H   0  0  0  0  0  0  0  0  0  0  0  0
   10.7639   10.1376   23.0546 H   0  0  0  0  0  0  0  0  0  0  0  0
    8.1385   14.1017   24.4392 H   0  0  0  0  0  0  0  0  0  0  0  0
    6.6825    8.4194   24.2853 H   0  0  0  0  0  0  0  0  0  0  0  0
   11.6537   14.7518   24.0465 H   0  0  0  0  0  0  0  0  0  0  0  0
   10.0418   15.4889   24.1712 H   0  0  0  0  0  0  0  0  0  0  0  0
   10.4846   13.2425   20.6731 H   0  0  0  0  0  0  0  0  0  0  0  0
   12.1426   13.6553   20.8795 H   0  0  0  0  0  0  0  0  0  0  0  0
  1  2  2  0  0  0  0
  1  6  1  0  0  0  0
  2  7  1  0  0  0  0
  3  4  2  0  0  0  0
  3  8  1  0  0  0  0
  4  9  1  0  0  0  0
  5  7  1  0  0  0  0
  5  8  2  0  0  0  0
  6 11  2  0  0  0  0
  7  9  2  0  0  0  0
  8 10  1  0  0  0  0
  9 11  1  0  0  0  0
 10 15  1  0  0  0  0
 12 15  1  0  0  0  0
 13 15  2  0  0  0  0
 14 15  2  0  0  0  0
  1 16  1  0  0  0  0
  2 17  1  0  0  0  0
  3 18  1  0  0  0  0
  4 19  1  0  0  0  0
  5 20  1  0  0  0  0
  6 21  1  0  0  0  0
 10 22  1  0  0  0  0
 10 23  1  0  0  0  0
 12 24  1  0  0  0  0
 12 25  1  0  0  0  0
M  END
> <Mol Weight>
222,26

> <Formula>
C10H10N2O2S

> <ID>
EN300-258235

> <name>
Sulfonamides

> <LogP>
0,50

> <ROCS_ShapeQuery>
x0446_0A_x1080_0A_x0929_0A_x0812_0A_x0719_0A_x1140_0A_x0528_0A_x0310_0A

> <ROCS_TanimotoCombo>
0.344 

> <ROCS_ShapeTanimoto>
0.208 

> <ROCS_ColorTanimoto>
0.136 

> <ROCS_RefTversky>
0.190 

> <ROCS_RefColorTversky>
0.145 

> <ROCS_RefTverskyCombo>
0.336 

> <ROCS_FitTversky>
1.806 

> <ROCS_FitColorTversky>
0.683 

> <ROCS_FitTverskyCombo>
2.490 

> <ROCS_ColorScore>
-5.172

> <ROCS_Overlap>
2246.858

> <ROCS_Rank>
203                 

$$$$
untitled-dbase-2146_6
  -OEChem-02082415043D

 25 26  0     1  0  0  0  0  0999 V2000
    8.9552   13.1013   23.6738 C   0  0  0  0  0  0  0  0  0  0  0  0
   10.1637   11.9141   21.9261 C   0  0  0  0  0  0  0  0  0  0  0  0
    8.4735   11.8826   24.1159 C   0  0  0  0  0  0  0  0  0  0  0  0
    8.8318   10.7045   23.4813 C   0  0  0  0  0  0  0  0  0  0  0  0
    9.8041   13.1126   22.5640 C   0  0  0  0  0  0  0  0  0  0  0  0
    9.6774   10.6902   22.3887 C   0  0  0  0  0  0  0  0  0  0  0  0
    7.6138   11.5784   25.2809 C   0  0  0  0  0  0  0  0  0  0  0  0
    7.3132   10.0958   25.0044 C   0  0  1  0  0  0  0  0  0  0  0  0
    5.9110    9.8730   24.4434 C   0  0  0  0  0  0  0  0  0  0  0  0
   11.3663   14.0991   20.6427 N   0  0  0  0  0  0  0  0  0  0  0  0
    9.2911   15.4036   21.4411 O   0  0  0  0  0  0  0  0  0  0  0  0
   11.2896   15.2145   22.9636 O   0  0  0  0  0  0  0  0  0  0  0  0
    8.2781    9.5852   24.0468 O   0  0  0  0  0  0  0  0  0  0  0  0
   10.4137   14.6332   21.9564 S   0  0  0  0  0  0  0  0  0  0  0  0
   10.1298    9.2252   21.6156 Cl  0  0  0  0  0  0  0  0  0  0  0  0
    8.6737   14.0217   24.1755 H   0  0  0  0  0  0  0  0  0  0  0  0
   10.8242   11.9447   21.0619 H   0  0  0  0  0  0  0  0  0  0  0  0
    8.1224   11.7122   26.2427 H   0  0  0  0  0  0  0  0  0  0  0  0
    6.7091   12.1988   25.2539 H   0  0  0  0  0  0  0  0  0  0  0  0
    7.4291    9.5060   25.9239 H   0  0  0  0  0  0  0  0  0  0  0  0
    5.7754   10.4514   23.5279 H   0  0  0  0  0  0  0  0  0  0  0  0
    5.1603   10.1866   25.1707 H   0  0  0  0  0  0  0  0  0  0  0  0
    5.7598    8.8163   24.2164 H   0  0  0  0  0  0  0  0  0  0  0  0
   11.0238   14.2854   19.6922 H   0  0  0  0  0  0  0  0  0  0  0  0
   12.3879   14.1550   20.7342 H   0  0  0  0  0  0  0  0  0  0  0  0
  1  3  1  0  0  0  0
  1  5  2  0  0  0  0
  2  5  1  0  0  0  0
  2  6  2  0  0  0  0
  3  4  2  0  0  0  0
  3  7  1  0  0  0  0
  4  6  1  0  0  0  0
  4 13  1  0  0  0  0
  5 14  1  0  0  0  0
  6 15  1  0  0  0  0
  7  8  1  0  0  0  0
  8  9  1  0  0  0  0
  8 13  1  0  0  0  0
 10 14  1  0  0  0  0
 11 14  2  0  0  0  0
 12 14  2  0  0  0  0
  1 16  1  0  0  0  0
  2 17  1  0  0  0  0
  7 18  1  0  0  0  0
  7 19  1  0  0  0  0
  8 20  1  0  0  0  0
  9 21  1  0  0  0  0
  9 22  1  0  0  0  0
  9 23  1  0  0  0  0
 10 24  1  0  0  0  0
 10 25  1  0  0  0  0
M  END
> <Mol Weight>
247,69

> <Formula>
C9H10ClNO3S

> <ID>
EN300-77131

> <name>
Sulfonamides

> <LogP>
1,48

> <ROCS_ShapeQuery>
x0446_0A_x1080_0A_x0929_0A_x0812_0A_x0719_0A_x1140_0A_x0528_0A_x0310_0A

> <ROCS_TanimotoCombo>
0.344 

> <ROCS_ShapeTanimoto>
0.200 

> <ROCS_ColorTanimoto>
0.144 

> <ROCS_RefTversky>
0.184 

> <ROCS_RefColorTversky>
0.153 

> <ROCS_RefTverskyCombo>
0.337 

> <ROCS_FitTversky>
1.762 

> <ROCS_FitColorTversky>
0.719 

> <ROCS_FitTverskyCombo>
2.481 

> <ROCS_ColorScore>
-5.452

> <ROCS_Overlap>
2168.591

> <ROCS_Rank>
204                 

$$$$
untitled-dbase-774_0
  -OEChem-02082415043D

 19 20  0     0  0  0  0  0  0999 V2000
    9.1237   10.8213   23.2731 C   0  0  0  0  0  0  0  0  0  0  0  0
    9.0329   12.1808   23.4430 C   0  0  0  0  0  0  0  0  0  0  0  0
    7.3501   11.1220   24.4461 C   0  0  0  0  0  0  0  0  0  0  0  0
    6.2139   13.5020   25.3762 C   0  0  0  0  0  0  0  0  0  0  0  0
    7.3374   13.5503   24.6527 C   0  0  0  0  0  0  0  0  0  0  0  0
    5.6876   12.1300   25.6053 C   0  0  0  0  0  0  0  0  0  0  0  0
    8.0859   10.1749   23.8922 N   0  0  0  0  0  0  0  0  0  0  0  0
    6.2024   11.0149   25.1810 N   0  0  0  0  0  0  0  0  0  0  0  0
    7.9021   12.3729   24.1909 N   0  0  0  0  0  0  0  0  0  0  0  0
   11.2569   12.6066   22.0368 N   0  0  0  0  0  0  0  0  0  0  0  0
    9.3029   14.2849   21.9353 O   0  0  0  0  0  0  0  0  0  0  0  0
   10.6727   14.1136   24.0429 O   0  0  0  0  0  0  0  0  0  0  0  0
   10.0696   13.4946   22.8786 S   0  0  0  0  0  0  0  0  0  0  0  0
    9.8842   10.2728   22.7366 H   0  0  0  0  0  0  0  0  0  0  0  0
    5.7042   14.3644   25.7788 H   0  0  0  0  0  0  0  0  0  0  0  0
    7.8246   14.4876   24.4144 H   0  0  0  0  0  0  0  0  0  0  0  0
    4.7615   12.0860   26.2017 H   0  0  0  0  0  0  0  0  0  0  0  0
   11.2605   12.6648   21.0111 H   0  0  0  0  0  0  0  0  0  0  0  0
   12.1945   12.5471   22.4525 H   0  0  0  0  0  0  0  0  0  0  0  0
  1  2  2  0  0  0  0
  1  7  1  0  0  0  0
  2  9  1  0  0  0  0
  2 13  1  0  0  0  0
  3  7  2  0  0  0  0
  3  8  1  0  0  0  0
  3  9  1  0  0  0  0
  4  5  2  0  0  0  0
  4  6  1  0  0  0  0
  5  9  1  0  0  0  0
  6  8  2  0  0  0  0
 10 13  1  0  0  0  0
 11 13  2  0  0  0  0
 12 13  2  0  0  0  0
  1 14  1  0  0  0  0
  4 15  1  0  0  0  0
  5 16  1  0  0  0  0
  6 17  1  0  0  0  0
 10 18  1  0  0  0  0
 10 19  1  0  0  0  0
M  END
> <Mol Weight>
198,20

> <Formula>
C6H6N4O2S

> <ID>
EN300-28332945

> <name>
Sulfonamides

> <LogP>
-1,50

> <ROCS_ShapeQuery>
x0446_0A_x1080_0A_x0929_0A_x0812_0A_x0719_0A_x1140_0A_x0528_0A_x0310_0A

> <ROCS_TanimotoCombo>
0.344 

> <ROCS_ShapeTanimoto>
0.193 

> <ROCS_ColorTanimoto>
0.150 

> <ROCS_RefTversky>
0.178 

> <ROCS_RefColorTversky>
0.165 

> <ROCS_RefTverskyCombo>
0.344 

> <ROCS_FitTversky>
1.792 

> <ROCS_FitColorTversky>
0.623 

> <ROCS_FitTverskyCombo>
2.415 

> <ROCS_ColorScore>
-5.913

> <ROCS_Overlap>
2101.958

> <ROCS_Rank>
205                 

$$$$
untitled-dbase-1258_14
  -OEChem-02082415043D

 24 24  0     0  0  0  0  0  0999 V2000
    8.4095   10.1742   24.2276 C   0  0  0  0  0  0  0  0  0  0  0  0
    9.5399   10.3474   23.4291 C   0  0  0  0  0  0  0  0  0  0  0  0
    7.7376   11.2860   24.7358 C   0  0  0  0  0  0  0  0  0  0  0  0
    9.9986   11.6323   23.1389 C   0  0  0  0  0  0  0  0  0  0  0  0
    8.1962   12.5709   24.4456 C   0  0  0  0  0  0  0  0  0  0  0  0
    9.3268   12.7441   23.6471 C   0  0  0  0  0  0  0  0  0  0  0  0
    7.4763   13.7143   24.9898 C   0  0  0  0  0  0  0  0  0  0  0  0
    9.8400   14.1085   23.3211 C   0  0  0  0  0  0  0  0  0  0  0  0
    7.8713   14.1927   26.2345 N   0  0  0  0  0  0  0  0  0  0  0  0
   10.6868   13.5877   20.8588 N   0  0  0  0  0  0  0  0  0  0  0  0
    6.5314   14.2353   24.3740 O   0  0  0  0  0  0  0  0  0  0  0  0
    8.1688   13.8106   21.3347 O   0  0  0  0  0  0  0  0  0  0  0  0
    9.6317   15.8699   21.4022 O   0  0  0  0  0  0  0  0  0  0  0  0
    9.4385   14.4490   21.6385 S   0  0  0  0  0  0  0  0  0  0  0  0
    8.0517    9.1738   24.4538 H   0  0  0  0  0  0  0  0  0  0  0  0
   10.0628    9.4813   23.0339 H   0  0  0  0  0  0  0  0  0  0  0  0
    6.8585   11.1377   25.3578 H   0  0  0  0  0  0  0  0  0  0  0  0
   10.8801   11.7562   22.5153 H   0  0  0  0  0  0  0  0  0  0  0  0
   10.9273   14.1786   23.4305 H   0  0  0  0  0  0  0  0  0  0  0  0
    9.3787   14.8834   23.9424 H   0  0  0  0  0  0  0  0  0  0  0  0
    7.3874   14.9878   26.6374 H   0  0  0  0  0  0  0  0  0  0  0  0
    8.6338   13.7627   26.7481 H   0  0  0  0  0  0  0  0  0  0  0  0
   10.4327   12.7288   20.3554 H   0  0  0  0  0  0  0  0  0  0  0  0
   11.4291   14.1313   20.4016 H   0  0  0  0  0  0  0  0  0  0  0  0
  1  2  1  0  0  0  0
  1  3  2  0  0  0  0
  2  4  2  0  0  0  0
  3  5  1  0  0  0  0
  4  6  1  0  0  0  0
  5  6  2  0  0  0  0
  5  7  1  0  0  0  0
  6  8  1  0  0  0  0
  7  9  1  0  0  0  0
  7 11  2  0  0  0  0
  8 14  1  0  0  0  0
 10 14  1  0  0  0  0
 12 14  2  0  0  0  0
 13 14  2  0  0  0  0
  1 15  1  0  0  0  0
  2 16  1  0  0  0  0
  3 17  1  0  0  0  0
  4 18  1  0  0  0  0
  8 19  1  0  0  0  0
  8 20  1  0  0  0  0
  9 21  1  0  0  0  0
  9 22  1  0  0  0  0
 10 23  1  0  0  0  0
 10 24  1  0  0  0  0
M  END
> <Mol Weight>
214,24

> <Formula>
C8H10N2O3S

> <ID>
EN300-218793

> <name>
Sulfonamides

> <LogP>
-0,81

> <ROCS_ShapeQuery>
x0446_0A_x1080_0A_x0929_0A_x0812_0A_x0719_0A_x1140_0A_x0528_0A_x0310_0A

> <ROCS_TanimotoCombo>
0.344 

> <ROCS_ShapeTanimoto>
0.199 

> <ROCS_ColorTanimoto>
0.145 

> <ROCS_RefTversky>
0.183 

> <ROCS_RefColorTversky>
0.153 

> <ROCS_RefTverskyCombo>
0.336 

> <ROCS_FitTversky>
1.826 

> <ROCS_FitColorTversky>
0.722 

> <ROCS_FitTverskyCombo>
2.548 

> <ROCS_ColorScore>
-5.462

> <ROCS_Overlap>
2153.375

> <ROCS_Rank>
206                 

$$$$
untitled-dbase-2245_11
  -OEChem-02082415043D

 23 23  0     0  0  0  0  0  0999 V2000
    8.9525   10.4728   22.9562 C   0  0  0  0  0  0  0  0  0  0  0  0
    9.6051   11.5960   22.4482 C   0  0  0  0  0  0  0  0  0  0  0  0
    7.7222   11.8799   24.4870 C   0  0  0  0  0  0  0  0  0  0  0  0
    8.0110   10.6147   23.9756 C   0  0  0  0  0  0  0  0  0  0  0  0
    8.3748   13.0031   23.9790 C   0  0  0  0  0  0  0  0  0  0  0  0
    9.3162   12.8612   22.9596 C   0  0  0  0  0  0  0  0  0  0  0  0
    6.7385   12.0278   25.5483 C   0  0  0  0  0  0  0  0  0  0  0  0
    6.4181   12.7796   27.7896 C   0  0  0  0  0  0  0  0  0  0  0  0
   11.1396   13.5427   21.1387 N   0  0  0  0  0  0  0  0  0  0  0  0
    5.5504   11.6932   25.4532 O   0  0  0  0  0  0  0  0  0  0  0  0
    9.1533   15.1043   21.6499 O   0  0  0  0  0  0  0  0  0  0  0  0
   10.9766   14.8265   23.3663 O   0  0  0  0  0  0  0  0  0  0  0  0
    7.2894   12.5835   26.6706 O   0  0  0  0  0  0  0  0  0  0  0  0
    7.3882    9.5284   24.4545 F   0  0  0  0  0  0  0  0  0  0  0  0
    8.0968   14.2200   24.4709 F   0  0  0  0  0  0  0  0  0  0  0  0
   10.1362   14.2637   22.3188 S   0  0  0  0  0  0  0  0  0  0  0  0
    9.1742    9.4873   22.5572 H   0  0  0  0  0  0  0  0  0  0  0  0
   10.3361   11.4737   21.6534 H   0  0  0  0  0  0  0  0  0  0  0  0
    6.9781   13.2270   28.6144 H   0  0  0  0  0  0  0  0  0  0  0  0
    5.9986   11.8189   28.0987 H   0  0  0  0  0  0  0  0  0  0  0  0
    5.6079   13.4511   27.4958 H   0  0  0  0  0  0  0  0  0  0  0  0
   10.9050   13.6927   20.1499 H   0  0  0  0  0  0  0  0  0  0  0  0
   12.1492   13.5020   21.3243 H   0  0  0  0  0  0  0  0  0  0  0  0
  1  2  1  0  0  0  0
  1  4  2  0  0  0  0
  2  6  2  0  0  0  0
  3  4  1  0  0  0  0
  3  5  2  0  0  0  0
  3  7  1  0  0  0  0
  4 14  1  0  0  0  0
  5  6  1  0  0  0  0
  5 15  1  0  0  0  0
  6 16  1  0  0  0  0
  7 10  2  0  0  0  0
  7 13  1  0  0  0  0
  8 13  1  0  0  0  0
  9 16  1  0  0  0  0
 11 16  2  0  0  0  0
 12 16  2  0  0  0  0
  1 17  1  0  0  0  0
  2 18  1  0  0  0  0
  8 19  1  0  0  0  0
  8 20  1  0  0  0  0
  8 21  1  0  0  0  0
  9 22  1  0  0  0  0
  9 23  1  0  0  0  0
M  END
> <Mol Weight>
251,20

> <Formula>
C8H7F2NO4S

> <ID>
EN300-170020

> <name>
Sulfonamides

> <LogP>
0,87

> <ROCS_ShapeQuery>
x0446_0A_x1080_0A_x0929_0A_x0812_0A_x0719_0A_x1140_0A_x0528_0A_x0310_0A

> <ROCS_TanimotoCombo>
0.344 

> <ROCS_ShapeTanimoto>
0.202 

> <ROCS_ColorTanimoto>
0.142 

> <ROCS_RefTversky>
0.186 

> <ROCS_RefColorTversky>
0.147 

> <ROCS_RefTverskyCombo>
0.333 

> <ROCS_FitTversky>
1.717 

> <ROCS_FitColorTversky>
0.793 

> <ROCS_FitTverskyCombo>
2.510 

> <ROCS_ColorScore>
-5.242

> <ROCS_Overlap>
2196.381

> <ROCS_Rank>
207                 

$$$$
untitled-dbase-1940_0
  -OEChem-02082415043D

 23 23  0     0  0  0  0  0  0999 V2000
    6.0688   12.8889   24.0003 C   0  0  0  0  0  0  0  0  0  0  0  0
    6.3294   11.8801   24.9276 C   0  0  0  0  0  0  0  0  0  0  0  0
    6.9582   13.1180   22.9505 C   0  0  0  0  0  0  0  0  0  0  0  0
    7.4795   11.1004   24.8052 C   0  0  0  0  0  0  0  0  0  0  0  0
    8.1083   12.3383   22.8280 C   0  0  0  0  0  0  0  0  0  0  0  0
    8.3690   11.3294   23.7554 C   0  0  0  0  0  0  0  0  0  0  0  0
    9.0457   12.6007   21.6953 C   0  0  0  0  0  0  0  0  0  0  0  0
    9.5941   10.4823   23.6453 C   0  0  0  0  0  0  0  0  0  0  0  0
   11.2603   13.8991   21.0165 N   0  0  0  0  0  0  0  0  0  0  0  0
    9.1188   15.2099   21.5755 O   0  0  0  0  0  0  0  0  0  0  0  0
   10.3747   14.0362   23.4277 O   0  0  0  0  0  0  0  0  0  0  0  0
    9.6985    9.5438   24.6311 F   0  0  0  0  0  0  0  0  0  0  0  0
    9.6690    9.7825   22.4757 F   0  0  0  0  0  0  0  0  0  0  0  0
   10.7435   11.2139   23.7106 F   0  0  0  0  0  0  0  0  0  0  0  0
    9.9173   14.0919   22.0494 S   0  0  0  0  0  0  0  0  0  0  0  0
    5.1737   13.4962   24.0965 H   0  0  0  0  0  0  0  0  0  0  0  0
    5.6366   11.7025   25.7451 H   0  0  0  0  0  0  0  0  0  0  0  0
    6.7468   13.9075   22.2341 H   0  0  0  0  0  0  0  0  0  0  0  0
    7.6736   10.3164   25.5325 H   0  0  0  0  0  0  0  0  0  0  0  0
    8.5189   12.7343   20.7446 H   0  0  0  0  0  0  0  0  0  0  0  0
    9.7822   11.7993   21.5734 H   0  0  0  0  0  0  0  0  0  0  0  0
   11.9572   13.1867   21.2665 H   0  0  0  0  0  0  0  0  0  0  0  0
   11.1017   13.9862   20.0051 H   0  0  0  0  0  0  0  0  0  0  0  0
  1  2  1  0  0  0  0
  1  3  2  0  0  0  0
  2  4  2  0  0  0  0
  3  5  1  0  0  0  0
  4  6  1  0  0  0  0
  5  6  2  0  0  0  0
  5  7  1  0  0  0  0
  6  8  1  0  0  0  0
  7 15  1  0  0  0  0
  8 12  1  0  0  0  0
  8 13  1  0  0  0  0
  8 14  1  0  0  0  0
  9 15  1  0  0  0  0
 10 15  2  0  0  0  0
 11 15  2  0  0  0  0
  1 16  1  0  0  0  0
  2 17  1  0  0  0  0
  3 18  1  0  0  0  0
  4 19  1  0  0  0  0
  7 20  1  0  0  0  0
  7 21  1  0  0  0  0
  9 22  1  0  0  0  0
  9 23  1  0  0  0  0
M  END
> <Mol Weight>
239,21

> <Formula>
C8H8F3NO2S

> <ID>
EN300-272755

> <name>
Sulfonamides

> <LogP>
1,22

> <ROCS_ShapeQuery>
x0446_0A_x1080_0A_x0929_0A_x0812_0A_x0719_0A_x1140_0A_x0528_0A_x0310_0A

> <ROCS_TanimotoCombo>
0.344 

> <ROCS_ShapeTanimoto>
0.206 

> <ROCS_ColorTanimoto>
0.137 

> <ROCS_RefTversky>
0.189 

> <ROCS_RefColorTversky>
0.140 

> <ROCS_RefTverskyCombo>
0.329 

> <ROCS_FitTversky>
1.808 

> <ROCS_FitColorTversky>
0.877 

> <ROCS_FitTverskyCombo>
2.685 

> <ROCS_ColorScore>
-4.969

> <ROCS_Overlap>
2229.865

> <ROCS_Rank>
208                 

$$$$
untitled-dbase-982_28
  -OEChem-02082415043D

 23 23  0     0  0  0  0  0  0999 V2000
    7.6728   10.5752   24.0970 C   0  0  0  0  0  0  0  0  0  0  0  0
    8.8560   10.0328   23.5956 C   0  0  0  0  0  0  0  0  0  0  0  0
    7.5894   11.9423   24.3617 C   0  0  0  0  0  0  0  0  0  0  0  0
    9.9559   10.8573   23.3589 C   0  0  0  0  0  0  0  0  0  0  0  0
    8.6893   12.7668   24.1250 C   0  0  0  0  0  0  0  0  0  0  0  0
    9.8726   12.2243   23.6237 C   0  0  0  0  0  0  0  0  0  0  0  0
    8.5963   14.2281   24.4092 C   0  0  0  0  0  0  0  0  0  0  0  0
    7.4935   14.9378   23.6191 C   0  0  0  0  0  0  0  0  0  0  0  0
    6.3304   15.6517   21.3413 N   0  0  0  0  0  0  0  0  0  0  0  0
    8.8930   15.4764   21.4793 O   0  0  0  0  0  0  0  0  0  0  0  0
    7.5002   13.3685   21.5299 O   0  0  0  0  0  0  0  0  0  0  0  0
   10.9346   13.0086   23.3929 F   0  0  0  0  0  0  0  0  0  0  0  0
    7.6877   14.7675   21.8726 S   0  0  0  0  0  0  0  0  0  0  0  0
    6.8163    9.9331   24.2819 H   0  0  0  0  0  0  0  0  0  0  0  0
    8.9210    8.9684   23.3901 H   0  0  0  0  0  0  0  0  0  0  0  0
    6.6637   12.3559   24.7528 H   0  0  0  0  0  0  0  0  0  0  0  0
   10.8772   10.4353   22.9682 H   0  0  0  0  0  0  0  0  0  0  0  0
    9.5572   14.7116   24.1616 H   0  0  0  0  0  0  0  0  0  0  0  0
    8.4463   14.4154   25.4866 H   0  0  0  0  0  0  0  0  0  0  0  0
    6.5153   14.5068   23.8552 H   0  0  0  0  0  0  0  0  0  0  0  0
    7.4588   16.0098   23.8358 H   0  0  0  0  0  0  0  0  0  0  0  0
    6.4972   16.5623   20.8957 H   0  0  0  0  0  0  0  0  0  0  0  0
    5.5486   15.1267   20.9304 H   0  0  0  0  0  0  0  0  0  0  0  0
  1  2  1  0  0  0  0
  1  3  2  0  0  0  0
  2  4  2  0  0  0  0
  3  5  1  0  0  0  0
  4  6  1  0  0  0  0
  5  6  2  0  0  0  0
  5  7  1  0  0  0  0
  6 12  1  0  0  0  0
  7  8  1  0  0  0  0
  8 13  1  0  0  0  0
  9 13  1  0  0  0  0
 10 13  2  0  0  0  0
 11 13  2  0  0  0  0
  1 14  1  0  0  0  0
  2 15  1  0  0  0  0
  3 16  1  0  0  0  0
  4 17  1  0  0  0  0
  7 18  1  0  0  0  0
  7 19  1  0  0  0  0
  8 20  1  0  0  0  0
  8 21  1  0  0  0  0
  9 22  1  0  0  0  0
  9 23  1  0  0  0  0
M  END
> <Mol Weight>
203,23

> <Formula>
C8H10FNO2S

> <ID>
EN300-283831

> <name>
Sulfonamides

> <LogP>
0,77

> <ROCS_ShapeQuery>
x0446_0A_x1080_0A_x0929_0A_x0812_0A_x0719_0A_x1140_0A_x0528_0A_x0310_0A

> <ROCS_TanimotoCombo>
0.344 

> <ROCS_ShapeTanimoto>
0.192 

> <ROCS_ColorTanimoto>
0.151 

> <ROCS_RefTversky>
0.177 

> <ROCS_RefColorTversky>
0.152 

> <ROCS_RefTverskyCombo>
0.329 

> <ROCS_FitTversky>
1.847 

> <ROCS_FitColorTversky>
0.956 

> <ROCS_FitTverskyCombo>
2.803 

> <ROCS_ColorScore>
-5.413

> <ROCS_Overlap>
2083.746

> <ROCS_Rank>
209                 

$$$$
untitled-dbase-2354_9486
  -OEChem-02082415043D

 32 32  0     0  0  0  0  0  0999 V2000
    7.2134   10.6704   23.9835 C   0  0  0  0  0  0  0  0  0  0  0  0
    7.8073   11.6376   24.7942 C   0  0  0  0  0  0  0  0  0  0  0  0
    7.8968   10.1761   22.8725 C   0  0  0  0  0  0  0  0  0  0  0  0
    9.0847   12.1107   24.4938 C   0  0  0  0  0  0  0  0  0  0  0  0
    9.1742   10.6492   22.5721 C   0  0  0  0  0  0  0  0  0  0  0  0
    9.7681   11.6165   23.3828 C   0  0  0  0  0  0  0  0  0  0  0  0
   10.3286   14.3175   22.6965 C   0  0  0  0  0  0  0  0  0  0  0  0
    5.6002   16.7377   22.9964 C   0  0  0  0  0  0  0  0  0  0  0  0
   11.1421   12.1251   23.0590 C   0  0  0  0  0  0  0  0  0  0  0  0
    9.6415   15.0389   21.5576 C   0  0  0  0  0  0  0  0  0  0  0  0
    8.3313   15.6904   21.9694 C   0  0  0  0  0  0  0  0  0  0  0  0
    5.7123   15.3737   22.4491 N   0  0  0  0  0  0  0  0  0  0  0  0
   10.2460   14.6239   23.8780 O   0  0  0  0  0  0  0  0  0  0  0  0
    7.1769   13.3493   21.7772 O   0  0  0  0  0  0  0  0  0  0  0  0
    7.4566   14.3915   24.0558 O   0  0  0  0  0  0  0  0  0  0  0  0
   11.0285   13.2581   22.1919 O   0  0  0  0  0  0  0  0  0  0  0  0
    7.1837   14.5235   22.6339 S   0  0  0  0  0  0  0  0  0  0  0  0
    6.2193   10.3011   24.2182 H   0  0  0  0  0  0  0  0  0  0  0  0
    7.2757   12.0218   25.6599 H   0  0  0  0  0  0  0  0  0  0  0  0
    7.4351    9.4222   22.2417 H   0  0  0  0  0  0  0  0  0  0  0  0
    9.5395   12.8646   25.1310 H   0  0  0  0  0  0  0  0  0  0  0  0
    9.6991   10.2584   21.7044 H   0  0  0  0  0  0  0  0  0  0  0  0
    6.1668   16.8035   23.9370 H   0  0  0  0  0  0  0  0  0  0  0  0
    6.0077   17.4580   22.2718 H   0  0  0  0  0  0  0  0  0  0  0  0
    4.5423   16.9697   23.1888 H   0  0  0  0  0  0  0  0  0  0  0  0
   11.6739   12.4236   23.9689 H   0  0  0  0  0  0  0  0  0  0  0  0
   11.7352   11.3501   22.5616 H   0  0  0  0  0  0  0  0  0  0  0  0
    9.4449   14.2956   20.7770 H   0  0  0  0  0  0  0  0  0  0  0  0
   10.3247   15.7969   21.1584 H   0  0  0  0  0  0  0  0  0  0  0  0
    8.5074   16.4261   22.7603 H   0  0  0  0  0  0  0  0  0  0  0  0
    7.8349   16.1902   21.1325 H   0  0  0  0  0  0  0  0  0  0  0  0
    5.2051   15.2359   21.5652 H   0  0  0  0  0  0  0  0  0  0  0  0
  1  2  1  0  0  0  0
  1  3  2  0  0  0  0
  2  4  2  0  0  0  0
  3  5  1  0  0  0  0
  4  6  1  0  0  0  0
  5  6  2  0  0  0  0
  6  9  1  0  0  0  0
  7 10  1  0  0  0  0
  7 13  2  0  0  0  0
  7 16  1  0  0  0  0
  8 12  1  0  0  0  0
  9 16  1  0  0  0  0
 10 11  1  0  0  0  0
 11 17  1  0  0  0  0
 12 17  1  0  0  0  0
 14 17  2  0  0  0  0
 15 17  2  0  0  0  0
  1 18  1  0  0  0  0
  2 19  1  0  0  0  0
  3 20  1  0  0  0  0
  4 21  1  0  0  0  0
  5 22  1  0  0  0  0
  8 23  1  0  0  0  0
  8 24  1  0  0  0  0
  8 25  1  0  0  0  0
  9 26  1  0  0  0  0
  9 27  1  0  0  0  0
 10 28  1  0  0  0  0
 10 29  1  0  0  0  0
 11 30  1  0  0  0  0
 11 31  1  0  0  0  0
 12 32  1  0  0  0  0
M  END
> <Mol Weight>
257,30

> <Formula>
C11H15NO4S

> <ID>
EN300-123188

> <name>
Sulfonamides

> <LogP>
0,43

> <ROCS_ShapeQuery>
x0446_0A_x1080_0A_x0929_0A_x0812_0A_x0719_0A_x1140_0A_x0528_0A_x0310_0A

> <ROCS_TanimotoCombo>
0.344 

> <ROCS_ShapeTanimoto>
0.215 

> <ROCS_ColorTanimoto>
0.129 

> <ROCS_RefTversky>
0.196 

> <ROCS_RefColorTversky>
0.135 

> <ROCS_RefTverskyCombo>
0.331 

> <ROCS_FitTversky>
1.796 

> <ROCS_FitColorTversky>
0.727 

> <ROCS_FitTverskyCombo>
2.523 

> <ROCS_ColorScore>
-4.811

> <ROCS_Overlap>
2315.009

> <ROCS_Rank>
210                 

$$$$
untitled-dbase-2175_109
  -OEChem-02082415043D

 27 27  0     0  0  0  0  0  0999 V2000
    7.8771   12.1172   25.0316 C   0  0  0  0  0  0  0  0  0  0  0  0
    7.9143   10.7345   24.8514 C   0  0  0  0  0  0  0  0  0  0  0  0
    9.4430   12.3963   23.2130 C   0  0  0  0  0  0  0  0  0  0  0  0
    8.6415   12.9481   24.2124 C   0  0  0  0  0  0  0  0  0  0  0  0
    8.7158   10.1827   23.8520 C   0  0  0  0  0  0  0  0  0  0  0  0
    9.4802   11.0136   23.0329 C   0  0  0  0  0  0  0  0  0  0  0  0
    7.9156    8.0667   24.5853 C   0  0  0  0  0  0  0  0  0  0  0  0
    8.6015   14.4264   24.4058 C   0  0  0  0  0  0  0  0  0  0  0  0
    7.5177   15.1244   23.5798 C   0  0  0  0  0  0  0  0  0  0  0  0
    6.3617   15.7368   21.2689 N   0  0  0  0  0  0  0  0  0  0  0  0
    8.9177   15.4803   21.4025 O   0  0  0  0  0  0  0  0  0  0  0  0
    7.4530   13.4299   21.5918 O   0  0  0  0  0  0  0  0  0  0  0  0
    8.7316    8.8284   23.6982 O   0  0  0  0  0  0  0  0  0  0  0  0
    7.6918   14.8399   21.8461 S   0  0  0  0  0  0  0  0  0  0  0  0
   10.4798   10.3579   21.7888 Cl  0  0  0  0  0  0  0  0  0  0  0  0
    7.2501   12.5384   25.8130 H   0  0  0  0  0  0  0  0  0  0  0  0
    7.3161   10.0934   25.4934 H   0  0  0  0  0  0  0  0  0  0  0  0
   10.0366   13.0502   22.5779 H   0  0  0  0  0  0  0  0  0  0  0  0
    8.0204    7.0035   24.3555 H   0  0  0  0  0  0  0  0  0  0  0  0
    6.8722    8.3730   24.4756 H   0  0  0  0  0  0  0  0  0  0  0  0
    8.2408    8.2489   25.6123 H   0  0  0  0  0  0  0  0  0  0  0  0
    9.5765   14.8597   24.1231 H   0  0  0  0  0  0  0  0  0  0  0  0
    8.4668   14.6852   25.4704 H   0  0  0  0  0  0  0  0  0  0  0  0
    6.5269   14.7435   23.8478 H   0  0  0  0  0  0  0  0  0  0  0  0
    7.5220   16.2083   23.7299 H   0  0  0  0  0  0  0  0  0  0  0  0
    6.5565   16.6118   20.7669 H   0  0  0  0  0  0  0  0  0  0  0  0
    5.5589   15.2153   20.8959 H   0  0  0  0  0  0  0  0  0  0  0  0
  1  2  2  0  0  0  0
  1  4  1  0  0  0  0
  2  5  1  0  0  0  0
  3  4  2  0  0  0  0
  3  6  1  0  0  0  0
  4  8  1  0  0  0  0
  5  6  2  0  0  0  0
  5 13  1  0  0  0  0
  6 15  1  0  0  0  0
  7 13  1  0  0  0  0
  8  9  1  0  0  0  0
  9 14  1  0  0  0  0
 10 14  1  0  0  0  0
 11 14  2  0  0  0  0
 12 14  2  0  0  0  0
  1 16  1  0  0  0  0
  2 17  1  0  0  0  0
  3 18  1  0  0  0  0
  7 19  1  0  0  0  0
  7 20  1  0  0  0  0
  7 21  1  0  0  0  0
  8 22  1  0  0  0  0
  8 23  1  0  0  0  0
  9 24  1  0  0  0  0
  9 25  1  0  0  0  0
 10 26  1  0  0  0  0
 10 27  1  0  0  0  0
M  END
> <Mol Weight>
249,71

> <Formula>
C9H12ClNO3S

> <ID>
EN300-2002208

> <name>
Sulfonamides

> <LogP>
1,08

> <ROCS_ShapeQuery>
x0446_0A_x1080_0A_x0929_0A_x0812_0A_x0719_0A_x1140_0A_x0528_0A_x0310_0A

> <ROCS_TanimotoCombo>
0.343 

> <ROCS_ShapeTanimoto>
0.190 

> <ROCS_ColorTanimoto>
0.154 

> <ROCS_RefTversky>
0.176 

> <ROCS_RefColorTversky>
0.158 

> <ROCS_RefTverskyCombo>
0.334 

> <ROCS_FitTversky>
1.726 

> <ROCS_FitColorTversky>
0.850 

> <ROCS_FitTverskyCombo>
2.577 

> <ROCS_ColorScore>
-5.624

> <ROCS_Overlap>
2071.904

> <ROCS_Rank>
211                 

$$$$
untitled-dbase-1116_0
  -OEChem-02082415043D

 22 23  0     0  0  0  0  0  0999 V2000
    6.6434   13.5472   25.4929 C   0  0  0  0  0  0  0  0  0  0  0  0
    5.9467   12.4073   25.8745 C   0  0  0  0  0  0  0  0  0  0  0  0
    7.7319   13.4315   24.6332 C   0  0  0  0  0  0  0  0  0  0  0  0
    6.3398   11.1550   25.3958 C   0  0  0  0  0  0  0  0  0  0  0  0
    9.5840   10.7688   22.8275 C   0  0  0  0  0  0  0  0  0  0  0  0
    8.8361    9.6914   23.2572 C   0  0  0  0  0  0  0  0  0  0  0  0
    8.1270   12.1718   24.1518 C   0  0  0  0  0  0  0  0  0  0  0  0
    7.4242   11.0102   24.5349 C   0  0  0  0  0  0  0  0  0  0  0  0
    9.2189   12.0266   23.2854 C   0  0  0  0  0  0  0  0  0  0  0  0
    7.7762    9.7883   24.0922 N   0  0  0  0  0  0  0  0  0  0  0  0
   11.3165   12.5785   21.7360 N   0  0  0  0  0  0  0  0  0  0  0  0
    9.3380   14.2234   21.8950 O   0  0  0  0  0  0  0  0  0  0  0  0
   10.8753   13.9493   23.8722 O   0  0  0  0  0  0  0  0  0  0  0  0
   10.1833   13.3835   22.7265 S   0  0  0  0  0  0  0  0  0  0  0  0
    6.3406   14.5220   25.8630 H   0  0  0  0  0  0  0  0  0  0  0  0
    5.0961   12.4886   26.5452 H   0  0  0  0  0  0  0  0  0  0  0  0
    8.2536   14.3435   24.3563 H   0  0  0  0  0  0  0  0  0  0  0  0
    5.7779   10.2772   25.7100 H   0  0  0  0  0  0  0  0  0  0  0  0
   10.4237   10.6226   22.1571 H   0  0  0  0  0  0  0  0  0  0  0  0
    9.0734    8.6841   22.9312 H   0  0  0  0  0  0  0  0  0  0  0  0
   11.2366   12.6992   20.7190 H   0  0  0  0  0  0  0  0  0  0  0  0
   12.2852   12.5111   22.0713 H   0  0  0  0  0  0  0  0  0  0  0  0
  1  2  1  0  0  0  0
  1  3  2  0  0  0  0
  2  4  2  0  0  0  0
  3  7  1  0  0  0  0
  4  8  1  0  0  0  0
  5  6  2  0  0  0  0
  5  9  1  0  0  0  0
  6 10  1  0  0  0  0
  7  8  1  0  0  0  0
  7  9  2  0  0  0  0
  8 10  2  0  0  0  0
  9 14  1  0  0  0  0
 11 14  1  0  0  0  0
 12 14  2  0  0  0  0
 13 14  2  0  0  0  0
  1 15  1  0  0  0  0
  2 16  1  0  0  0  0
  3 17  1  0  0  0  0
  4 18  1  0  0  0  0
  5 19  1  0  0  0  0
  6 20  1  0  0  0  0
 11 21  1  0  0  0  0
 11 22  1  0  0  0  0
M  END
> <Mol Weight>
208,24

> <Formula>
C9H8N2O2S

> <ID>
EN300-1988484

> <name>
Sulfonamides

> <LogP>
0,74

> <ROCS_ShapeQuery>
x0446_0A_x1080_0A_x0929_0A_x0812_0A_x0719_0A_x1140_0A_x0528_0A_x0310_0A

> <ROCS_TanimotoCombo>
0.343 

> <ROCS_ShapeTanimoto>
0.207 

> <ROCS_ColorTanimoto>
0.137 

> <ROCS_RefTversky>
0.189 

> <ROCS_RefColorTversky>
0.146 

> <ROCS_RefTverskyCombo>
0.335 

> <ROCS_FitTversky>
1.845 

> <ROCS_FitColorTversky>
0.687 

> <ROCS_FitTverskyCombo>
2.532 

> <ROCS_ColorScore>
-5.196

> <ROCS_Overlap>
2227.365

> <ROCS_Rank>
212                 

$$$$
untitled-dbase-2726_96
  -OEChem-02082415043D

 31 31  0     0  0  0  0  0  0999 V2000
    7.8272   11.4981   24.4580 C   0  0  0  0  0  0  0  0  0  0  0  0
    9.7456   11.5189   22.4327 C   0  0  0  0  0  0  0  0  0  0  0  0
    8.2531   10.2981   23.8884 C   0  0  0  0  0  0  0  0  0  0  0  0
    9.2123   10.3085   22.8758 C   0  0  0  0  0  0  0  0  0  0  0  0
    8.3604   12.7084   24.0148 C   0  0  0  0  0  0  0  0  0  0  0  0
    9.3197   12.7188   23.0022 C   0  0  0  0  0  0  0  0  0  0  0  0
    7.6801    9.0483   24.3696 C   0  0  0  0  0  0  0  0  0  0  0  0
    9.6860    9.0379   22.2488 C   0  0  0  0  0  0  0  0  0  0  0  0
    6.7389    6.9839   26.5711 C   0  0  0  0  0  0  0  0  0  0  0  0
    6.2180    8.3282   26.1094 C   0  0  0  0  0  0  0  0  0  0  0  0
   11.0880   13.6201   21.2231 N   0  0  0  0  0  0  0  0  0  0  0  0
    7.9058   13.9154   24.6153 N   0  3  0  0  0  0  0  0  0  0  0  0
    8.5074   14.3540   25.6237 O   0  5  0  0  0  0  0  0  0  0  0  0
    7.5359    8.0341   23.6765 O   0  0  0  0  0  0  0  0  0  0  0  0
    6.9169   14.5038   24.1180 O   0  0  0  0  0  0  0  0  0  0  0  0
    8.9660   14.9803   21.7638 O   0  0  0  0  0  0  0  0  0  0  0  0
   10.7942   14.8101   23.4890 O   0  0  0  0  0  0  0  0  0  0  0  0
    7.3219    9.1358   25.6863 O   0  0  0  0  0  0  0  0  0  0  0  0
   10.0177   14.2143   22.4133 S   0  0  0  0  0  0  0  0  0  0  0  0
    7.0786   11.4869   25.2479 H   0  0  0  0  0  0  0  0  0  0  0  0
   10.4934   11.5241   21.6430 H   0  0  0  0  0  0  0  0  0  0  0  0
   10.5514    8.6451   22.7947 H   0  0  0  0  0  0  0  0  0  0  0  0
    8.8961    8.2770   22.2507 H   0  0  0  0  0  0  0  0  0  0  0  0
    9.9746    9.1965   21.2025 H   0  0  0  0  0  0  0  0  0  0  0  0
    7.2584    6.4671   25.7595 H   0  0  0  0  0  0  0  0  0  0  0  0
    7.4295    7.1056   27.4120 H   0  0  0  0  0  0  0  0  0  0  0  0
    5.9168    6.3519   26.9233 H   0  0  0  0  0  0  0  0  0  0  0  0
    5.6995    8.8399   26.9258 H   0  0  0  0  0  0  0  0  0  0  0  0
    5.5288    8.2049   25.2687 H   0  0  0  0  0  0  0  0  0  0  0  0
   10.8482   13.7811   20.2372 H   0  0  0  0  0  0  0  0  0  0  0  0
   12.0958   13.6636   21.4176 H   0  0  0  0  0  0  0  0  0  0  0  0
  1  3  1  0  0  0  0
  1  5  2  0  0  0  0
  2  4  1  0  0  0  0
  2  6  2  0  0  0  0
  3  4  2  0  0  0  0
  3  7  1  0  0  0  0
  4  8  1  0  0  0  0
  5  6  1  0  0  0  0
  5 12  1  0  0  0  0
  6 19  1  0  0  0  0
  7 14  2  0  0  0  0
  7 18  1  0  0  0  0
  9 10  1  0  0  0  0
 10 18  1  0  0  0  0
 11 19  1  0  0  0  0
 12 13  1  0  0  0  0
 12 15  2  0  0  0  0
 16 19  2  0  0  0  0
 17 19  2  0  0  0  0
  1 20  1  0  0  0  0
  2 21  1  0  0  0  0
  8 22  1  0  0  0  0
  8 23  1  0  0  0  0
  8 24  1  0  0  0  0
  9 25  1  0  0  0  0
  9 26  1  0  0  0  0
  9 27  1  0  0  0  0
 10 28  1  0  0  0  0
 10 29  1  0  0  0  0
 11 30  1  0  0  0  0
 11 31  1  0  0  0  0
M  CHG  2  12   1  13  -1
M  END
> <Mol Weight>
288,27

> <Formula>
C10H12N2O6S

> <ID>
EN300-7492254

> <name>
Sulfonamides

> <LogP>
1,39

> <ROCS_ShapeQuery>
x0446_0A_x1080_0A_x0929_0A_x0812_0A_x0719_0A_x1140_0A_x0528_0A_x0310_0A

> <ROCS_TanimotoCombo>
0.343 

> <ROCS_ShapeTanimoto>
0.210 

> <ROCS_ColorTanimoto>
0.133 

> <ROCS_RefTversky>
0.194 

> <ROCS_RefColorTversky>
0.146 

> <ROCS_RefTverskyCombo>
0.340 

> <ROCS_FitTversky>
1.636 

> <ROCS_FitColorTversky>
0.610 

> <ROCS_FitTverskyCombo>
2.246 

> <ROCS_ColorScore>
-5.204

> <ROCS_Overlap>
2292.127

> <ROCS_Rank>
213                 

$$$$
untitled-dbase-1219_338
  -OEChem-02082415043D

 25 25  0     0  0  0  0  0  0999 V2000
    7.5876   10.0412   24.4948 C   0  0  0  0  0  0  0  0  0  0  0  0
    8.8046    9.6656   23.9260 C   0  0  0  0  0  0  0  0  0  0  0  0
    7.2302   11.3884   24.5506 C   0  0  0  0  0  0  0  0  0  0  0  0
    9.6642   10.6370   23.4132 C   0  0  0  0  0  0  0  0  0  0  0  0
    8.0898   12.3599   24.0378 C   0  0  0  0  0  0  0  0  0  0  0  0
    9.3068   11.9842   23.4690 C   0  0  0  0  0  0  0  0  0  0  0  0
   10.2267   13.0238   22.9203 C   0  0  0  0  0  0  0  0  0  0  0  0
   11.2552   16.3607   19.7282 C   0  0  0  0  0  0  0  0  0  0  0  0
   10.5975   12.9614   21.4518 C   0  0  0  0  0  0  0  0  0  0  0  0
   11.4973   14.0796   21.1166 N   0  0  0  0  0  0  0  0  0  0  0  0
   10.6562   13.8992   23.6686 O   0  0  0  0  0  0  0  0  0  0  0  0
   11.8221   16.3660   22.2834 O   0  0  0  0  0  0  0  0  0  0  0  0
    9.5184   15.6578   21.5434 O   0  0  0  0  0  0  0  0  0  0  0  0
   10.9548   15.6822   21.3442 S   0  0  0  0  0  0  0  0  0  0  0  0
    6.9184    9.2848   24.8941 H   0  0  0  0  0  0  0  0  0  0  0  0
    9.0828    8.6166   23.8829 H   0  0  0  0  0  0  0  0  0  0  0  0
    6.2825   11.6809   24.9931 H   0  0  0  0  0  0  0  0  0  0  0  0
   10.6101   10.3332   22.9722 H   0  0  0  0  0  0  0  0  0  0  0  0
    7.8009   13.4066   24.0867 H   0  0  0  0  0  0  0  0  0  0  0  0
   10.9461   17.4071   19.7311 H   0  0  0  0  0  0  0  0  0  0  0  0
   12.3215   16.2775   19.5127 H   0  0  0  0  0  0  0  0  0  0  0  0
   10.6726   15.7917   19.0022 H   0  0  0  0  0  0  0  0  0  0  0  0
    9.6945   13.0413   20.8402 H   0  0  0  0  0  0  0  0  0  0  0  0
   11.1127   12.0187   21.2459 H   0  0  0  0  0  0  0  0  0  0  0  0
   12.4885   13.8917   21.3158 H   0  0  0  0  0  0  0  0  0  0  0  0
  1  2  1  0  0  0  0
  1  3  2  0  0  0  0
  2  4  2  0  0  0  0
  3  5  1  0  0  0  0
  4  6  1  0  0  0  0
  5  6  2  0  0  0  0
  6  7  1  0  0  0  0
  7  9  1  0  0  0  0
  7 11  2  0  0  0  0
  8 14  1  0  0  0  0
  9 10  1  0  0  0  0
 10 14  1  0  0  0  0
 12 14  2  0  0  0  0
 13 14  2  0  0  0  0
  1 15  1  0  0  0  0
  2 16  1  0  0  0  0
  3 17  1  0  0  0  0
  4 18  1  0  0  0  0
  5 19  1  0  0  0  0
  8 20  1  0  0  0  0
  8 21  1  0  0  0  0
  8 22  1  0  0  0  0
  9 23  1  0  0  0  0
  9 24  1  0  0  0  0
 10 25  1  0  0  0  0
M  END
> <Mol Weight>
213,25

> <Formula>
C9H11NO3S

> <ID>
EN300-122004

> <name>
Sulfonamides

> <LogP>
-0,08

> <ROCS_ShapeQuery>
x0446_0A_x1080_0A_x0929_0A_x0812_0A_x0719_0A_x1140_0A_x0528_0A_x0310_0A

> <ROCS_TanimotoCombo>
0.343 

> <ROCS_ShapeTanimoto>
0.188 

> <ROCS_ColorTanimoto>
0.155 

> <ROCS_RefTversky>
0.174 

> <ROCS_RefColorTversky>
0.159 

> <ROCS_RefTverskyCombo>
0.333 

> <ROCS_FitTversky>
1.754 

> <ROCS_FitColorTversky>
0.857 

> <ROCS_FitTverskyCombo>
2.612 

> <ROCS_ColorScore>
-5.670

> <ROCS_Overlap>
2052.188

> <ROCS_Rank>
214                 

$$$$
untitled-dbase-1731_6
  -OEChem-02082415043D

 30 31  0     0  0  0  0  0  0999 V2000
    9.9458   10.6932   22.4076 C   0  0  0  0  0  0  0  0  0  0  0  0
    9.3713    9.6571   23.1680 C   0  0  0  0  0  0  0  0  0  0  0  0
    9.3642   11.8387   22.8934 C   0  0  0  0  0  0  0  0  0  0  0  0
    5.3628   11.7908   25.3883 C   0  0  0  0  0  0  0  0  0  0  0  0
    5.4005   13.1674   24.7472 C   0  0  0  0  0  0  0  0  0  0  0  0
    6.8186   11.5176   25.7491 C   0  0  0  0  0  0  0  0  0  0  0  0
    6.6525   13.1161   23.8840 C   0  0  0  0  0  0  0  0  0  0  0  0
    7.6529   12.2820   24.7021 C   0  0  0  0  0  0  0  0  0  0  0  0
    9.6392    8.2129   23.0628 C   0  0  0  0  0  0  0  0  0  0  0  0
    8.4923   10.1048   24.0685 N   0  0  0  0  0  0  0  0  0  0  0  0
    8.5102   11.4349   23.8771 N   0  0  0  0  0  0  0  0  0  0  0  0
   10.7261   13.3904   21.2075 N   0  0  0  0  0  0  0  0  0  0  0  0
    8.3146   13.9972   21.8871 O   0  0  0  0  0  0  0  0  0  0  0  0
   10.1660   14.2195   23.5814 O   0  0  0  0  0  0  0  0  0  0  0  0
    9.5685   13.5358   22.4507 S   0  0  0  0  0  0  0  0  0  0  0  0
   10.6792   10.6210   21.6174 H   0  0  0  0  0  0  0  0  0  0  0  0
    4.7051   11.7548   26.2614 H   0  0  0  0  0  0  0  0  0  0  0  0
    5.0108   11.0468   24.6636 H   0  0  0  0  0  0  0  0  0  0  0  0
    4.5019   13.3806   24.1616 H   0  0  0  0  0  0  0  0  0  0  0  0
    5.5007   13.9428   25.5160 H   0  0  0  0  0  0  0  0  0  0  0  0
    7.0267   11.9317   26.7434 H   0  0  0  0  0  0  0  0  0  0  0  0
    7.0306   10.4441   25.7874 H   0  0  0  0  0  0  0  0  0  0  0  0
    6.4232   12.6370   22.9238 H   0  0  0  0  0  0  0  0  0  0  0  0
    7.0382   14.1179   23.6697 H   0  0  0  0  0  0  0  0  0  0  0  0
    8.3674   12.9649   25.2330 H   0  0  0  0  0  0  0  0  0  0  0  0
   10.4670    7.9094   23.7265 H   0  0  0  0  0  0  0  0  0  0  0  0
    8.7574    7.6042   23.3319 H   0  0  0  0  0  0  0  0  0  0  0  0
    9.9105    7.9127   22.0347 H   0  0  0  0  0  0  0  0  0  0  0  0
   11.6849   13.1348   21.4737 H   0  0  0  0  0  0  0  0  0  0  0  0
   10.4211   12.9845   20.3144 H   0  0  0  0  0  0  0  0  0  0  0  0
  1  2  1  0  0  0  0
  1  3  2  0  0  0  0
  2  9  1  0  0  0  0
  2 10  2  0  0  0  0
  3 11  1  0  0  0  0
  3 15  1  0  0  0  0
  4  5  1  0  0  0  0
  4  6  1  0  0  0  0
  5  7  1  0  0  0  0
  6  8  1  0  0  0  0
  7  8  1  0  0  0  0
  8 11  1  0  0  0  0
 10 11  1  0  0  0  0
 12 15  1  0  0  0  0
 13 15  2  0  0  0  0
 14 15  2  0  0  0  0
  1 16  1  0  0  0  0
  4 17  1  0  0  0  0
  4 18  1  0  0  0  0
  5 19  1  0  0  0  0
  5 20  1  0  0  0  0
  6 21  1  0  0  0  0
  6 22  1  0  0  0  0
  7 23  1  0  0  0  0
  7 24  1  0  0  0  0
  8 25  1  0  0  0  0
  9 26  1  0  0  0  0
  9 27  1  0  0  0  0
  9 28  1  0  0  0  0
 12 29  1  0  0  0  0
 12 30  1  0  0  0  0
M  END
> <Mol Weight>
229,30

> <Formula>
C9H15N3O2S

> <ID>
EN300-9196113

> <name>
Sulfonamides

> <LogP>
0,58

> <ROCS_ShapeQuery>
x0446_0A_x1080_0A_x0929_0A_x0812_0A_x0719_0A_x1140_0A_x0528_0A_x0310_0A

> <ROCS_TanimotoCombo>
0.343 

> <ROCS_ShapeTanimoto>
0.208 

> <ROCS_ColorTanimoto>
0.135 

> <ROCS_RefTversky>
0.190 

> <ROCS_RefColorTversky>
0.144 

> <ROCS_RefTverskyCombo>
0.335 

> <ROCS_FitTversky>
1.825 

> <ROCS_FitColorTversky>
0.679 

> <ROCS_FitTverskyCombo>
2.504 

> <ROCS_ColorScore>
-5.139

> <ROCS_Overlap>
2245.752

> <ROCS_Rank>
215                 

$$$$
untitled-dbase-2836_42
  -OEChem-02082415043D

 37 38  0     0  0  0  0  0  0999 V2000
    9.2786   10.4770   23.1407 C   0  0  0  0  0  0  0  0  0  0  0  0
    8.1200   10.1759   23.8567 C   0  0  0  0  0  0  0  0  0  0  0  0
    7.6950   12.5348   24.1607 C   0  0  0  0  0  0  0  0  0  0  0  0
    9.6455   11.8069   22.9347 C   0  0  0  0  0  0  0  0  0  0  0  0
    7.3282   11.2048   24.3667 C   0  0  0  0  0  0  0  0  0  0  0  0
    8.8537   12.8358   23.4448 C   0  0  0  0  0  0  0  0  0  0  0  0
   15.0328   11.7420   22.8128 C   0  0  0  0  0  0  0  0  0  0  0  0
   14.1088   10.9432   23.7277 C   0  0  0  0  0  0  0  0  0  0  0  0
   14.4551   13.1172   22.4905 C   0  0  0  0  0  0  0  0  0  0  0  0
   12.6980   10.8379   23.1510 C   0  0  0  0  0  0  0  0  0  0  0  0
   13.0450   13.0142   21.9117 C   0  0  0  0  0  0  0  0  0  0  0  0
   12.1174   12.2217   22.8394 C   0  0  0  0  0  0  0  0  0  0  0  0
    7.9944   15.2922   24.0215 N   0  0  0  0  0  0  0  0  0  0  0  0
   10.8001   12.0801   22.2221 N   0  0  0  0  0  0  0  0  0  0  0  0
    6.1482   10.8988   25.0949 N   0  3  0  0  0  0  0  0  0  0  0  0
    5.8354    9.6961   25.2684 O   0  5  0  0  0  0  0  0  0  0  0  0
    5.4501   11.8396   25.5446 O   0  0  0  0  0  0  0  0  0  0  0  0
   10.5186   14.7774   23.9257 O   0  0  0  0  0  0  0  0  0  0  0  0
    9.1865   14.8176   21.7876 O   0  0  0  0  0  0  0  0  0  0  0  0
    9.2805   14.5176   23.2078 S   0  0  0  0  0  0  0  0  0  0  0  0
    9.8878    9.6662   22.7493 H   0  0  0  0  0  0  0  0  0  0  0  0
    7.8440    9.1354   24.0095 H   0  0  0  0  0  0  0  0  0  0  0  0
    7.0784   13.3380   24.5587 H   0  0  0  0  0  0  0  0  0  0  0  0
   16.0139   11.8552   23.2877 H   0  0  0  0  0  0  0  0  0  0  0  0
   15.1906   11.1860   21.8804 H   0  0  0  0  0  0  0  0  0  0  0  0
   14.5196    9.9389   23.8813 H   0  0  0  0  0  0  0  0  0  0  0  0
   14.0648   11.4246   24.7125 H   0  0  0  0  0  0  0  0  0  0  0  0
   14.4314   13.7266   23.4025 H   0  0  0  0  0  0  0  0  0  0  0  0
   15.1092   13.6334   21.7789 H   0  0  0  0  0  0  0  0  0  0  0  0
   12.7326   10.2287   22.2382 H   0  0  0  0  0  0  0  0  0  0  0  0
   12.0537   10.3117   23.8656 H   0  0  0  0  0  0  0  0  0  0  0  0
   12.6458   14.0230   21.7519 H   0  0  0  0  0  0  0  0  0  0  0  0
   13.0980   12.5291   20.9283 H   0  0  0  0  0  0  0  0  0  0  0  0
   11.9921   12.7751   23.7808 H   0  0  0  0  0  0  0  0  0  0  0  0
    8.1998   15.7545   24.9156 H   0  0  0  0  0  0  0  0  0  0  0  0
    7.2902   15.7796   23.4543 H   0  0  0  0  0  0  0  0  0  0  0  0
   10.7325   12.1899   21.2179 H   0  0  0  0  0  0  0  0  0  0  0  0
  1  2  2  0  0  0  0
  1  4  1  0  0  0  0
  2  5  1  0  0  0  0
  3  5  2  0  0  0  0
  3  6  1  0  0  0  0
  4  6  2  0  0  0  0
  4 14  1  0  0  0  0
  5 15  1  0  0  0  0
  6 20  1  0  0  0  0
  7  8  1  0  0  0  0
  7  9  1  0  0  0  0
  8 10  1  0  0  0  0
  9 11  1  0  0  0  0
 10 12  1  0  0  0  0
 11 12  1  0  0  0  0
 12 14  1  0  0  0  0
 13 20  1  0  0  0  0
 15 16  1  0  0  0  0
 15 17  2  0  0  0  0
 18 20  2  0  0  0  0
 19 20  2  0  0  0  0
  1 21  1  0  0  0  0
  2 22  1  0  0  0  0
  3 23  1  0  0  0  0
  7 24  1  0  0  0  0
  7 25  1  0  0  0  0
  8 26  1  0  0  0  0
  8 27  1  0  0  0  0
  9 28  1  0  0  0  0
  9 29  1  0  0  0  0
 10 30  1  0  0  0  0
 10 31  1  0  0  0  0
 11 32  1  0  0  0  0
 11 33  1  0  0  0  0
 12 34  1  0  0  0  0
 13 35  1  0  0  0  0
 13 36  1  0  0  0  0
 14 37  1  0  0  0  0
M  CHG  2  15   1  16  -1
M  END
> <Mol Weight>
299,35

> <Formula>
C12H17N3O4S

> <ID>
EN300-256324

> <name>
Sulfonamides

> <LogP>
1,79

> <ROCS_ShapeQuery>
x0446_0A_x1080_0A_x0929_0A_x0812_0A_x0719_0A_x1140_0A_x0528_0A_x0310_0A

> <ROCS_TanimotoCombo>
0.343 

> <ROCS_ShapeTanimoto>
0.214 

> <ROCS_ColorTanimoto>
0.129 

> <ROCS_RefTversky>
0.198 

> <ROCS_RefColorTversky>
0.145 

> <ROCS_RefTverskyCombo>
0.343 

> <ROCS_FitTversky>
1.622 

> <ROCS_FitColorTversky>
0.546 

> <ROCS_FitTverskyCombo>
2.168 

> <ROCS_ColorScore>
-5.173

> <ROCS_Overlap>
2336.036

> <ROCS_Rank>
216                 

$$$$
untitled-dbase-1949_3
  -OEChem-02082415043D

 25 26  0     0  0  0  0  0  0999 V2000
    9.7094   10.2739   23.6223 C   0  0  0  0  0  0  0  0  0  0  0  0
    9.8327   11.4922   22.9544 C   0  0  0  0  0  0  0  0  0  0  0  0
    8.6702   10.0794   24.5323 C   0  0  0  0  0  0  0  0  0  0  0  0
    7.8777   12.3216   24.1066 C   0  0  0  0  0  0  0  0  0  0  0  0
    8.9169   12.5161   23.1966 C   0  0  0  0  0  0  0  0  0  0  0  0
    7.7544   11.1033   24.7745 C   0  0  0  0  0  0  0  0  0  0  0  0
    9.0448   13.7758   22.5051 C   0  0  0  0  0  0  0  0  0  0  0  0
    6.8034   13.7855   21.3279 C   0  0  0  0  0  0  0  0  0  0  0  0
   10.0673   14.5986   22.5463 N   0  0  0  0  0  0  0  0  0  0  0  0
    9.7275   15.6544   21.7310 N   0  0  0  0  0  0  0  0  0  0  0  0
    8.5226   15.4799   21.2019 N   0  0  0  0  0  0  0  0  0  0  0  0
    8.0979   14.3050   21.6874 N   0  0  0  0  0  0  0  0  0  0  0  0
    7.1861   11.3933   27.3624 N   0  0  0  0  0  0  0  0  0  0  0  0
    5.3685   11.7684   25.5733 O   0  0  0  0  0  0  0  0  0  0  0  0
    6.1944    9.4306   26.0205 O   0  0  0  0  0  0  0  0  0  0  0  0
    6.4539   10.8595   25.9139 S   0  0  0  0  0  0  0  0  0  0  0  0
   10.4223    9.4766   23.4342 H   0  0  0  0  0  0  0  0  0  0  0  0
   10.6481   11.6287   22.2479 H   0  0  0  0  0  0  0  0  0  0  0  0
    8.5840    9.1261   25.0467 H   0  0  0  0  0  0  0  0  0  0  0  0
    7.1613   13.1176   24.2993 H   0  0  0  0  0  0  0  0  0  0  0  0
    6.0766   14.1585   22.0544 H   0  0  0  0  0  0  0  0  0  0  0  0
    6.5433   14.1212   20.3201 H   0  0  0  0  0  0  0  0  0  0  0  0
    6.8354   12.6925   21.3441 H   0  0  0  0  0  0  0  0  0  0  0  0
    6.8688   12.2846   27.7628 H   0  0  0  0  0  0  0  0  0  0  0  0
    7.4339   10.6870   28.0660 H   0  0  0  0  0  0  0  0  0  0  0  0
  1  2  2  0  0  0  0
  1  3  1  0  0  0  0
  2  5  1  0  0  0  0
  3  6  2  0  0  0  0
  4  5  2  0  0  0  0
  4  6  1  0  0  0  0
  5  7  1  0  0  0  0
  6 16  1  0  0  0  0
  7  9  2  0  0  0  0
  7 12  1  0  0  0  0
  8 12  1  0  0  0  0
  9 10  1  0  0  0  0
 10 11  2  0  0  0  0
 11 12  1  0  0  0  0
 13 16  1  0  0  0  0
 14 16  2  0  0  0  0
 15 16  2  0  0  0  0
  1 17  1  0  0  0  0
  2 18  1  0  0  0  0
  3 19  1  0  0  0  0
  4 20  1  0  0  0  0
  8 21  1  0  0  0  0
  8 22  1  0  0  0  0
  8 23  1  0  0  0  0
 13 24  1  0  0  0  0
 13 25  1  0  0  0  0
M  END
> <Mol Weight>
239,25

> <Formula>
C8H9N5O2S

> <ID>
EN300-51303

> <name>
Sulfonamides

> <LogP>
-0,02

> <ROCS_ShapeQuery>
x0446_0A_x1080_0A_x0929_0A_x0812_0A_x0719_0A_x1140_0A_x0528_0A_x0310_0A

> <ROCS_TanimotoCombo>
0.343 

> <ROCS_ShapeTanimoto>
0.190 

> <ROCS_ColorTanimoto>
0.153 

> <ROCS_RefTversky>
0.177 

> <ROCS_RefColorTversky>
0.170 

> <ROCS_RefTverskyCombo>
0.347 

> <ROCS_FitTversky>
1.619 

> <ROCS_FitColorTversky>
0.603 

> <ROCS_FitTverskyCombo>
2.222 

> <ROCS_ColorScore>
-6.079

> <ROCS_Overlap>
2094.007

> <ROCS_Rank>
217                 

$$$$
untitled-dbase-1704_186
  -OEChem-02082415043D

 26 26  0     0  0  0  0  0  0999 V2000
    8.7890    9.7754   23.8704 C   0  0  0  0  0  0  0  0  0  0  0  0
    7.7148   10.4362   24.4664 C   0  0  0  0  0  0  0  0  0  0  0  0
    9.6266   10.4595   22.9894 C   0  0  0  0  0  0  0  0  0  0  0  0
    8.3158   12.4650   23.3003 C   0  0  0  0  0  0  0  0  0  0  0  0
    7.4782   11.7809   24.1813 C   0  0  0  0  0  0  0  0  0  0  0  0
    9.3900   11.8042   22.7043 C   0  0  0  0  0  0  0  0  0  0  0  0
    6.3585   12.4697   24.8033 C   0  0  0  0  0  0  0  0  0  0  0  0
    5.2239   14.5632   24.9524 C   0  0  0  0  0  0  0  0  0  0  0  0
   10.2856   12.5357   21.7621 C   0  0  0  0  0  0  0  0  0  0  0  0
   11.7305   14.7445   21.4712 N   0  0  0  0  0  0  0  0  0  0  0  0
    5.5657   11.9438   25.5958 O   0  0  0  0  0  0  0  0  0  0  0  0
    9.1645   14.8886   21.5773 O   0  0  0  0  0  0  0  0  0  0  0  0
   10.4628   14.3147   23.6678 O   0  0  0  0  0  0  0  0  0  0  0  0
    6.2879   13.7768   24.4053 O   0  0  0  0  0  0  0  0  0  0  0  0
   10.2889   14.2370   22.2273 S   0  0  0  0  0  0  0  0  0  0  0  0
    8.9725    8.7280   24.0915 H   0  0  0  0  0  0  0  0  0  0  0  0
    7.0687    9.8936   25.1518 H   0  0  0  0  0  0  0  0  0  0  0  0
   10.4616    9.9368   22.5302 H   0  0  0  0  0  0  0  0  0  0  0  0
    8.1321   13.5133   23.0760 H   0  0  0  0  0  0  0  0  0  0  0  0
    5.2808   15.5802   24.5566 H   0  0  0  0  0  0  0  0  0  0  0  0
    5.3051   14.5798   26.0422 H   0  0  0  0  0  0  0  0  0  0  0  0
    4.2686   14.1164   24.6669 H   0  0  0  0  0  0  0  0  0  0  0  0
    9.9396   12.4705   20.7244 H   0  0  0  0  0  0  0  0  0  0  0  0
   11.3189   12.1728   21.8042 H   0  0  0  0  0  0  0  0  0  0  0  0
   12.6197   14.4183   21.8695 H   0  0  0  0  0  0  0  0  0  0  0  0
   11.7352   14.8094   20.4458 H   0  0  0  0  0  0  0  0  0  0  0  0
  1  2  2  0  0  0  0
  1  3  1  0  0  0  0
  2  5  1  0  0  0  0
  3  6  2  0  0  0  0
  4  5  2  0  0  0  0
  4  6  1  0  0  0  0
  5  7  1  0  0  0  0
  6  9  1  0  0  0  0
  7 11  2  0  0  0  0
  7 14  1  0  0  0  0
  8 14  1  0  0  0  0
  9 15  1  0  0  0  0
 10 15  1  0  0  0  0
 12 15  2  0  0  0  0
 13 15  2  0  0  0  0
  1 16  1  0  0  0  0
  2 17  1  0  0  0  0
  3 18  1  0  0  0  0
  4 19  1  0  0  0  0
  8 20  1  0  0  0  0
  8 21  1  0  0  0  0
  8 22  1  0  0  0  0
  9 23  1  0  0  0  0
  9 24  1  0  0  0  0
 10 25  1  0  0  0  0
 10 26  1  0  0  0  0
M  END
> <Mol Weight>
229,25

> <Formula>
C9H11NO4S

> <ID>
EN300-188022

> <name>
Sulfonamides

> <LogP>
0,34

> <ROCS_ShapeQuery>
x0446_0A_x1080_0A_x0929_0A_x0812_0A_x0719_0A_x1140_0A_x0528_0A_x0310_0A

> <ROCS_TanimotoCombo>
0.343 

> <ROCS_ShapeTanimoto>
0.202 

> <ROCS_ColorTanimoto>
0.141 

> <ROCS_RefTversky>
0.186 

> <ROCS_RefColorTversky>
0.146 

> <ROCS_RefTverskyCombo>
0.332 

> <ROCS_FitTversky>
1.795 

> <ROCS_FitColorTversky>
0.788 

> <ROCS_FitTverskyCombo>
2.583 

> <ROCS_ColorScore>
-5.209

> <ROCS_Overlap>
2190.575

> <ROCS_Rank>
218                 

$$$$
untitled-dbase-1802_141
  -OEChem-02082415043D

 27 27  0     0  0  0  0  0  0999 V2000
   11.1534   11.5486   23.1450 C   0  0  0  0  0  0  0  0  0  0  0  0
   10.3730   10.4721   23.0410 C   0  0  0  0  0  0  0  0  0  0  0  0
   10.4824   12.5208   24.0216 C   0  0  0  0  0  0  0  0  0  0  0  0
    9.1623   10.6996   23.8458 C   0  0  0  0  0  0  0  0  0  0  0  0
    6.9799   12.6931   24.5639 C   0  0  0  0  0  0  0  0  0  0  0  0
    7.1032   13.5569   23.3051 C   0  0  0  0  0  0  0  0  0  0  0  0
    8.3264   12.5641   25.2757 C   0  0  0  0  0  0  0  0  0  0  0  0
    7.5888   14.9696   23.5989 C   0  0  0  0  0  0  0  0  0  0  0  0
    9.3068   11.9387   24.3960 N   0  0  0  0  0  0  0  0  0  0  0  0
    6.2778   15.4765   21.3460 N   0  0  0  0  0  0  0  0  0  0  0  0
   10.9447   13.6111   24.3122 O   0  0  0  0  0  0  0  0  0  0  0  0
    8.2540    9.8930   23.9507 O   0  0  0  0  0  0  0  0  0  0  0  0
    7.5407   17.3640   22.5539 O   0  0  0  0  0  0  0  0  0  0  0  0
    8.8489   15.5461   21.3837 O   0  0  0  0  0  0  0  0  0  0  0  0
    7.6940   15.9755   22.1539 S   0  0  0  0  0  0  0  0  0  0  0  0
   12.1117   11.7060   22.6796 H   0  0  0  0  0  0  0  0  0  0  0  0
   10.5693    9.5779   22.4738 H   0  0  0  0  0  0  0  0  0  0  0  0
    6.2462   13.1335   25.2491 H   0  0  0  0  0  0  0  0  0  0  0  0
    6.6095   11.6974   24.2891 H   0  0  0  0  0  0  0  0  0  0  0  0
    6.1193   13.6246   22.8251 H   0  0  0  0  0  0  0  0  0  0  0  0
    7.7767   13.0706   22.5891 H   0  0  0  0  0  0  0  0  0  0  0  0
    8.6929   13.5530   25.5714 H   0  0  0  0  0  0  0  0  0  0  0  0
    8.2182   11.9624   26.1849 H   0  0  0  0  0  0  0  0  0  0  0  0
    8.5751   14.9700   24.0717 H   0  0  0  0  0  0  0  0  0  0  0  0
    6.8848   15.4751   24.2677 H   0  0  0  0  0  0  0  0  0  0  0  0
    5.4957   16.1410   21.2975 H   0  0  0  0  0  0  0  0  0  0  0  0
    6.3867   14.9028   20.5007 H   0  0  0  0  0  0  0  0  0  0  0  0
  1  2  2  0  0  0  0
  1  3  1  0  0  0  0
  2  4  1  0  0  0  0
  3  9  1  0  0  0  0
  3 11  2  0  0  0  0
  4  9  1  0  0  0  0
  4 12  2  0  0  0  0
  5  6  1  0  0  0  0
  5  7  1  0  0  0  0
  6  8  1  0  0  0  0
  7  9  1  0  0  0  0
  8 15  1  0  0  0  0
 10 15  1  0  0  0  0
 13 15  2  0  0  0  0
 14 15  2  0  0  0  0
  1 16  1  0  0  0  0
  2 17  1  0  0  0  0
  5 18  1  0  0  0  0
  5 19  1  0  0  0  0
  6 20  1  0  0  0  0
  6 21  1  0  0  0  0
  7 22  1  0  0  0  0
  7 23  1  0  0  0  0
  8 24  1  0  0  0  0
  8 25  1  0  0  0  0
 10 26  1  0  0  0  0
 10 27  1  0  0  0  0
M  END
> <Mol Weight>
232,25

> <Formula>
C8H12N2O4S

> <ID>
EN300-14396106

> <name>
Sulfonamides

> <LogP>
-1,39

> <ROCS_ShapeQuery>
x0446_0A_x1080_0A_x0929_0A_x0812_0A_x0719_0A_x1140_0A_x0528_0A_x0310_0A

> <ROCS_TanimotoCombo>
0.343 

> <ROCS_ShapeTanimoto>
0.190 

> <ROCS_ColorTanimoto>
0.153 

> <ROCS_RefTversky>
0.176 

> <ROCS_RefColorTversky>
0.161 

> <ROCS_RefTverskyCombo>
0.337 

> <ROCS_FitTversky>
1.709 

> <ROCS_FitColorTversky>
0.760 

> <ROCS_FitTverskyCombo>
2.469 

> <ROCS_ColorScore>
-5.748

> <ROCS_Overlap>
2074.209

> <ROCS_Rank>
219                 

$$$$
untitled-dbase-499_16
  -OEChem-02082415043D

 22 22  0     0  0  0  0  0  0999 V2000
    7.7970   11.9184   24.9995 C   0  0  0  0  0  0  0  0  0  0  0  0
    9.3760   12.2112   23.2091 C   0  0  0  0  0  0  0  0  0  0  0  0
    7.8424   10.5572   24.7447 C   0  0  0  0  0  0  0  0  0  0  0  0
    9.3509   10.8369   23.0346 C   0  0  0  0  0  0  0  0  0  0  0  0
    8.5814   12.7543   24.2126 C   0  0  0  0  0  0  0  0  0  0  0  0
    8.5700   14.2273   24.4434 C   0  0  0  0  0  0  0  0  0  0  0  0
    7.5070   14.9686   23.6276 C   0  0  0  0  0  0  0  0  0  0  0  0
    8.6018    9.9929   23.7791 N   0  0  0  0  0  0  0  0  0  0  0  0
    6.3821   15.6635   21.3249 N   0  0  0  0  0  0  0  0  0  0  0  0
    8.9312   15.3510   21.4706 O   0  0  0  0  0  0  0  0  0  0  0  0
    7.4234   13.3271   21.5963 O   0  0  0  0  0  0  0  0  0  0  0  0
    7.6889   14.7249   21.8886 S   0  0  0  0  0  0  0  0  0  0  0  0
    7.1657   12.3108   25.7895 H   0  0  0  0  0  0  0  0  0  0  0  0
    9.9988   12.8371   22.5792 H   0  0  0  0  0  0  0  0  0  0  0  0
    7.2483    9.8626   25.3296 H   0  0  0  0  0  0  0  0  0  0  0  0
    9.9527   10.3641   22.2655 H   0  0  0  0  0  0  0  0  0  0  0  0
    9.5558   14.6480   24.1789 H   0  0  0  0  0  0  0  0  0  0  0  0
    8.4323   14.4622   25.5133 H   0  0  0  0  0  0  0  0  0  0  0  0
    6.5066   14.6017   23.8784 H   0  0  0  0  0  0  0  0  0  0  0  0
    7.5326   16.0479   23.8056 H   0  0  0  0  0  0  0  0  0  0  0  0
    6.5987   16.5468   20.8469 H   0  0  0  0  0  0  0  0  0  0  0  0
    5.5717   15.1684   20.9327 H   0  0  0  0  0  0  0  0  0  0  0  0
  1  3  2  0  0  0  0
  1  5  1  0  0  0  0
  2  4  1  0  0  0  0
  2  5  2  0  0  0  0
  3  8  1  0  0  0  0
  4  8  2  0  0  0  0
  5  6  1  0  0  0  0
  6  7  1  0  0  0  0
  7 12  1  0  0  0  0
  9 12  1  0  0  0  0
 10 12  2  0  0  0  0
 11 12  2  0  0  0  0
  1 13  1  0  0  0  0
  2 14  1  0  0  0  0
  3 15  1  0  0  0  0
  4 16  1  0  0  0  0
  6 17  1  0  0  0  0
  6 18  1  0  0  0  0
  7 19  1  0  0  0  0
  7 20  1  0  0  0  0
  9 21  1  0  0  0  0
  9 22  1  0  0  0  0
M  END
> <Mol Weight>
186,23

> <Formula>
C7H10N2O2S

> <ID>
EN300-59813

> <name>
Sulfonamides

> <LogP>
-0,59

> <ROCS_ShapeQuery>
x0446_0A_x1080_0A_x0929_0A_x0812_0A_x0719_0A_x1140_0A_x0528_0A_x0310_0A

> <ROCS_TanimotoCombo>
0.343 

> <ROCS_ShapeTanimoto>
0.173 

> <ROCS_ColorTanimoto>
0.170 

> <ROCS_RefTversky>
0.161 

> <ROCS_RefColorTversky>
0.173 

> <ROCS_RefTverskyCombo>
0.333 

> <ROCS_FitTversky>
1.746 

> <ROCS_FitColorTversky>
0.929 

> <ROCS_FitTverskyCombo>
2.675 

> <ROCS_ColorScore>
-6.144

> <ROCS_Overlap>
1894.875

> <ROCS_Rank>
220                 

$$$$
untitled-dbase-2599_0
  -OEChem-02082415043D

 20 21  0     0  0  0  0  0  0999 V2000
    9.2901   10.8194   23.1784 C   0  0  0  0  0  0  0  0  0  0  0  0
    9.1151   12.1690   23.3746 C   0  0  0  0  0  0  0  0  0  0  0  0
    7.5294   10.9856   24.3784 C   0  0  0  0  0  0  0  0  0  0  0  0
    6.3511   10.8484   25.1673 C   0  0  0  0  0  0  0  0  0  0  0  0
    5.7347   11.9462   25.6473 C   0  0  0  0  0  0  0  0  0  0  0  0
    7.3567   13.4203   24.6355 C   0  0  0  0  0  0  0  0  0  0  0  0
    6.2441   13.2873   25.3800 C   0  0  0  0  0  0  0  0  0  0  0  0
    8.3072   10.0927   23.8011 N   0  0  0  0  0  0  0  0  0  0  0  0
    7.9855   12.2790   24.1446 N   0  0  0  0  0  0  0  0  0  0  0  0
   11.2882   12.7564   21.9474 N   0  0  0  0  0  0  0  0  0  0  0  0
    9.2321   14.3106   21.9006 O   0  0  0  0  0  0  0  0  0  0  0  0
   10.6394   14.1903   23.9869 O   0  0  0  0  0  0  0  0  0  0  0  0
   10.0601   13.5546   22.8197 S   0  0  0  0  0  0  0  0  0  0  0  0
    5.3238   14.7438   26.0853 Br  0  0  0  0  0  0  0  0  0  0  0  0
   10.0754   10.3312   22.6196 H   0  0  0  0  0  0  0  0  0  0  0  0
    5.9612    9.8581   25.3748 H   0  0  0  0  0  0  0  0  0  0  0  0
    4.8376   11.8374   26.2486 H   0  0  0  0  0  0  0  0  0  0  0  0
    7.7929   14.3830   24.3964 H   0  0  0  0  0  0  0  0  0  0  0  0
   11.2737   12.8317   20.9229 H   0  0  0  0  0  0  0  0  0  0  0  0
   12.2334   12.7487   22.3497 H   0  0  0  0  0  0  0  0  0  0  0  0
  1  2  2  0  0  0  0
  1  8  1  0  0  0  0
  2  9  1  0  0  0  0
  2 13  1  0  0  0  0
  3  4  1  0  0  0  0
  3  8  2  0  0  0  0
  3  9  1  0  0  0  0
  4  5  2  0  0  0  0
  5  7  1  0  0  0  0
  6  7  2  0  0  0  0
  6  9  1  0  0  0  0
  7 14  1  0  0  0  0
 10 13  1  0  0  0  0
 11 13  2  0  0  0  0
 12 13  2  0  0  0  0
  1 15  1  0  0  0  0
  4 16  1  0  0  0  0
  5 17  1  0  0  0  0
  6 18  1  0  0  0  0
 10 19  1  0  0  0  0
 10 20  1  0  0  0  0
M  END
> <Mol Weight>
276,11

> <Formula>
C7H6BrN3O2S

> <ID>
EN300-45217294

> <name>
Sulfonamides

> <LogP>
0,22

> <ROCS_ShapeQuery>
x0446_0A_x1080_0A_x0929_0A_x0812_0A_x0719_0A_x1140_0A_x0528_0A_x0310_0A

> <ROCS_TanimotoCombo>
0.343 

> <ROCS_ShapeTanimoto>
0.198 

> <ROCS_ColorTanimoto>
0.145 

> <ROCS_RefTversky>
0.182 

> <ROCS_RefColorTversky>
0.160 

> <ROCS_RefTverskyCombo>
0.342 

> <ROCS_FitTversky>
1.793 

> <ROCS_FitColorTversky>
0.602 

> <ROCS_FitTverskyCombo>
2.395 

> <ROCS_ColorScore>
-5.713

> <ROCS_Overlap>
2150.211

> <ROCS_Rank>
221                 

$$$$
untitled-dbase-1671_124
  -OEChem-02082415043D

 27 27  0     0  0  0  0  0  0999 V2000
    8.7397    9.8461   24.2439 C   0  0  0  0  0  0  0  0  0  0  0  0
    7.4803   10.4060   24.4582 C   0  0  0  0  0  0  0  0  0  0  0  0
    9.7995   10.6518   23.8275 C   0  0  0  0  0  0  0  0  0  0  0  0
    7.2806   11.7716   24.2560 C   0  0  0  0  0  0  0  0  0  0  0  0
    9.5998   12.0174   23.6253 C   0  0  0  0  0  0  0  0  0  0  0  0
    8.3404   12.5773   23.8395 C   0  0  0  0  0  0  0  0  0  0  0  0
   10.7264   12.8327   23.1897 C   0  0  0  0  0  0  0  0  0  0  0  0
   11.8222   12.1958   22.3305 C   0  0  0  0  0  0  0  0  0  0  0  0
    6.4169   15.5114   22.2325 C   0  0  0  0  0  0  0  0  0  0  0  0
   10.7937   14.0967   23.5466 N   0  0  0  0  0  0  0  0  0  0  0  0
    8.1121   13.9749   23.6380 N   0  0  0  0  0  0  0  0  0  0  0  0
    8.9655   15.4604   21.7133 O   0  0  0  0  0  0  0  0  0  0  0  0
    7.5776   13.4402   21.1321 O   0  0  0  0  0  0  0  0  0  0  0  0
   11.9449   14.7285   23.0725 O   0  0  0  0  0  0  0  0  0  0  0  0
    7.8908   14.5370   22.0265 S   0  0  0  0  0  0  0  0  0  0  0  0
    8.8954    8.7829   24.4014 H   0  0  0  0  0  0  0  0  0  0  0  0
    6.6552    9.7783   24.7816 H   0  0  0  0  0  0  0  0  0  0  0  0
   10.7764   10.2037   23.6647 H   0  0  0  0  0  0  0  0  0  0  0  0
    6.2947   12.1971   24.4257 H   0  0  0  0  0  0  0  0  0  0  0  0
   11.5852   12.2928   21.2666 H   0  0  0  0  0  0  0  0  0  0  0  0
   12.7780   12.6873   22.5336 H   0  0  0  0  0  0  0  0  0  0  0  0
   11.9138   11.1275   22.5409 H   0  0  0  0  0  0  0  0  0  0  0  0
    6.1506   15.9416   21.2657 H   0  0  0  0  0  0  0  0  0  0  0  0
    5.6203   14.8589   22.5931 H   0  0  0  0  0  0  0  0  0  0  0  0
    6.6238   16.2996   22.9579 H   0  0  0  0  0  0  0  0  0  0  0  0
    8.6922   14.5870   24.2335 H   0  0  0  0  0  0  0  0  0  0  0  0
   11.8313   15.6289   23.4210 H   0  0  0  0  0  0  0  0  0  0  0  0
  1  2  1  0  0  0  0
  1  3  2  0  0  0  0
  2  4  2  0  0  0  0
  3  5  1  0  0  0  0
  4  6  1  0  0  0  0
  5  6  2  0  0  0  0
  5  7  1  0  0  0  0
  6 11  1  0  0  0  0
  7  8  1  0  0  0  0
  7 10  2  0  0  0  0
  9 15  1  0  0  0  0
 10 14  1  4  0  0  0
 11 15  1  0  0  0  0
 12 15  2  0  0  0  0
 13 15  2  0  0  0  0
  1 16  1  0  0  0  0
  2 17  1  0  0  0  0
  3 18  1  0  0  0  0
  4 19  1  0  0  0  0
  8 20  1  0  0  0  0
  8 21  1  0  0  0  0
  8 22  1  0  0  0  0
  9 23  1  0  0  0  0
  9 24  1  0  0  0  0
  9 25  1  0  0  0  0
 11 26  1  0  0  0  0
 14 27  1  0  0  0  0
M  END
> <Mol Weight>
228,27

> <Formula>
C9H12N2O3S

> <ID>
EN300-39392

> <name>
Sulfonamides

> <LogP>
-0,09

> <ROCS_ShapeQuery>
x0446_0A_x1080_0A_x0929_0A_x0812_0A_x0719_0A_x1140_0A_x0528_0A_x0310_0A

> <ROCS_TanimotoCombo>
0.343 

> <ROCS_ShapeTanimoto>
0.212 

> <ROCS_ColorTanimoto>
0.131 

> <ROCS_RefTversky>
0.193 

> <ROCS_RefColorTversky>
0.141 

> <ROCS_RefTverskyCombo>
0.333 

> <ROCS_FitTversky>
1.866 

> <ROCS_FitColorTversky>
0.663 

> <ROCS_FitTverskyCombo>
2.529 

> <ROCS_ColorScore>
-5.013

> <ROCS_Overlap>
2272.741

> <ROCS_Rank>
222                 

$$$$
untitled-dbase-805_26
  -OEChem-02082415043D

 26 26  0     0  0  0  0  0  0999 V2000
    8.8370   10.0314   23.6007 C   0  0  0  0  0  0  0  0  0  0  0  0
    7.6622   10.5883   24.1059 C   0  0  0  0  0  0  0  0  0  0  0  0
    9.9447   10.8431   23.3560 C   0  0  0  0  0  0  0  0  0  0  0  0
    7.5950   11.9570   24.3664 C   0  0  0  0  0  0  0  0  0  0  0  0
    9.8775   12.2118   23.6165 C   0  0  0  0  0  0  0  0  0  0  0  0
    8.7027   12.7688   24.1217 C   0  0  0  0  0  0  0  0  0  0  0  0
   11.0763   13.0613   23.3480 C   0  0  0  0  0  0  0  0  0  0  0  0
    8.6068   14.2315   24.4077 C   0  0  0  0  0  0  0  0  0  0  0  0
    7.5006   14.9375   23.6204 C   0  0  0  0  0  0  0  0  0  0  0  0
    6.3294   15.6478   21.3456 N   0  0  0  0  0  0  0  0  0  0  0  0
    8.8928   15.4800   21.4769 O   0  0  0  0  0  0  0  0  0  0  0  0
    7.5063   13.3681   21.5312 O   0  0  0  0  0  0  0  0  0  0  0  0
    7.6907   14.7676   21.8735 S   0  0  0  0  0  0  0  0  0  0  0  0
    8.8886    8.9660   23.3973 H   0  0  0  0  0  0  0  0  0  0  0  0
    6.7999    9.9558   24.2958 H   0  0  0  0  0  0  0  0  0  0  0  0
   10.8549   10.3997   22.9608 H   0  0  0  0  0  0  0  0  0  0  0  0
    6.6753   12.3815   24.7603 H   0  0  0  0  0  0  0  0  0  0  0  0
   11.0486   13.4434   22.3210 H   0  0  0  0  0  0  0  0  0  0  0  0
   11.1205   13.9136   24.0372 H   0  0  0  0  0  0  0  0  0  0  0  0
   12.0040   12.4918   23.4845 H   0  0  0  0  0  0  0  0  0  0  0  0
    9.5661   14.7155   24.1580 H   0  0  0  0  0  0  0  0  0  0  0  0
    8.4589   14.4157   25.4852 H   0  0  0  0  0  0  0  0  0  0  0  0
    6.5249   14.5025   23.8592 H   0  0  0  0  0  0  0  0  0  0  0  0
    7.4621   16.0094   23.8370 H   0  0  0  0  0  0  0  0  0  0  0  0
    6.4924   16.5589   20.8996 H   0  0  0  0  0  0  0  0  0  0  0  0
    5.5481   15.1206   20.9368 H   0  0  0  0  0  0  0  0  0  0  0  0
  1  2  1  0  0  0  0
  1  3  2  0  0  0  0
  2  4  2  0  0  0  0
  3  5  1  0  0  0  0
  4  6  1  0  0  0  0
  5  6  2  0  0  0  0
  5  7  1  0  0  0  0
  6  8  1  0  0  0  0
  8  9  1  0  0  0  0
  9 13  1  0  0  0  0
 10 13  1  0  0  0  0
 11 13  2  0  0  0  0
 12 13  2  0  0  0  0
  1 14  1  0  0  0  0
  2 15  1  0  0  0  0
  3 16  1  0  0  0  0
  4 17  1  0  0  0  0
  7 18  1  0  0  0  0
  7 19  1  0  0  0  0
  7 20  1  0  0  0  0
  8 21  1  0  0  0  0
  8 22  1  0  0  0  0
  9 23  1  0  0  0  0
  9 24  1  0  0  0  0
 10 25  1  0  0  0  0
 10 26  1  0  0  0  0
M  END
> <Mol Weight>
199,27

> <Formula>
C9H13NO2S

> <ID>
EN300-283774

> <name>
Sulfonamides

> <LogP>
1,14

> <ROCS_ShapeQuery>
x0446_0A_x1080_0A_x0929_0A_x0812_0A_x0719_0A_x1140_0A_x0528_0A_x0310_0A

> <ROCS_TanimotoCombo>
0.343 

> <ROCS_ShapeTanimoto>
0.192 

> <ROCS_ColorTanimoto>
0.151 

> <ROCS_RefTversky>
0.176 

> <ROCS_RefColorTversky>
0.152 

> <ROCS_RefTverskyCombo>
0.328 

> <ROCS_FitTversky>
1.849 

> <ROCS_FitColorTversky>
0.956 

> <ROCS_FitTverskyCombo>
2.805 

> <ROCS_ColorScore>
-5.413

> <ROCS_Overlap>
2075.359

> <ROCS_Rank>
223                 

$$$$
untitled-dbase-1441_107
  -OEChem-02082415043D

 23 23  0     0  0  0  0  0  0999 V2000
    7.3462   11.1159   23.9238 C   0  0  0  0  0  0  0  0  0  0  0  0
    8.1176   12.2852   23.7840 C   0  0  0  0  0  0  0  0  0  0  0  0
    9.4040   11.8310   23.6253 C   0  0  0  0  0  0  0  0  0  0  0  0
    7.6977   13.6534   23.7986 C   0  0  0  0  0  0  0  0  0  0  0  0
    7.3711   15.2274   21.0538 C   0  0  0  0  0  0  0  0  0  0  0  0
    7.9063   15.6104   22.4171 C   0  0  0  0  0  0  0  0  0  0  0  0
    8.0813   10.0026   23.8593 N   0  0  0  0  0  0  0  0  0  0  0  0
    9.3280   10.4703   23.6772 N   0  0  0  0  0  0  0  0  0  0  0  0
   10.9963   12.7422   21.6915 N   0  0  0  0  0  0  0  0  0  0  0  0
    6.7165   14.1022   24.4324 O   0  0  0  0  0  0  0  0  0  0  0  0
   10.8278   13.9863   23.9430 O   0  0  0  0  0  0  0  0  0  0  0  0
   11.9979   11.7569   23.8509 O   0  0  0  0  0  0  0  0  0  0  0  0
    8.5023   14.4591   23.0244 O   0  0  0  0  0  0  0  0  0  0  0  0
   10.9486   12.6488   23.3938 S   0  0  0  0  0  0  0  0  0  0  0  0
    6.2791   11.0255   24.0704 H   0  0  0  0  0  0  0  0  0  0  0  0
    8.1754   14.8680   20.4058 H   0  0  0  0  0  0  0  0  0  0  0  0
    6.6122   14.4433   21.1434 H   0  0  0  0  0  0  0  0  0  0  0  0
    6.8877   16.0850   20.5742 H   0  0  0  0  0  0  0  0  0  0  0  0
    7.0970   15.9689   23.0602 H   0  0  0  0  0  0  0  0  0  0  0  0
    8.6650   16.3933   22.3257 H   0  0  0  0  0  0  0  0  0  0  0  0
   10.0833    9.8009   23.5964 H   0  0  0  0  0  0  0  0  0  0  0  0
   10.8687   13.6651   21.2586 H   0  0  0  0  0  0  0  0  0  0  0  0
   11.6666   12.1408   21.1972 H   0  0  0  0  0  0  0  0  0  0  0  0
  1  2  1  0  0  0  0
  1  7  2  0  0  0  0
  2  3  2  0  0  0  0
  2  4  1  0  0  0  0
  3  8  1  0  0  0  0
  3 14  1  0  0  0  0
  4 10  2  0  0  0  0
  4 13  1  0  0  0  0
  5  6  1  0  0  0  0
  6 13  1  0  0  0  0
  7  8  1  0  0  0  0
  9 14  1  0  0  0  0
 11 14  2  0  0  0  0
 12 14  2  0  0  0  0
  1 15  1  0  0  0  0
  5 16  1  0  0  0  0
  5 17  1  0  0  0  0
  5 18  1  0  0  0  0
  6 19  1  0  0  0  0
  6 20  1  0  0  0  0
  8 21  1  0  0  0  0
  9 22  1  0  0  0  0
  9 23  1  0  0  0  0
M  END
> <Mol Weight>
219,22

> <Formula>
C6H9N3O4S

> <ID>
EN300-51207

> <name>
Sulfonamides

> <LogP>
-0,67

> <ROCS_ShapeQuery>
x0446_0A_x1080_0A_x0929_0A_x0812_0A_x0719_0A_x1140_0A_x0528_0A_x0310_0A

> <ROCS_TanimotoCombo>
0.343 

> <ROCS_ShapeTanimoto>
0.198 

> <ROCS_ColorTanimoto>
0.144 

> <ROCS_RefTversky>
0.182 

> <ROCS_RefColorTversky>
0.156 

> <ROCS_RefTverskyCombo>
0.338 

> <ROCS_FitTversky>
1.812 

> <ROCS_FitColorTversky>
0.655 

> <ROCS_FitTverskyCombo>
2.467 

> <ROCS_ColorScore>
-5.578

> <ROCS_Overlap>
2147.727

> <ROCS_Rank>
224                 

$$$$
untitled-dbase-912_4
  -OEChem-02082415043D

 24 25  0     0  0  0  0  0  0999 V2000
    9.2419   10.8555   23.2267 C   0  0  0  0  0  0  0  0  0  0  0  0
    9.0668   12.2383   23.4360 C   0  0  0  0  0  0  0  0  0  0  0  0
    7.9201   12.3328   24.1911 C   0  0  0  0  0  0  0  0  0  0  0  0
    7.1667   13.4926   24.7403 C   0  0  0  0  0  0  0  0  0  0  0  0
    6.2118   13.0674   25.8605 C   0  0  0  0  0  0  0  0  0  0  0  0
    5.4169   11.8218   25.4602 C   0  0  0  0  0  0  0  0  0  0  0  0
    6.3515   10.6473   25.1675 C   0  0  0  0  0  0  0  0  0  0  0  0
    8.2861   10.1191   23.8010 N   0  0  0  0  0  0  0  0  0  0  0  0
    7.4946   11.0440   24.3710 N   0  0  0  0  0  0  0  0  0  0  0  0
   11.2779   12.6601   22.0084 N   0  0  0  0  0  0  0  0  0  0  0  0
    9.3145   14.3274   21.9039 O   0  0  0  0  0  0  0  0  0  0  0  0
   10.7011   14.1856   24.0027 O   0  0  0  0  0  0  0  0  0  0  0  0
   10.0535   13.5012   22.8719 S   0  0  0  0  0  0  0  0  0  0  0  0
   10.0267   10.3517   22.6803 H   0  0  0  0  0  0  0  0  0  0  0  0
    7.8582   14.2525   25.1209 H   0  0  0  0  0  0  0  0  0  0  0  0
    6.5922   13.9539   23.9275 H   0  0  0  0  0  0  0  0  0  0  0  0
    6.7830   12.8538   26.7727 H   0  0  0  0  0  0  0  0  0  0  0  0
    5.5284   13.8914   26.0942 H   0  0  0  0  0  0  0  0  0  0  0  0
    4.7158   11.5466   26.2558 H   0  0  0  0  0  0  0  0  0  0  0  0
    4.8197   12.0476   24.5679 H   0  0  0  0  0  0  0  0  0  0  0  0
    6.7514   10.2329   26.0997 H   0  0  0  0  0  0  0  0  0  0  0  0
    5.8189    9.8567   24.6288 H   0  0  0  0  0  0  0  0  0  0  0  0
   11.2734   12.7073   20.9822 H   0  0  0  0  0  0  0  0  0  0  0  0
   12.2188   12.6098   22.4175 H   0  0  0  0  0  0  0  0  0  0  0  0
  1  2  1  0  0  0  0
  1  8  2  0  0  0  0
  2  3  2  0  0  0  0
  2 13  1  0  0  0  0
  3  4  1  0  0  0  0
  3  9  1  0  0  0  0
  4  5  1  0  0  0  0
  5  6  1  0  0  0  0
  6  7  1  0  0  0  0
  7  9  1  0  0  0  0
  8  9  1  0  0  0  0
 10 13  1  0  0  0  0
 11 13  2  0  0  0  0
 12 13  2  0  0  0  0
  1 14  1  0  0  0  0
  4 15  1  0  0  0  0
  4 16  1  0  0  0  0
  5 17  1  0  0  0  0
  5 18  1  0  0  0  0
  6 19  1  0  0  0  0
  6 20  1  0  0  0  0
  7 21  1  0  0  0  0
  7 22  1  0  0  0  0
 10 23  1  0  0  0  0
 10 24  1  0  0  0  0
M  END
> <Mol Weight>
201,24

> <Formula>
C7H11N3O2S

> <ID>
EN300-3487718

> <name>
Sulfonamides

> <LogP>
-0,30

> <ROCS_ShapeQuery>
x0446_0A_x1080_0A_x0929_0A_x0812_0A_x0719_0A_x1140_0A_x0528_0A_x0310_0A

> <ROCS_TanimotoCombo>
0.343 

> <ROCS_ShapeTanimoto>
0.191 

> <ROCS_ColorTanimoto>
0.152 

> <ROCS_RefTversky>
0.176 

> <ROCS_RefColorTversky>
0.160 

> <ROCS_RefTverskyCombo>
0.336 

> <ROCS_FitTversky>
1.799 

> <ROCS_FitColorTversky>
0.752 

> <ROCS_FitTverskyCombo>
2.550 

> <ROCS_ColorScore>
-5.698

> <ROCS_Overlap>
2073.860

> <ROCS_Rank>
225                 

$$$$
untitled-dbase-2278_0
  -OEChem-02082415043D

 23 23  0     0  0  0  0  0  0999 V2000
    9.3369   11.6834   24.4140 C   0  0  0  0  0  0  0  0  0  0  0  0
    7.8646   10.7649   23.1493 C   0  0  0  0  0  0  0  0  0  0  0  0
    8.5122   12.1756   23.1936 C   0  0  0  0  0  0  0  0  0  0  0  0
    8.3030   10.5531   24.6158 C   0  0  0  0  0  0  0  0  0  0  0  0
    9.3568   12.5088   21.9683 C   0  0  0  0  0  0  0  0  0  0  0  0
    7.5297   13.3006   23.5206 C   0  0  0  0  0  0  0  0  0  0  0  0
   11.3461   13.9637   20.9800 N   0  0  0  0  0  0  0  0  0  0  0  0
    9.1208   15.0869   21.6149 O   0  0  0  0  0  0  0  0  0  0  0  0
   10.6482   14.2386   23.4405 O   0  0  0  0  0  0  0  0  0  0  0  0
    7.3511   10.7991   25.5453 F   0  0  0  0  0  0  0  0  0  0  0  0
    8.8178    9.3361   24.9001 F   0  0  0  0  0  0  0  0  0  0  0  0
    8.1931   14.3642   23.9971 F   0  0  0  0  0  0  0  0  0  0  0  0
    6.8629   13.6622   22.4147 F   0  0  0  0  0  0  0  0  0  0  0  0
    6.6500   12.8862   24.4441 F   0  0  0  0  0  0  0  0  0  0  0  0
   10.0759   14.1076   22.1097 S   0  0  0  0  0  0  0  0  0  0  0  0
   10.3388   11.3086   24.1737 H   0  0  0  0  0  0  0  0  0  0  0  0
    9.4228   12.3861   25.2481 H   0  0  0  0  0  0  0  0  0  0  0  0
    6.7838   10.7400   22.9813 H   0  0  0  0  0  0  0  0  0  0  0  0
    8.3384   10.0609   22.4551 H   0  0  0  0  0  0  0  0  0  0  0  0
    8.7406   12.5017   21.0704 H   0  0  0  0  0  0  0  0  0  0  0  0
   10.1674   11.7899   21.8603 H   0  0  0  0  0  0  0  0  0  0  0  0
   12.1378   13.3571   21.2268 H   0  0  0  0  0  0  0  0  0  0  0  0
   11.0975   13.9350   19.9835 H   0  0  0  0  0  0  0  0  0  0  0  0
  1  3  1  0  0  0  0
  1  4  1  0  0  0  0
  2  3  1  0  0  0  0
  2  4  1  0  0  0  0
  3  5  1  0  0  0  0
  3  6  1  0  0  0  0
  4 10  1  0  0  0  0
  4 11  1  0  0  0  0
  5 15  1  0  0  0  0
  6 12  1  0  0  0  0
  6 13  1  0  0  0  0
  6 14  1  0  0  0  0
  7 15  1  0  0  0  0
  8 15  2  0  0  0  0
  9 15  2  0  0  0  0
  1 16  1  0  0  0  0
  1 17  1  0  0  0  0
  2 18  1  0  0  0  0
  2 19  1  0  0  0  0
  5 20  1  0  0  0  0
  5 21  1  0  0  0  0
  7 22  1  0  0  0  0
  7 23  1  0  0  0  0
M  END
> <Mol Weight>
253,19

> <Formula>
C6H8F5NO2S

> <ID>
EN300-27736132

> <name>
Sulfonamides

> <LogP>
0,07

> <ROCS_ShapeQuery>
x0446_0A_x1080_0A_x0929_0A_x0812_0A_x0719_0A_x1140_0A_x0528_0A_x0310_0A

> <ROCS_TanimotoCombo>
0.343 

> <ROCS_ShapeTanimoto>
0.200 

> <ROCS_ColorTanimoto>
0.142 

> <ROCS_RefTversky>
0.184 

> <ROCS_RefColorTversky>
0.145 

> <ROCS_RefTverskyCombo>
0.329 

> <ROCS_FitTversky>
1.748 

> <ROCS_FitColorTversky>
0.907 

> <ROCS_FitTverskyCombo>
2.654 

> <ROCS_ColorScore>
-5.135

> <ROCS_Overlap>
2175.837

> <ROCS_Rank>
226                 

$$$$
untitled-dbase-1481_16
  -OEChem-02082415043D

 22 22  0     0  0  0  0  0  0999 V2000
    7.6998   10.6728   24.1600 C   0  0  0  0  0  0  0  0  0  0  0  0
    7.5625   12.0366   24.3936 C   0  0  0  0  0  0  0  0  0  0  0  0
    8.9283   10.2114   23.7154 C   0  0  0  0  0  0  0  0  0  0  0  0
    8.6427   12.8853   24.1786 C   0  0  0  0  0  0  0  0  0  0  0  0
    9.8291   12.3248   23.7334 C   0  0  0  0  0  0  0  0  0  0  0  0
    8.4908   14.3461   24.4315 C   0  0  0  0  0  0  0  0  0  0  0  0
    7.3935   15.0049   23.5903 C   0  0  0  0  0  0  0  0  0  0  0  0
   10.0003   11.0051   23.4953 N   0  0  0  0  0  0  0  0  0  0  0  0
    6.2895   15.6401   21.2604 N   0  0  0  0  0  0  0  0  0  0  0  0
    8.8500   15.5539   21.4916 O   0  0  0  0  0  0  0  0  0  0  0  0
    7.5270   13.4013   21.5316 O   0  0  0  0  0  0  0  0  0  0  0  0
    7.6556   14.8115   21.8552 S   0  0  0  0  0  0  0  0  0  0  0  0
   11.2337   13.2697   23.4289 Cl  0  0  0  0  0  0  0  0  0  0  0  0
    6.8715    9.9924   24.3214 H   0  0  0  0  0  0  0  0  0  0  0  0
    6.6109   12.4279   24.7428 H   0  0  0  0  0  0  0  0  0  0  0  0
    9.0870    9.1564   23.5180 H   0  0  0  0  0  0  0  0  0  0  0  0
    9.4430   14.8589   24.2088 H   0  0  0  0  0  0  0  0  0  0  0  0
    8.2963   14.5484   25.4995 H   0  0  0  0  0  0  0  0  0  0  0  0
    6.4220   14.5459   23.7995 H   0  0  0  0  0  0  0  0  0  0  0  0
    7.3163   16.0787   23.7862 H   0  0  0  0  0  0  0  0  0  0  0  0
    5.3706   15.1971   21.3825 H   0  0  0  0  0  0  0  0  0  0  0  0
    6.2719   16.6630   21.3551 H   0  0  0  0  0  0  0  0  0  0  0  0
  1  2  2  0  0  0  0
  1  3  1  0  0  0  0
  2  4  1  0  0  0  0
  3  8  2  0  0  0  0
  4  5  2  0  0  0  0
  4  6  1  0  0  0  0
  5  8  1  0  0  0  0
  5 13  1  0  0  0  0
  6  7  1  0  0  0  0
  7 12  1  0  0  0  0
  9 12  1  0  0  0  0
 10 12  2  0  0  0  0
 11 12  2  0  0  0  0
  1 14  1  0  0  0  0
  2 15  1  0  0  0  0
  3 16  1  0  0  0  0
  6 17  1  0  0  0  0
  6 18  1  0  0  0  0
  7 19  1  0  0  0  0
  7 20  1  0  0  0  0
  9 21  1  0  0  0  0
  9 22  1  0  0  0  0
M  END
> <Mol Weight>
220,67

> <Formula>
C7H9ClN2O2S

> <ID>
EN300-7435835

> <name>
Sulfonamides

> <LogP>
0,24

> <ROCS_ShapeQuery>
x0446_0A_x1080_0A_x0929_0A_x0812_0A_x0719_0A_x1140_0A_x0528_0A_x0310_0A

> <ROCS_TanimotoCombo>
0.343 

> <ROCS_ShapeTanimoto>
0.190 

> <ROCS_ColorTanimoto>
0.153 

> <ROCS_RefTversky>
0.174 

> <ROCS_RefColorTversky>
0.157 

> <ROCS_RefTverskyCombo>
0.332 

> <ROCS_FitTversky>
1.835 

> <ROCS_FitColorTversky>
0.847 

> <ROCS_FitTverskyCombo>
2.682 

> <ROCS_ColorScore>
-5.601

> <ROCS_Overlap>
2057.198

> <ROCS_Rank>
227                 

$$$$
untitled-dbase-2076_227
  -OEChem-02082415043D

 29 29  0     0  0  0  0  0  0999 V2000
    8.2471   10.7553   24.2435 C   0  0  0  0  0  0  0  0  0  0  0  0
    8.9980   10.5524   23.0857 C   0  0  0  0  0  0  0  0  0  0  0  0
    8.7374   13.1190   24.1474 C   0  0  0  0  0  0  0  0  0  0  0  0
    8.1167   12.0386   24.7744 C   0  0  0  0  0  0  0  0  0  0  0  0
    9.6187   11.6328   22.4588 C   0  0  0  0  0  0  0  0  0  0  0  0
    9.4885   12.9161   22.9896 C   0  0  0  0  0  0  0  0  0  0  0  0
    5.8434   12.5489   25.7515 C   0  0  0  0  0  0  0  0  0  0  0  0
    5.4768   13.9922   25.5204 C   0  0  0  0  0  0  0  0  0  0  0  0
   10.4251   10.0661   20.8616 C   0  0  0  0  0  0  0  0  0  0  0  0
    7.3142   12.2544   26.0127 C   0  0  0  0  0  0  0  0  0  0  0  0
   11.0226   13.5278   20.8975 N   0  0  0  0  0  0  0  0  0  0  0  0
    4.9850   11.6679   25.7264 O   0  0  0  0  0  0  0  0  0  0  0  0
    9.2182   15.1735   21.7229 O   0  0  0  0  0  0  0  0  0  0  0  0
   11.2804   14.8018   23.1217 O   0  0  0  0  0  0  0  0  0  0  0  0
   10.3485   11.4110   21.3300 O   0  0  0  0  0  0  0  0  0  0  0  0
   10.2583   14.2870   22.2229 S   0  0  0  0  0  0  0  0  0  0  0  0
    7.7671    9.9078   24.7255 H   0  0  0  0  0  0  0  0  0  0  0  0
    9.0958    9.5500   22.6777 H   0  0  0  0  0  0  0  0  0  0  0  0
    8.6333   14.1183   24.5638 H   0  0  0  0  0  0  0  0  0  0  0  0
    5.5419   14.2233   24.4536 H   0  0  0  0  0  0  0  0  0  0  0  0
    4.4524   14.1681   25.8579 H   0  0  0  0  0  0  0  0  0  0  0  0
    6.1699   14.6382   26.0648 H   0  0  0  0  0  0  0  0  0  0  0  0
   11.0358   10.0289   19.9563 H   0  0  0  0  0  0  0  0  0  0  0  0
    9.4190    9.6949   20.6507 H   0  0  0  0  0  0  0  0  0  0  0  0
   10.8854    9.4461   21.6346 H   0  0  0  0  0  0  0  0  0  0  0  0
    7.3679   11.3670   26.6629 H   0  0  0  0  0  0  0  0  0  0  0  0
    7.7258   13.0941   26.5945 H   0  0  0  0  0  0  0  0  0  0  0  0
   11.8378   12.9324   21.0883 H   0  0  0  0  0  0  0  0  0  0  0  0
   10.4302   13.1871   20.1305 H   0  0  0  0  0  0  0  0  0  0  0  0
  1  2  2  0  0  0  0
  1  4  1  0  0  0  0
  2  5  1  0  0  0  0
  3  4  2  0  0  0  0
  3  6  1  0  0  0  0
  4 10  1  0  0  0  0
  5  6  2  0  0  0  0
  5 15  1  0  0  0  0
  6 16  1  0  0  0  0
  7  8  1  0  0  0  0
  7 10  1  0  0  0  0
  7 12  2  0  0  0  0
  9 15  1  0  0  0  0
 11 16  1  0  0  0  0
 13 16  2  0  0  0  0
 14 16  2  0  0  0  0
  1 17  1  0  0  0  0
  2 18  1  0  0  0  0
  3 19  1  0  0  0  0
  8 20  1  0  0  0  0
  8 21  1  0  0  0  0
  8 22  1  0  0  0  0
  9 23  1  0  0  0  0
  9 24  1  0  0  0  0
  9 25  1  0  0  0  0
 10 26  1  0  0  0  0
 10 27  1  0  0  0  0
 11 28  1  0  0  0  0
 11 29  1  0  0  0  0
M  END
> <Mol Weight>
243,28

> <Formula>
C10H13NO4S

> <ID>
EN300-7358800

> <name>
Sulfonamides

> <LogP>
0,39

> <ROCS_ShapeQuery>
x0446_0A_x1080_0A_x0929_0A_x0812_0A_x0719_0A_x1140_0A_x0528_0A_x0310_0A

> <ROCS_TanimotoCombo>
0.343 

> <ROCS_ShapeTanimoto>
0.195 

> <ROCS_ColorTanimoto>
0.148 

> <ROCS_RefTversky>
0.180 

> <ROCS_RefColorTversky>
0.156 

> <ROCS_RefTverskyCombo>
0.337 

> <ROCS_FitTversky>
1.691 

> <ROCS_FitColorTversky>
0.736 

> <ROCS_FitTverskyCombo>
2.427 

> <ROCS_ColorScore>
-5.566

> <ROCS_Overlap>
2127.534

> <ROCS_Rank>
228                 

$$$$
untitled-dbase-1647_6
  -OEChem-02082415043D

 24 25  0     0  0  0  0  0  0999 V2000
    8.8692   12.5687   23.3534 C   0  0  0  0  0  0  0  0  0  0  0  0
    9.2827   10.2114   23.2078 C   0  0  0  0  0  0  0  0  0  0  0  0
    7.7813   12.2464   24.1729 C   0  0  0  0  0  0  0  0  0  0  0  0
    9.6344   11.5113   22.8629 C   0  0  0  0  0  0  0  0  0  0  0  0
    6.7650   12.9199   24.8733 C   0  0  0  0  0  0  0  0  0  0  0  0
    7.5382   10.9078   24.4405 C   0  0  0  0  0  0  0  0  0  0  0  0
    7.4923   15.0864   25.9048 C   0  0  0  0  0  0  0  0  0  0  0  0
    6.5262   14.3706   24.9524 C   0  0  0  0  0  0  0  0  0  0  0  0
    8.2418    9.8505   23.9954 N   0  0  0  0  0  0  0  0  0  0  0  0
    5.9548   12.0795   25.5231 N   0  0  0  0  0  0  0  0  0  0  0  0
   10.9811   13.5241   21.7494 N   0  0  0  0  0  0  0  0  0  0  0  0
   12.2156   11.4061   22.5468 O   0  0  0  0  0  0  0  0  0  0  0  0
   10.7338   11.2775   20.5132 O   0  0  0  0  0  0  0  0  0  0  0  0
    6.4451   10.8094   25.2485 O   0  0  0  0  0  0  0  0  0  0  0  0
   11.0104   11.8174   21.8382 S   0  0  0  0  0  0  0  0  0  0  0  0
    9.1075   13.5994   23.1113 H   0  0  0  0  0  0  0  0  0  0  0  0
    9.8654    9.3704   22.8394 H   0  0  0  0  0  0  0  0  0  0  0  0
    7.4453   14.6460   26.9066 H   0  0  0  0  0  0  0  0  0  0  0  0
    7.2526   16.1509   25.9909 H   0  0  0  0  0  0  0  0  0  0  0  0
    8.5239   14.9987   25.5473 H   0  0  0  0  0  0  0  0  0  0  0  0
    6.6071   14.8475   23.9549 H   0  0  0  0  0  0  0  0  0  0  0  0
    5.4903   14.5913   25.2803 H   0  0  0  0  0  0  0  0  0  0  0  0
   11.7107   14.0459   22.2503 H   0  0  0  0  0  0  0  0  0  0  0  0
   10.6968   13.9563   20.8619 H   0  0  0  0  0  0  0  0  0  0  0  0
  1  3  1  0  0  0  0
  1  4  2  0  0  0  0
  2  4  1  0  0  0  0
  2  9  2  0  0  0  0
  3  5  1  0  0  0  0
  3  6  2  0  0  0  0
  4 15  1  0  0  0  0
  5  8  1  0  0  0  0
  5 10  2  0  0  0  0
  6  9  1  0  0  0  0
  6 14  1  0  0  0  0
  7  8  1  0  0  0  0
 10 14  1  0  0  0  0
 11 15  1  0  0  0  0
 12 15  2  0  0  0  0
 13 15  2  0  0  0  0
  1 16  1  0  0  0  0
  2 17  1  0  0  0  0
  7 18  1  0  0  0  0
  7 19  1  0  0  0  0
  7 20  1  0  0  0  0
  8 21  1  0  0  0  0
  8 22  1  0  0  0  0
 11 23  1  0  0  0  0
 11 24  1  0  0  0  0
M  END
> <Mol Weight>
227,24

> <Formula>
C8H9N3O3S

> <ID>
EN300-132452

> <name>
Sulfonamides

> <LogP>
-0,06

> <ROCS_ShapeQuery>
x0446_0A_x1080_0A_x0929_0A_x0812_0A_x0719_0A_x1140_0A_x0528_0A_x0310_0A

> <ROCS_TanimotoCombo>
0.342 

> <ROCS_ShapeTanimoto>
0.194 

> <ROCS_ColorTanimoto>
0.148 

> <ROCS_RefTversky>
0.180 

> <ROCS_RefColorTversky>
0.163 

> <ROCS_RefTverskyCombo>
0.343 

> <ROCS_FitTversky>
1.698 

> <ROCS_FitColorTversky>
0.615 

> <ROCS_FitTverskyCombo>
2.313 

> <ROCS_ColorScore>
-5.831

> <ROCS_Overlap>
2118.497

> <ROCS_Rank>
229                 

$$$$
untitled-dbase-1763_41
  -OEChem-02082415043D

 24 24  0     0  0  0  0  0  0999 V2000
    9.2816   10.5846   22.8342 C   0  0  0  0  0  0  0  0  0  0  0  0
    9.8523   11.7509   22.3248 C   0  0  0  0  0  0  0  0  0  0  0  0
    8.5298   13.0680   23.8589 C   0  0  0  0  0  0  0  0  0  0  0  0
    7.9590   11.9016   24.3682 C   0  0  0  0  0  0  0  0  0  0  0  0
    8.3349   10.6599   23.8559 C   0  0  0  0  0  0  0  0  0  0  0  0
    9.4764   12.9926   22.8372 C   0  0  0  0  0  0  0  0  0  0  0  0
    6.9727   12.0021   25.4349 C   0  0  0  0  0  0  0  0  0  0  0  0
    6.6203   12.7591   27.6681 C   0  0  0  0  0  0  0  0  0  0  0  0
   11.2425   13.8096   21.0155 N   0  0  0  0  0  0  0  0  0  0  0  0
    5.8077   11.5950   25.3494 O   0  0  0  0  0  0  0  0  0  0  0  0
    9.1490   15.2216   21.5341 O   0  0  0  0  0  0  0  0  0  0  0  0
   10.9905   15.0720   23.2470 O   0  0  0  0  0  0  0  0  0  0  0  0
    7.7889    9.5088   24.3400 O   0  0  0  0  0  0  0  0  0  0  0  0
    7.4959   12.6030   26.5463 O   0  0  0  0  0  0  0  0  0  0  0  0
   10.1913   14.4524   22.1992 S   0  0  0  0  0  0  0  0  0  0  0  0
    9.5790    9.6206   22.4303 H   0  0  0  0  0  0  0  0  0  0  0  0
   10.5888   11.6807   21.5288 H   0  0  0  0  0  0  0  0  0  0  0  0
    8.2375   14.0367   24.2577 H   0  0  0  0  0  0  0  0  0  0  0  0
    7.1565   13.2492   28.4845 H   0  0  0  0  0  0  0  0  0  0  0  0
    6.2615   11.7784   27.9906 H   0  0  0  0  0  0  0  0  0  0  0  0
    5.7692   13.3768   27.3716 H   0  0  0  0  0  0  0  0  0  0  0  0
   10.9959   13.9449   20.0274 H   0  0  0  0  0  0  0  0  0  0  0  0
   12.2526   13.8417   21.1994 H   0  0  0  0  0  0  0  0  0  0  0  0
    7.1508    9.7107   25.0420 H   0  0  0  0  0  0  0  0  0  0  0  0
  1  2  2  0  0  0  0
  1  5  1  0  0  0  0
  2  6  1  0  0  0  0
  3  4  1  0  0  0  0
  3  6  2  0  0  0  0
  4  5  2  0  0  0  0
  4  7  1  0  0  0  0
  5 13  1  0  0  0  0
  6 15  1  0  0  0  0
  7 10  2  0  0  0  0
  7 14  1  0  0  0  0
  8 14  1  0  0  0  0
  9 15  1  0  0  0  0
 11 15  2  0  0  0  0
 12 15  2  0  0  0  0
  1 16  1  0  0  0  0
  2 17  1  0  0  0  0
  3 18  1  0  0  0  0
  8 19  1  0  0  0  0
  8 20  1  0  0  0  0
  8 21  1  0  0  0  0
  9 22  1  0  0  0  0
  9 23  1  0  0  0  0
 13 24  1  0  0  0  0
M  END
> <Mol Weight>
231,22

> <Formula>
C8H9NO5S

> <ID>
EN300-41728

> <name>
Sulfonamides

> <LogP>
0,93

> <ROCS_ShapeQuery>
x0446_0A_x1080_0A_x0929_0A_x0812_0A_x0719_0A_x1140_0A_x0528_0A_x0310_0A

> <ROCS_TanimotoCombo>
0.342 

> <ROCS_ShapeTanimoto>
0.193 

> <ROCS_ColorTanimoto>
0.149 

> <ROCS_RefTversky>
0.179 

> <ROCS_RefColorTversky>
0.161 

> <ROCS_RefTverskyCombo>
0.339 

> <ROCS_FitTversky>
1.714 

> <ROCS_FitColorTversky>
0.673 

> <ROCS_FitTverskyCombo>
2.387 

> <ROCS_ColorScore>
-5.731

> <ROCS_Overlap>
2106.325

> <ROCS_Rank>
230                 

$$$$
untitled-dbase-2725_243
  -OEChem-02082415043D

 31 31  0     0  0  0  0  0  0999 V2000
    8.2626   13.1399   23.8836 C   0  0  0  0  0  0  0  0  0  0  0  0
    9.4931   11.6641   22.4190 C   0  0  0  0  0  0  0  0  0  0  0  0
    7.5442   12.0510   24.3773 C   0  0  0  0  0  0  0  0  0  0  0  0
    7.8003   10.7687   23.8918 C   0  0  0  0  0  0  0  0  0  0  0  0
    8.7747   10.5752   22.9127 C   0  0  0  0  0  0  0  0  0  0  0  0
    9.2371   12.9465   22.9044 C   0  0  0  0  0  0  0  0  0  0  0  0
    6.5335   12.2850   25.4002 C   0  0  0  0  0  0  0  0  0  0  0  0
    7.0247    9.6033   24.4247 C   0  0  0  0  0  0  0  0  0  0  0  0
    6.6768   15.7361   26.4435 C   0  0  0  0  0  0  0  0  0  0  0  0
    5.9233   14.4458   26.2006 C   0  0  0  0  0  0  0  0  0  0  0  0
   11.1578   13.5406   21.1543 N   0  0  0  0  0  0  0  0  0  0  0  0
    9.0531    9.2778   22.4006 N   0  3  0  0  0  0  0  0  0  0  0  0
    9.9283    8.5791   22.9640 O   0  5  0  0  0  0  0  0  0  0  0  0
    5.5140   11.5997   25.5433 O   0  0  0  0  0  0  0  0  0  0  0  0
    8.4150    8.8716   21.4007 O   0  0  0  0  0  0  0  0  0  0  0  0
    9.2136   15.1813   21.5708 O   0  0  0  0  0  0  0  0  0  0  0  0
   10.9536   14.8512   23.3628 O   0  0  0  0  0  0  0  0  0  0  0  0
    6.8541   13.3582   26.1844 O   0  0  0  0  0  0  0  0  0  0  0  0
   10.1355   14.3104   22.2864 S   0  0  0  0  0  0  0  0  0  0  0  0
    8.0637   14.1404   24.2609 H   0  0  0  0  0  0  0  0  0  0  0  0
   10.2535   11.5174   21.6547 H   0  0  0  0  0  0  0  0  0  0  0  0
    6.1221    9.4473   23.8252 H   0  0  0  0  0  0  0  0  0  0  0  0
    7.6265    8.6883   24.4017 H   0  0  0  0  0  0  0  0  0  0  0  0
    6.7318    9.7710   25.4670 H   0  0  0  0  0  0  0  0  0  0  0  0
    7.1981   15.7086   27.4044 H   0  0  0  0  0  0  0  0  0  0  0  0
    7.4094   15.9108   25.6487 H   0  0  0  0  0  0  0  0  0  0  0  0
    5.9913   16.5901   26.4378 H   0  0  0  0  0  0  0  0  0  0  0  0
    5.4042   14.4799   25.2380 H   0  0  0  0  0  0  0  0  0  0  0  0
    5.1923   14.2724   26.9960 H   0  0  0  0  0  0  0  0  0  0  0  0
   10.9695   13.6898   20.1555 H   0  0  0  0  0  0  0  0  0  0  0  0
   12.1567   13.4634   21.3815 H   0  0  0  0  0  0  0  0  0  0  0  0
  1  3  1  0  0  0  0
  1  6  2  0  0  0  0
  2  5  2  0  0  0  0
  2  6  1  0  0  0  0
  3  4  2  0  0  0  0
  3  7  1  0  0  0  0
  4  5  1  0  0  0  0
  4  8  1  0  0  0  0
  5 12  1  0  0  0  0
  6 19  1  0  0  0  0
  7 14  2  0  0  0  0
  7 18  1  0  0  0  0
  9 10  1  0  0  0  0
 10 18  1  0  0  0  0
 11 19  1  0  0  0  0
 12 13  1  0  0  0  0
 12 15  2  0  0  0  0
 16 19  2  0  0  0  0
 17 19  2  0  0  0  0
  1 20  1  0  0  0  0
  2 21  1  0  0  0  0
  8 22  1  0  0  0  0
  8 23  1  0  0  0  0
  8 24  1  0  0  0  0
  9 25  1  0  0  0  0
  9 26  1  0  0  0  0
  9 27  1  0  0  0  0
 10 28  1  0  0  0  0
 10 29  1  0  0  0  0
 11 30  1  0  0  0  0
 11 31  1  0  0  0  0
M  CHG  2  12   1  13  -1
M  END
> <Mol Weight>
288,27

> <Formula>
C10H12N2O6S

> <ID>
EN300-81894

> <name>
Sulfonamides

> <LogP>
1,39

> <ROCS_ShapeQuery>
x0446_0A_x1080_0A_x0929_0A_x0812_0A_x0719_0A_x1140_0A_x0528_0A_x0310_0A

> <ROCS_TanimotoCombo>
0.342 

> <ROCS_ShapeTanimoto>
0.211 

> <ROCS_ColorTanimoto>
0.131 

> <ROCS_RefTversky>
0.195 

> <ROCS_RefColorTversky>
0.144 

> <ROCS_RefTverskyCombo>
0.338 

> <ROCS_FitTversky>
1.645 

> <ROCS_FitColorTversky>
0.601 

> <ROCS_FitTverskyCombo>
2.245 

> <ROCS_ColorScore>
-5.124

> <ROCS_Overlap>
2296.652

> <ROCS_Rank>
231                 

$$$$
untitled-dbase-1827_0
  -OEChem-02082415043D

 22 22  0     0  0  0  0  0  0999 V2000
    9.0655   10.3550   22.9753 C   0  0  0  0  0  0  0  0  0  0  0  0
    9.6556   11.5206   22.4869 C   0  0  0  0  0  0  0  0  0  0  0  0
    8.3799   12.8288   24.0676 C   0  0  0  0  0  0  0  0  0  0  0  0
    7.7898   11.6631   24.5560 C   0  0  0  0  0  0  0  0  0  0  0  0
    8.1325   10.4262   24.0099 C   0  0  0  0  0  0  0  0  0  0  0  0
    9.3128   12.7575   23.0330 C   0  0  0  0  0  0  0  0  0  0  0  0
    8.0106   14.1564   24.6539 C   0  0  0  0  0  0  0  0  0  0  0  0
   11.0852   13.5184   21.1933 N   0  0  0  0  0  0  0  0  0  0  0  0
    6.8354   11.7120   25.6099 N   0  3  0  0  0  0  0  0  0  0  0  0
    7.2370   11.6320   26.7946 O   0  5  0  0  0  0  0  0  0  0  0  0
    5.6214   11.8334   25.3220 O   0  0  0  0  0  0  0  0  0  0  0  0
    9.0542   15.0059   21.7480 O   0  0  0  0  0  0  0  0  0  0  0  0
   10.9106   14.7748   23.4355 O   0  0  0  0  0  0  0  0  0  0  0  0
    7.5734    9.2973   24.4695 F   0  0  0  0  0  0  0  0  0  0  0  0
   10.0767   14.1968   22.3930 S   0  0  0  0  0  0  0  0  0  0  0  0
    9.3324    9.3917   22.5506 H   0  0  0  0  0  0  0  0  0  0  0  0
   10.3811   11.4517   21.6806 H   0  0  0  0  0  0  0  0  0  0  0  0
    8.6747   14.3954   25.4907 H   0  0  0  0  0  0  0  0  0  0  0  0
    8.0875   14.9514   23.9041 H   0  0  0  0  0  0  0  0  0  0  0  0
    6.9760   14.1518   25.0144 H   0  0  0  0  0  0  0  0  0  0  0  0
   10.8313   13.6695   20.2094 H   0  0  0  0  0  0  0  0  0  0  0  0
   12.0982   13.5107   21.3641 H   0  0  0  0  0  0  0  0  0  0  0  0
  1  2  1  0  0  0  0
  1  5  2  0  0  0  0
  2  6  2  0  0  0  0
  3  4  2  0  0  0  0
  3  6  1  0  0  0  0
  3  7  1  0  0  0  0
  4  5  1  0  0  0  0
  4  9  1  0  0  0  0
  5 14  1  0  0  0  0
  6 15  1  0  0  0  0
  8 15  1  0  0  0  0
  9 10  1  0  0  0  0
  9 11  2  0  0  0  0
 12 15  2  0  0  0  0
 13 15  2  0  0  0  0
  1 16  1  0  0  0  0
  2 17  1  0  0  0  0
  7 18  1  0  0  0  0
  7 19  1  0  0  0  0
  7 20  1  0  0  0  0
  8 21  1  0  0  0  0
  8 22  1  0  0  0  0
M  CHG  2   9   1  10  -1
M  END
> <Mol Weight>
234,20

> <Formula>
C7H7FN2O4S

> <ID>
EN300-20946040

> <name>
Sulfonamides

> <LogP>
1,18

> <ROCS_ShapeQuery>
x0446_0A_x1080_0A_x0929_0A_x0812_0A_x0719_0A_x1140_0A_x0528_0A_x0310_0A

> <ROCS_TanimotoCombo>
0.342 

> <ROCS_ShapeTanimoto>
0.204 

> <ROCS_ColorTanimoto>
0.138 

> <ROCS_RefTversky>
0.187 

> <ROCS_RefColorTversky>
0.147 

> <ROCS_RefTverskyCombo>
0.334 

> <ROCS_FitTversky>
1.787 

> <ROCS_FitColorTversky>
0.690 

> <ROCS_FitTverskyCombo>
2.478 

> <ROCS_ColorScore>
-5.232

> <ROCS_Overlap>
2207.173

> <ROCS_Rank>
232                 

$$$$
untitled-dbase-2773_84
  -OEChem-02082415043D

 29 29  0     0  0  0  0  0  0999 V2000
    9.2702   11.4587   22.8708 C   0  0  0  0  0  0  0  0  0  0  0  0
    8.3542   10.7415   23.6935 C   0  0  0  0  0  0  0  0  0  0  0  0
    7.6490   11.5762   24.5322 C   0  0  0  0  0  0  0  0  0  0  0  0
    9.2300   12.8145   23.1121 C   0  0  0  0  0  0  0  0  0  0  0  0
   10.1524   10.8782   21.8906 C   0  0  0  0  0  0  0  0  0  0  0  0
    6.6488   11.2520   25.4987 C   0  0  0  0  0  0  0  0  0  0  0  0
    8.1804    9.2674   23.6511 C   0  0  0  0  0  0  0  0  0  0  0  0
   11.9576    9.3336   21.5752 C   0  0  0  0  0  0  0  0  0  0  0  0
    6.2025   10.0006   27.5059 C   0  0  0  0  0  0  0  0  0  0  0  0
   11.0974   13.4106   21.3059 N   0  0  0  0  0  0  0  0  0  0  0  0
   10.1427   11.1463   20.6740 O   0  0  0  0  0  0  0  0  0  0  0  0
    5.4684   11.6730   25.4918 O   0  0  0  0  0  0  0  0  0  0  0  0
    9.1305   15.0207   21.7351 O   0  0  0  0  0  0  0  0  0  0  0  0
   10.9176   14.7617   23.4920 O   0  0  0  0  0  0  0  0  0  0  0  0
   11.0261    9.9787   22.4502 O   0  0  0  0  0  0  0  0  0  0  0  0
    7.1145   10.4010   26.4774 O   0  0  0  0  0  0  0  0  0  0  0  0
    8.0917   13.2175   24.3262 S   0  0  0  0  0  0  0  0  0  0  0  0
   10.0928   14.1938   22.4408 S   0  0  0  0  0  0  0  0  0  0  0  0
    8.8632    8.7753   24.3581 H   0  0  0  0  0  0  0  0  0  0  0  0
    7.1517    8.9734   23.9073 H   0  0  0  0  0  0  0  0  0  0  0  0
    8.3790    8.8650   22.6465 H   0  0  0  0  0  0  0  0  0  0  0  0
   12.5860    8.6497   22.1509 H   0  0  0  0  0  0  0  0  0  0  0  0
   12.5772   10.0868   21.0819 H   0  0  0  0  0  0  0  0  0  0  0  0
   11.4044    8.7689   20.8210 H   0  0  0  0  0  0  0  0  0  0  0  0
    6.7108    9.3313   28.2043 H   0  0  0  0  0  0  0  0  0  0  0  0
    5.3453    9.4930   27.0566 H   0  0  0  0  0  0  0  0  0  0  0  0
    5.8582   10.8887   28.0411 H   0  0  0  0  0  0  0  0  0  0  0  0
   11.8765   12.8452   21.6648 H   0  0  0  0  0  0  0  0  0  0  0  0
   10.6572   13.0229   20.4627 H   0  0  0  0  0  0  0  0  0  0  0  0
  1  2  1  0  0  0  0
  1  4  2  0  0  0  0
  1  5  1  0  0  0  0
  2  3  2  0  0  0  0
  2  7  1  0  0  0  0
  3  6  1  0  0  0  0
  3 17  1  0  0  0  0
  4 17  1  0  0  0  0
  4 18  1  0  0  0  0
  5 11  2  0  0  0  0
  5 15  1  0  0  0  0
  6 12  2  0  0  0  0
  6 16  1  0  0  0  0
  8 15  1  0  0  0  0
  9 16  1  0  0  0  0
 10 18  1  0  0  0  0
 13 18  2  0  0  0  0
 14 18  2  0  0  0  0
  7 19  1  0  0  0  0
  7 20  1  0  0  0  0
  7 21  1  0  0  0  0
  8 22  1  0  0  0  0
  8 23  1  0  0  0  0
  8 24  1  0  0  0  0
  9 25  1  0  0  0  0
  9 26  1  0  0  0  0
  9 27  1  0  0  0  0
 10 28  1  0  0  0  0
 10 29  1  0  0  0  0
M  END
> <Mol Weight>
293,31

> <Formula>
C9H11NO6S2

> <ID>
EN300-30557

> <name>
Sulfonamides

> <LogP>
1,18

> <ROCS_ShapeQuery>
x0446_0A_x1080_0A_x0929_0A_x0812_0A_x0719_0A_x1140_0A_x0528_0A_x0310_0A

> <ROCS_TanimotoCombo>
0.342 

> <ROCS_ShapeTanimoto>
0.201 

> <ROCS_ColorTanimoto>
0.141 

> <ROCS_RefTversky>
0.186 

> <ROCS_RefColorTversky>
0.150 

> <ROCS_RefTverskyCombo>
0.336 

> <ROCS_FitTversky>
1.642 

> <ROCS_FitColorTversky>
0.706 

> <ROCS_FitTverskyCombo>
2.348 

> <ROCS_ColorScore>
-5.340

> <ROCS_Overlap>
2195.041

> <ROCS_Rank>
233                 

$$$$
untitled-dbase-1456_18
  -OEChem-02082415043D

 23 23  0     0  0  0  0  0  0999 V2000
    7.6533   10.5978   24.1128 C   0  0  0  0  0  0  0  0  0  0  0  0
    8.8215   10.0283   23.6064 C   0  0  0  0  0  0  0  0  0  0  0  0
    7.5992   11.9682   24.3677 C   0  0  0  0  0  0  0  0  0  0  0  0
    9.9357   10.8290   23.3551 C   0  0  0  0  0  0  0  0  0  0  0  0
    8.7133   12.7689   24.1164 C   0  0  0  0  0  0  0  0  0  0  0  0
    9.8816   12.1993   23.6101 C   0  0  0  0  0  0  0  0  0  0  0  0
    8.6152   14.2322   24.4049 C   0  0  0  0  0  0  0  0  0  0  0  0
    7.5061   14.9360   23.6208 C   0  0  0  0  0  0  0  0  0  0  0  0
    6.3277   15.6457   21.3495 N   0  0  0  0  0  0  0  0  0  0  0  0
    8.8919   15.4835   21.4744 O   0  0  0  0  0  0  0  0  0  0  0  0
    7.5102   13.3685   21.5303 O   0  0  0  0  0  0  0  0  0  0  0  0
    7.6923   14.7681   21.8733 S   0  0  0  0  0  0  0  0  0  0  0  0
   11.2799   13.1581   23.2865 Cl  0  0  0  0  0  0  0  0  0  0  0  0
    6.7855    9.9743   24.3076 H   0  0  0  0  0  0  0  0  0  0  0  0
    8.8629    8.9615   23.4069 H   0  0  0  0  0  0  0  0  0  0  0  0
    6.6838   12.4019   24.7618 H   0  0  0  0  0  0  0  0  0  0  0  0
   10.8381   10.3698   22.9594 H   0  0  0  0  0  0  0  0  0  0  0  0
    9.5731   14.7172   24.1535 H   0  0  0  0  0  0  0  0  0  0  0  0
    8.4695   14.4134   25.4828 H   0  0  0  0  0  0  0  0  0  0  0  0
    6.5322   14.4980   23.8618 H   0  0  0  0  0  0  0  0  0  0  0  0
    7.4649   16.0076   23.8384 H   0  0  0  0  0  0  0  0  0  0  0  0
    5.4021   15.2264   21.5012 H   0  0  0  0  0  0  0  0  0  0  0  0
    6.3433   16.6667   21.4631 H   0  0  0  0  0  0  0  0  0  0  0  0
  1  2  1  0  0  0  0
  1  3  2  0  0  0  0
  2  4  2  0  0  0  0
  3  5  1  0  0  0  0
  4  6  1  0  0  0  0
  5  6  2  0  0  0  0
  5  7  1  0  0  0  0
  6 13  1  0  0  0  0
  7  8  1  0  0  0  0
  8 12  1  0  0  0  0
  9 12  1  0  0  0  0
 10 12  2  0  0  0  0
 11 12  2  0  0  0  0
  1 14  1  0  0  0  0
  2 15  1  0  0  0  0
  3 16  1  0  0  0  0
  4 17  1  0  0  0  0
  7 18  1  0  0  0  0
  7 19  1  0  0  0  0
  8 20  1  0  0  0  0
  8 21  1  0  0  0  0
  9 22  1  0  0  0  0
  9 23  1  0  0  0  0
M  END
> <Mol Weight>
219,68

> <Formula>
C8H10ClNO2S

> <ID>
EN300-283802

> <name>
Sulfonamides

> <LogP>
1,23

> <ROCS_ShapeQuery>
x0446_0A_x1080_0A_x0929_0A_x0812_0A_x0719_0A_x1140_0A_x0528_0A_x0310_0A

> <ROCS_TanimotoCombo>
0.342 

> <ROCS_ShapeTanimoto>
0.190 

> <ROCS_ColorTanimoto>
0.151 

> <ROCS_RefTversky>
0.175 

> <ROCS_RefColorTversky>
0.152 

> <ROCS_RefTverskyCombo>
0.327 

> <ROCS_FitTversky>
1.849 

> <ROCS_FitColorTversky>
0.956 

> <ROCS_FitTverskyCombo>
2.805 

> <ROCS_ColorScore>
-5.412

> <ROCS_Overlap>
2063.763

> <ROCS_Rank>
234                 

$$$$
untitled-dbase-1252_25
  -OEChem-02082415043D

 21 21  0     0  0  0  0  0  0999 V2000
    6.5183   11.8047   24.8447 C   0  0  0  0  0  0  0  0  0  0  0  0
    8.1823   10.6783   23.4509 C   0  0  0  0  0  0  0  0  0  0  0  0
    9.4117   10.6766   22.7921 C   0  0  0  0  0  0  0  0  0  0  0  0
    8.6029   12.9261   24.2303 C   0  0  0  0  0  0  0  0  0  0  0  0
    7.7779   11.8030   24.1700 C   0  0  0  0  0  0  0  0  0  0  0  0
    9.8324   12.9245   23.5714 C   0  0  0  0  0  0  0  0  0  0  0  0
   10.2368   11.7997   22.8523 C   0  0  0  0  0  0  0  0  0  0  0  0
   10.7134   14.1261   23.6380 C   0  0  0  0  0  0  0  0  0  0  0  0
    5.4953   11.8060   25.3927 N   0  0  0  0  0  0  0  0  0  0  0  0
   11.2228   13.6883   21.0690 N   0  0  0  0  0  0  0  0  0  0  0  0
    9.2478   15.1876   21.7532 O   0  0  0  0  0  0  0  0  0  0  0  0
   11.6107   16.0218   22.0795 O   0  0  0  0  0  0  0  0  0  0  0  0
   11.4166   11.7885   22.2162 F   0  0  0  0  0  0  0  0  0  0  0  0
   10.6429   14.9379   22.0738 S   0  0  0  0  0  0  0  0  0  0  0  0
    7.5502    9.7953   23.3941 H   0  0  0  0  0  0  0  0  0  0  0  0
    9.7272    9.8021   22.2308 H   0  0  0  0  0  0  0  0  0  0  0  0
    8.2930   13.8062   24.7902 H   0  0  0  0  0  0  0  0  0  0  0  0
   11.7592   13.8647   23.8354 H   0  0  0  0  0  0  0  0  0  0  0  0
   10.3865   14.8397   24.4030 H   0  0  0  0  0  0  0  0  0  0  0  0
   12.2194   13.4468   21.1332 H   0  0  0  0  0  0  0  0  0  0  0  0
   10.6101   12.8789   20.9109 H   0  0  0  0  0  0  0  0  0  0  0  0
  1  5  1  0  0  0  0
  1  9  3  0  0  0  0
  2  3  2  0  0  0  0
  2  5  1  0  0  0  0
  3  7  1  0  0  0  0
  4  5  2  0  0  0  0
  4  6  1  0  0  0  0
  6  7  2  0  0  0  0
  6  8  1  0  0  0  0
  7 13  1  0  0  0  0
  8 14  1  0  0  0  0
 10 14  1  0  0  0  0
 11 14  2  0  0  0  0
 12 14  2  0  0  0  0
  2 15  1  0  0  0  0
  3 16  1  0  0  0  0
  4 17  1  0  0  0  0
  8 18  1  0  0  0  0
  8 19  1  0  0  0  0
 10 20  1  0  0  0  0
 10 21  1  0  0  0  0
M  END
> <Mol Weight>
214,21

> <Formula>
C8H7FN2O2S

> <ID>
EN300-89828

> <name>
Sulfonamides

> <LogP>
0,34

> <ROCS_ShapeQuery>
x0446_0A_x1080_0A_x0929_0A_x0812_0A_x0719_0A_x1140_0A_x0528_0A_x0310_0A

> <ROCS_TanimotoCombo>
0.342 

> <ROCS_ShapeTanimoto>
0.200 

> <ROCS_ColorTanimoto>
0.142 

> <ROCS_RefTversky>
0.183 

> <ROCS_RefColorTversky>
0.147 

> <ROCS_RefTverskyCombo>
0.330 

> <ROCS_FitTversky>
1.831 

> <ROCS_FitColorTversky>
0.793 

> <ROCS_FitTverskyCombo>
2.624 

> <ROCS_ColorScore>
-5.243

> <ROCS_Overlap>
2158.864

> <ROCS_Rank>
235                 

$$$$
untitled-dbase-1471_21
  -OEChem-02082415043D

 22 22  0     0  0  0  0  0  0999 V2000
    9.7704   11.1413   22.9446 C   0  0  0  0  0  0  0  0  0  0  0  0
    9.1623   12.2775   23.4198 C   0  0  0  0  0  0  0  0  0  0  0  0
    8.0913   11.8031   24.2007 C   0  0  0  0  0  0  0  0  0  0  0  0
    9.3143    8.6938   23.2284 C   0  0  0  0  0  0  0  0  0  0  0  0
    7.5601   11.8928   27.6130 C   0  0  0  0  0  0  0  0  0  0  0  0
    8.0203   10.4695   24.2227 N   0  0  0  0  0  0  0  0  0  0  0  0
    9.0543   10.0962   23.4497 N   0  0  0  0  0  0  0  0  0  0  0  0
    7.6894   12.9530   26.6032 N   0  0  0  0  0  0  0  0  0  0  0  0
    9.5693   13.5942   23.1498 N   0  3  0  0  0  0  0  0  0  0  0  0
    9.0978   14.1995   22.1473 O   0  5  0  0  0  0  0  0  0  0  0  0
   10.4025   14.1582   23.9123 O   0  0  0  0  0  0  0  0  0  0  0  0
    6.8605   14.0911   24.4458 O   0  0  0  0  0  0  0  0  0  0  0  0
    5.7245   11.9937   25.2423 O   0  0  0  0  0  0  0  0  0  0  0  0
    6.9254   12.7922   25.0879 S   0  0  0  0  0  0  0  0  0  0  0  0
   10.6309   10.9874   22.3073 H   0  0  0  0  0  0  0  0  0  0  0  0
    9.9916    8.3483   24.0140 H   0  0  0  0  0  0  0  0  0  0  0  0
    8.3727    8.1388   23.2642 H   0  0  0  0  0  0  0  0  0  0  0  0
    9.7706    8.5618   22.2434 H   0  0  0  0  0  0  0  0  0  0  0  0
    7.3573   10.9335   27.1144 H   0  0  0  0  0  0  0  0  0  0  0  0
    8.4955   11.8171   28.1868 H   0  0  0  0  0  0  0  0  0  0  0  0
    6.7307   12.1344   28.2941 H   0  0  0  0  0  0  0  0  0  0  0  0
    7.8808   13.8964   26.9622 H   0  0  0  0  0  0  0  0  0  0  0  0
  1  2  2  0  0  0  0
  1  7  1  0  0  0  0
  2  3  1  0  0  0  0
  2  9  1  0  0  0  0
  3  6  2  0  0  0  0
  3 14  1  0  0  0  0
  4  7  1  0  0  0  0
  5  8  1  0  0  0  0
  6  7  1  0  0  0  0
  8 14  1  0  0  0  0
  9 10  1  0  0  0  0
  9 11  2  0  0  0  0
 12 14  2  0  0  0  0
 13 14  2  0  0  0  0
  1 15  1  0  0  0  0
  4 16  1  0  0  0  0
  4 17  1  0  0  0  0
  4 18  1  0  0  0  0
  5 19  1  0  0  0  0
  5 20  1  0  0  0  0
  5 21  1  0  0  0  0
  8 22  1  0  0  0  0
M  CHG  2   9   1  10  -1
M  END
> <Mol Weight>
220,20

> <Formula>
C5H8N4O4S

> <ID>
EN300-6498782

> <name>
Sulfonamides

> <LogP>
-0,23

> <ROCS_ShapeQuery>
x0446_0A_x1080_0A_x0929_0A_x0812_0A_x0719_0A_x1140_0A_x0528_0A_x0310_0A

> <ROCS_TanimotoCombo>
0.342 

> <ROCS_ShapeTanimoto>
0.196 

> <ROCS_ColorTanimoto>
0.145 

> <ROCS_RefTversky>
0.180 

> <ROCS_RefColorTversky>
0.157 

> <ROCS_RefTverskyCombo>
0.338 

> <ROCS_FitTversky>
1.783 

> <ROCS_FitColorTversky>
0.658 

> <ROCS_FitTverskyCombo>
2.442 

> <ROCS_ColorScore>
-5.615

> <ROCS_Overlap>
2128.597

> <ROCS_Rank>
236                 

$$$$
untitled-dbase-1151_19
  -OEChem-02082415043D

 24 24  0     0  0  0  0  0  0999 V2000
    7.0810   13.4973   24.5134 C   0  0  0  0  0  0  0  0  0  0  0  0
    8.5060   10.0944   24.0676 C   0  0  0  0  0  0  0  0  0  0  0  0
    9.7371   10.3842   23.4794 C   0  0  0  0  0  0  0  0  0  0  0  0
    7.6339   11.1291   24.4062 C   0  0  0  0  0  0  0  0  0  0  0  0
   10.0962   11.7088   23.2299 C   0  0  0  0  0  0  0  0  0  0  0  0
    7.9930   12.4536   24.1567 C   0  0  0  0  0  0  0  0  0  0  0  0
    9.2242   12.7435   23.5686 C   0  0  0  0  0  0  0  0  0  0  0  0
   12.2484   14.1047   21.6044 C   0  0  0  0  0  0  0  0  0  0  0  0
    9.6436   14.1531   23.2858 C   0  0  0  0  0  0  0  0  0  0  0  0
    6.3414   14.3436   24.8026 N   0  0  0  0  0  0  0  0  0  0  0  0
   10.9704   13.6821   21.0039 N   0  0  0  0  0  0  0  0  0  0  0  0
    8.3835   13.6549   21.0466 O   0  0  0  0  0  0  0  0  0  0  0  0
    9.6137   15.8413   21.2973 O   0  0  0  0  0  0  0  0  0  0  0  0
    9.5204   14.4130   21.5310 S   0  0  0  0  0  0  0  0  0  0  0  0
    8.2266    9.0630   24.2618 H   0  0  0  0  0  0  0  0  0  0  0  0
   10.4160    9.5785   23.2158 H   0  0  0  0  0  0  0  0  0  0  0  0
    6.6780   10.8857   24.8641 H   0  0  0  0  0  0  0  0  0  0  0  0
   11.0578   11.9236   22.7713 H   0  0  0  0  0  0  0  0  0  0  0  0
   12.2133   15.1823   21.8221 H   0  0  0  0  0  0  0  0  0  0  0  0
   12.4168   13.5475   22.5377 H   0  0  0  0  0  0  0  0  0  0  0  0
   13.0693   13.8993   20.9015 H   0  0  0  0  0  0  0  0  0  0  0  0
   10.6782   14.3410   23.5864 H   0  0  0  0  0  0  0  0  0  0  0  0
    8.9970   14.8809   23.7842 H   0  0  0  0  0  0  0  0  0  0  0  0
   10.9290   12.6811   20.7721 H   0  0  0  0  0  0  0  0  0  0  0  0
  1  6  1  0  0  0  0
  1 10  3  0  0  0  0
  2  3  1  0  0  0  0
  2  4  2  0  0  0  0
  3  5  2  0  0  0  0
  4  6  1  0  0  0  0
  5  7  1  0  0  0  0
  6  7  2  0  0  0  0
  7  9  1  0  0  0  0
  8 11  1  0  0  0  0
  9 14  1  0  0  0  0
 11 14  1  0  0  0  0
 12 14  2  0  0  0  0
 13 14  2  0  0  0  0
  2 15  1  0  0  0  0
  3 16  1  0  0  0  0
  4 17  1  0  0  0  0
  5 18  1  0  0  0  0
  8 19  1  0  0  0  0
  8 20  1  0  0  0  0
  8 21  1  0  0  0  0
  9 22  1  0  0  0  0
  9 23  1  0  0  0  0
 11 24  1  0  0  0  0
M  END
> <Mol Weight>
210,25

> <Formula>
C9H10N2O2S

> <ID>
EN300-23900

> <name>
Sulfonamides

> <LogP>
0,42

> <ROCS_ShapeQuery>
x0446_0A_x1080_0A_x0929_0A_x0812_0A_x0719_0A_x1140_0A_x0528_0A_x0310_0A

> <ROCS_TanimotoCombo>
0.341 

> <ROCS_ShapeTanimoto>
0.201 

> <ROCS_ColorTanimoto>
0.141 

> <ROCS_RefTversky>
0.184 

> <ROCS_RefColorTversky>
0.146 

> <ROCS_RefTverskyCombo>
0.330 

> <ROCS_FitTversky>
1.851 

> <ROCS_FitColorTversky>
0.787 

> <ROCS_FitTverskyCombo>
2.638 

> <ROCS_ColorScore>
-5.203

> <ROCS_Overlap>
2168.037

> <ROCS_Rank>
237                 

$$$$
untitled-dbase-2571_85
  -OEChem-02082415043D

 29 29  0     0  0  0  0  0  0999 V2000
    8.1564   10.3675   23.5816 C   0  0  0  0  0  0  0  0  0  0  0  0
    7.7463   11.5680   24.1613 C   0  0  0  0  0  0  0  0  0  0  0  0
    9.7520   11.5689   22.2223 C   0  0  0  0  0  0  0  0  0  0  0  0
    9.1594   10.3679   22.6121 C   0  0  0  0  0  0  0  0  0  0  0  0
    8.3390   12.7690   23.7715 C   0  0  0  0  0  0  0  0  0  0  0  0
    9.3419   12.7695   22.8020 C   0  0  0  0  0  0  0  0  0  0  0  0
    9.5863    9.1157   22.0083 C   0  0  0  0  0  0  0  0  0  0  0  0
    7.8842   14.0026   24.3993 C   0  0  0  0  0  0  0  0  0  0  0  0
   11.4574    7.6724   21.6792 C   0  0  0  0  0  0  0  0  0  0  0  0
    8.5807   15.8652   25.7138 C   0  0  0  0  0  0  0  0  0  0  0  0
   11.2140   13.6621   21.1277 N   0  0  0  0  0  0  0  0  0  0  0  0
    8.8436    8.3555   21.3729 O   0  0  0  0  0  0  0  0  0  0  0  0
    6.7226   14.4238   24.3492 O   0  0  0  0  0  0  0  0  0  0  0  0
    9.1117   15.0730   21.6128 O   0  0  0  0  0  0  0  0  0  0  0  0
   10.8553   14.8001   23.4110 O   0  0  0  0  0  0  0  0  0  0  0  0
   10.9159    8.8788   22.2277 O   0  0  0  0  0  0  0  0  0  0  0  0
    8.9039   14.6370   25.0530 O   0  0  0  0  0  0  0  0  0  0  0  0
   10.1094   14.2565   22.2865 S   0  0  0  0  0  0  0  0  0  0  0  0
    7.6875    9.4374   23.8926 H   0  0  0  0  0  0  0  0  0  0  0  0
    6.9637   11.5544   24.9158 H   0  0  0  0  0  0  0  0  0  0  0  0
   10.5339   11.5677   21.4662 H   0  0  0  0  0  0  0  0  0  0  0  0
   12.5201    7.6046   21.9243 H   0  0  0  0  0  0  0  0  0  0  0  0
   11.3219    7.6712   20.5947 H   0  0  0  0  0  0  0  0  0  0  0  0
   10.9309    6.8179   22.1110 H   0  0  0  0  0  0  0  0  0  0  0  0
    9.4758   16.2679   26.1941 H   0  0  0  0  0  0  0  0  0  0  0  0
    7.8034   15.6846   26.4606 H   0  0  0  0  0  0  0  0  0  0  0  0
    8.2135   16.5808   24.9743 H   0  0  0  0  0  0  0  0  0  0  0  0
   11.0233   13.8566   20.1372 H   0  0  0  0  0  0  0  0  0  0  0  0
   12.2129   13.6690   21.3673 H   0  0  0  0  0  0  0  0  0  0  0  0
  1  2  2  0  0  0  0
  1  4  1  0  0  0  0
  2  5  1  0  0  0  0
  3  4  2  0  0  0  0
  3  6  1  0  0  0  0
  4  7  1  0  0  0  0
  5  6  2  0  0  0  0
  5  8  1  0  0  0  0
  6 18  1  0  0  0  0
  7 12  2  0  0  0  0
  7 16  1  0  0  0  0
  8 13  2  0  0  0  0
  8 17  1  0  0  0  0
  9 16  1  0  0  0  0
 10 17  1  0  0  0  0
 11 18  1  0  0  0  0
 14 18  2  0  0  0  0
 15 18  2  0  0  0  0
  1 19  1  0  0  0  0
  2 20  1  0  0  0  0
  3 21  1  0  0  0  0
  9 22  1  0  0  0  0
  9 23  1  0  0  0  0
  9 24  1  0  0  0  0
 10 25  1  0  0  0  0
 10 26  1  0  0  0  0
 10 27  1  0  0  0  0
 11 28  1  0  0  0  0
 11 29  1  0  0  0  0
M  END
> <Mol Weight>
273,26

> <Formula>
C10H11NO6S

> <ID>
EN300-1617535

> <name>
Sulfonamides

> <LogP>
0,59

> <ROCS_ShapeQuery>
x0446_0A_x1080_0A_x0929_0A_x0812_0A_x0719_0A_x1140_0A_x0528_0A_x0310_0A

> <ROCS_TanimotoCombo>
0.341 

> <ROCS_ShapeTanimoto>
0.202 

> <ROCS_ColorTanimoto>
0.140 

> <ROCS_RefTversky>
0.187 

> <ROCS_RefColorTversky>
0.148 

> <ROCS_RefTverskyCombo>
0.336 

> <ROCS_FitTversky>
1.626 

> <ROCS_FitColorTversky>
0.699 

> <ROCS_FitTverskyCombo>
2.325 

> <ROCS_ColorScore>
-5.289

> <ROCS_Overlap>
2210.824

> <ROCS_Rank>
238                 

$$$$
untitled-dbase-2460_841
  -OEChem-02082415043D

 37 37  0     1  0  0  0  0  0999 V2000
    7.9622   12.5143   24.9915 C   0  0  0  0  0  0  0  0  0  0  0  0
   10.1647   10.8700   22.6949 C   0  0  0  0  0  0  0  0  0  0  0  0
    9.7477   11.4554   21.3448 C   0  0  0  0  0  0  0  0  0  0  0  0
    8.9710   10.7016   23.6292 C   0  0  0  0  0  0  0  0  0  0  0  0
    7.7380   12.5114   22.4709 C   0  0  0  0  0  0  0  0  0  0  0  0
    8.8906   12.7161   21.4872 C   0  0  1  0  0  0  0  0  0  0  0  0
    8.9356   14.4990   26.4060 C   0  0  0  0  0  0  0  0  0  0  0  0
    7.2580   16.0276   25.3297 C   0  0  0  0  0  0  0  0  0  0  0  0
    6.5146   14.3931   27.0859 C   0  0  0  0  0  0  0  0  0  0  0  0
    7.4890   14.6452   25.9362 C   0  0  0  0  0  0  0  0  0  0  0  0
    8.2128   11.9462   23.7391 N   0  0  0  0  0  0  0  0  0  0  0  0
   11.2491   13.8288   20.9860 N   0  0  0  0  0  0  0  0  0  0  0  0
    8.3422   12.0352   26.0584 O   0  0  0  0  0  0  0  0  0  0  0  0
    9.2038   15.3103   21.4748 O   0  0  0  0  0  0  0  0  0  0  0  0
   10.2369   13.9638   23.3470 O   0  0  0  0  0  0  0  0  0  0  0  0
    7.2432   13.6771   24.9096 O   0  0  0  0  0  0  0  0  0  0  0  0
    9.8764   14.1183   21.9518 S   0  0  0  0  0  0  0  0  0  0  0  0
   10.6479    9.8988   22.5377 H   0  0  0  0  0  0  0  0  0  0  0  0
   10.9111   11.5188   23.1680 H   0  0  0  0  0  0  0  0  0  0  0  0
   10.6409   11.6593   20.7428 H   0  0  0  0  0  0  0  0  0  0  0  0
    9.1676   10.6976   20.8027 H   0  0  0  0  0  0  0  0  0  0  0  0
    8.2874    9.9373   23.2410 H   0  0  0  0  0  0  0  0  0  0  0  0
    9.3133   10.3655   24.6130 H   0  0  0  0  0  0  0  0  0  0  0  0
    7.1990   13.4498   22.6295 H   0  0  0  0  0  0  0  0  0  0  0  0
    7.0193   11.7931   22.0580 H   0  0  0  0  0  0  0  0  0  0  0  0
    8.4814   12.9803   20.5048 H   0  0  0  0  0  0  0  0  0  0  0  0
    9.1054   13.5080   26.8420 H   0  0  0  0  0  0  0  0  0  0  0  0
    9.6434   14.6429   25.5832 H   0  0  0  0  0  0  0  0  0  0  0  0
    9.1666   15.2264   27.1926 H   0  0  0  0  0  0  0  0  0  0  0  0
    6.2213   16.1369   24.9913 H   0  0  0  0  0  0  0  0  0  0  0  0
    7.8886   16.1763   24.4458 H   0  0  0  0  0  0  0  0  0  0  0  0
    7.4741   16.8251   26.0480 H   0  0  0  0  0  0  0  0  0  0  0  0
    5.4769   14.4979   26.7491 H   0  0  0  0  0  0  0  0  0  0  0  0
    6.6410   13.3915   27.5094 H   0  0  0  0  0  0  0  0  0  0  0  0
    6.6561   15.1296   27.8852 H   0  0  0  0  0  0  0  0  0  0  0  0
   11.8632   13.0474   21.2465 H   0  0  0  0  0  0  0  0  0  0  0  0
   11.1595   13.9647   19.9715 H   0  0  0  0  0  0  0  0  0  0  0  0
  1 11  1  0  0  0  0
  1 13  2  0  0  0  0
  1 16  1  0  0  0  0
  2  3  1  0  0  0  0
  2  4  1  0  0  0  0
  3  6  1  0  0  0  0
  4 11  1  0  0  0  0
  5  6  1  0  0  0  0
  5 11  1  0  0  0  0
  6 17  1  6  0  0  0
  7 10  1  0  0  0  0
  8 10  1  0  0  0  0
  9 10  1  0  0  0  0
 10 16  1  0  0  0  0
 12 17  1  0  0  0  0
 14 17  2  0  0  0  0
 15 17  2  0  0  0  0
  2 18  1  0  0  0  0
  2 19  1  0  0  0  0
  3 20  1  0  0  0  0
  3 21  1  0  0  0  0
  4 22  1  0  0  0  0
  4 23  1  0  0  0  0
  5 24  1  0  0  0  0
  5 25  1  0  0  0  0
  6 26  1  0  0  0  0
  7 27  1  0  0  0  0
  7 28  1  0  0  0  0
  7 29  1  0  0  0  0
  8 30  1  0  0  0  0
  8 31  1  0  0  0  0
  8 32  1  0  0  0  0
  9 33  1  0  0  0  0
  9 34  1  0  0  0  0
  9 35  1  0  0  0  0
 12 36  1  0  0  0  0
 12 37  1  0  0  0  0
M  END
> <Mol Weight>
264,34

> <Formula>
C10H20N2O4S

> <ID>
EN300-6739995

> <name>
Sulfonamides

> <LogP>
0,15

> <ROCS_ShapeQuery>
x0446_0A_x1080_0A_x0929_0A_x0812_0A_x0719_0A_x1140_0A_x0528_0A_x0310_0A

> <ROCS_TanimotoCombo>
0.341 

> <ROCS_ShapeTanimoto>
0.182 

> <ROCS_ColorTanimoto>
0.159 

> <ROCS_RefTversky>
0.171 

> <ROCS_RefColorTversky>
0.166 

> <ROCS_RefTverskyCombo>
0.337 

> <ROCS_FitTversky>
1.561 

> <ROCS_FitColorTversky>
0.784 

> <ROCS_FitTverskyCombo>
2.346 

> <ROCS_ColorScore>
-5.932

> <ROCS_Overlap>
2016.937

> <ROCS_Rank>
239                 

$$$$
untitled-dbase-720_70
  -OEChem-02082415043D

 25 25  0     1  0  0  0  0  0999 V2000
    9.1917    9.6842   24.5147 C   0  0  0  0  0  0  0  0  0  0  0  0
   10.1995   10.5794   23.8159 C   0  0  0  0  0  0  0  0  0  0  0  0
    7.5360   11.3326   24.2936 C   0  0  0  0  0  0  0  0  0  0  0  0
    8.5247   12.2717   23.6063 C   0  0  2  0  0  0  0  0  0  0  0  0
    8.3880   12.2633   22.0850 C   0  0  0  0  0  0  0  0  0  0  0  0
    9.6596   12.7498   21.4105 C   0  0  0  0  0  0  0  0  0  0  0  0
   11.4923   14.6295   21.0114 N   0  0  0  0  0  0  0  0  0  0  0  0
    9.0391   15.2880   21.4178 O   0  0  0  0  0  0  0  0  0  0  0  0
   10.4078   14.3593   23.3282 O   0  0  0  0  0  0  0  0  0  0  0  0
    7.8776    9.9699   24.0331 O   0  0  0  0  0  0  0  0  0  0  0  0
    9.8629   11.9542   24.0089 O   0  0  0  0  0  0  0  0  0  0  0  0
   10.0671   14.3905   21.9163 S   0  0  0  0  0  0  0  0  0  0  0  0
    9.4103    8.6246   24.3358 H   0  0  0  0  0  0  0  0  0  0  0  0
    9.2061    9.8596   25.5948 H   0  0  0  0  0  0  0  0  0  0  0  0
   11.2153   10.4087   24.1998 H   0  0  0  0  0  0  0  0  0  0  0  0
   10.2088   10.3783   22.7375 H   0  0  0  0  0  0  0  0  0  0  0  0
    7.5506   11.4819   25.3813 H   0  0  0  0  0  0  0  0  0  0  0  0
    6.5063   11.5062   23.9472 H   0  0  0  0  0  0  0  0  0  0  0  0
    8.3224   13.3232   23.9650 H   0  0  0  0  0  0  0  0  0  0  0  0
    7.5433   12.8980   21.7933 H   0  0  0  0  0  0  0  0  0  0  0  0
    8.1506   11.2477   21.7477 H   0  0  0  0  0  0  0  0  0  0  0  0
   10.5142   12.1167   21.6671 H   0  0  0  0  0  0  0  0  0  0  0  0
    9.5505   12.7706   20.3221 H   0  0  0  0  0  0  0  0  0  0  0  0
   12.3319   14.1098   21.2954 H   0  0  0  0  0  0  0  0  0  0  0  0
   11.3996   14.7425   19.9944 H   0  0  0  0  0  0  0  0  0  0  0  0
  1  2  1  0  0  0  0
  1 10  1  0  0  0  0
  2 11  1  0  0  0  0
  3  4  1  0  0  0  0
  3 10  1  0  0  0  0
  4  5  1  0  0  0  0
  4 11  1  0  0  0  0
  5  6  1  0  0  0  0
  6 12  1  0  0  0  0
  7 12  1  0  0  0  0
  8 12  2  0  0  0  0
  9 12  2  0  0  0  0
  1 13  1  0  0  0  0
  1 14  1  0  0  0  0
  2 15  1  0  0  0  0
  2 16  1  0  0  0  0
  3 17  1  0  0  0  0
  3 18  1  0  0  0  0
  4 19  1  0  0  0  0
  5 20  1  0  0  0  0
  5 21  1  0  0  0  0
  6 22  1  0  0  0  0
  6 23  1  0  0  0  0
  7 24  1  0  0  0  0
  7 25  1  0  0  0  0
M  END
> <Mol Weight>
195,23

> <Formula>
C6H13NO4S

> <ID>
EN300-1699658

> <name>
Sulfonamides

> <LogP>
-1,53

> <ROCS_ShapeQuery>
x0446_0A_x1080_0A_x0929_0A_x0812_0A_x0719_0A_x1140_0A_x0528_0A_x0310_0A

> <ROCS_TanimotoCombo>
0.341 

> <ROCS_ShapeTanimoto>
0.167 

> <ROCS_ColorTanimoto>
0.174 

> <ROCS_RefTversky>
0.156 

> <ROCS_RefColorTversky>
0.180 

> <ROCS_RefTverskyCombo>
0.336 

> <ROCS_FitTversky>
1.711 

> <ROCS_FitColorTversky>
0.847 

> <ROCS_FitTverskyCombo>
2.558 

> <ROCS_ColorScore>
-6.410

> <ROCS_Overlap>
1840.759

> <ROCS_Rank>
240                 

$$$$
untitled-dbase-2401_2390
  -OEChem-02082415043D

 36 37  0     1  0  0  0  0  0999 V2000
   10.2420   13.1600   23.1342 C   0  0  0  0  0  0  0  0  0  0  0  0
   12.4311   16.2734   21.9560 C   0  0  0  0  0  0  0  0  0  0  0  0
    7.7718   10.4490   22.6156 C   0  0  0  0  0  0  0  0  0  0  0  0
   12.7515   14.9839   22.7420 C   0  0  0  0  0  0  0  0  0  0  0  0
   11.2454   15.5083   21.3300 C   0  0  0  0  0  0  0  0  0  0  0  0
    7.5034   10.0201   24.0590 C   0  0  0  0  0  0  0  0  0  0  0  0
    9.1983   10.9556   22.4457 C   0  0  0  0  0  0  0  0  0  0  0  0
    9.3313   11.6088   24.8179 C   0  0  0  0  0  0  0  0  0  0  0  0
   12.0353   14.2113   21.6125 C   0  0  0  0  0  0  0  0  0  0  0  0
    7.9174   11.0861   25.0764 C   0  0  1  0  0  0  0  0  0  0  0  0
    9.5111   12.0063   23.4193 N   0  0  0  0  0  0  0  0  0  0  0  0
    7.4777   13.4018   26.3029 N   0  0  0  0  0  0  0  0  0  0  0  0
   11.1818   13.1189   22.1169 N   0  0  0  0  0  0  0  0  0  0  0  0
   10.0529   14.2273   23.7321 O   0  0  0  0  0  0  0  0  0  0  0  0
    6.8135   13.1056   23.8356 O   0  0  0  0  0  0  0  0  0  0  0  0
    5.4966   11.9062   25.6280 O   0  0  0  0  0  0  0  0  0  0  0  0
    6.7490   12.4243   25.1135 S   0  0  0  0  0  0  0  0  0  0  0  0
   12.1696   17.1463   22.5590 H   0  0  0  0  0  0  0  0  0  0  0  0
   13.2059   16.5547   21.2337 H   0  0  0  0  0  0  0  0  0  0  0  0
    7.5991    9.6020   21.9451 H   0  0  0  0  0  0  0  0  0  0  0  0
    7.0667   11.2341   22.3251 H   0  0  0  0  0  0  0  0  0  0  0  0
   13.8147   14.7634   22.8689 H   0  0  0  0  0  0  0  0  0  0  0  0
   12.2577   14.9325   23.7198 H   0  0  0  0  0  0  0  0  0  0  0  0
   10.3109   15.6103   21.8947 H   0  0  0  0  0  0  0  0  0  0  0  0
   11.0496   15.7254   20.2767 H   0  0  0  0  0  0  0  0  0  0  0  0
    6.4453    9.7620   24.1746 H   0  0  0  0  0  0  0  0  0  0  0  0
    8.0766    9.1064   24.2586 H   0  0  0  0  0  0  0  0  0  0  0  0
    9.9195   10.1396   22.6009 H   0  0  0  0  0  0  0  0  0  0  0  0
    9.3409   11.3157   21.4181 H   0  0  0  0  0  0  0  0  0  0  0  0
    9.5834   12.4059   25.5229 H   0  0  0  0  0  0  0  0  0  0  0  0
   10.0572   10.8045   25.0094 H   0  0  0  0  0  0  0  0  0  0  0  0
   12.6923   13.9166   20.8025 H   0  0  0  0  0  0  0  0  0  0  0  0
    7.8704   10.6547   26.0832 H   0  0  0  0  0  0  0  0  0  0  0  0
    7.4498   13.0743   27.2764 H   0  0  0  0  0  0  0  0  0  0  0  0
    8.3465   13.8912   26.0555 H   0  0  0  0  0  0  0  0  0  0  0  0
   11.3200   12.1991   21.6281 H   0  0  0  0  0  0  0  0  0  0  0  0
  1 11  1  0  0  0  0
  1 13  1  0  0  0  0
  1 14  2  0  0  0  0
  2  4  1  0  0  0  0
  2  5  1  0  0  0  0
  3  6  1  0  0  0  0
  3  7  1  0  0  0  0
  4  9  1  0  0  0  0
  5  9  1  0  0  0  0
  6 10  1  0  0  0  0
  7 11  1  0  0  0  0
  8 10  1  0  0  0  0
  8 11  1  0  0  0  0
  9 13  1  0  0  0  0
 10 17  1  0  0  0  0
 12 17  1  0  0  0  0
 15 17  2  0  0  0  0
 16 17  2  0  0  0  0
  2 18  1  0  0  0  0
  2 19  1  0  0  0  0
  3 20  1  0  0  0  0
  3 21  1  0  0  0  0
  4 22  1  0  0  0  0
  4 23  1  0  0  0  0
  5 24  1  0  0  0  0
  5 25  1  0  0  0  0
  6 26  1  0  0  0  0
  6 27  1  0  0  0  0
  7 28  1  0  0  0  0
  7 29  1  0  0  0  0
  8 30  1  0  0  0  0
  8 31  1  0  0  0  0
  9 32  1  0  0  0  0
 10 33  1  0  0  0  0
 12 34  1  0  0  0  0
 12 35  1  0  0  0  0
 13 36  1  0  0  0  0
M  END
> <Mol Weight>
261,34

> <Formula>
C10H19N3O3S

> <ID>
EN300-396127

> <name>
Sulfonamides

> <LogP>
-0,72

> <ROCS_ShapeQuery>
x0446_0A_x1080_0A_x0929_0A_x0812_0A_x0719_0A_x1140_0A_x0528_0A_x0310_0A

> <ROCS_TanimotoCombo>
0.341 

> <ROCS_ShapeTanimoto>
0.213 

> <ROCS_ColorTanimoto>
0.128 

> <ROCS_RefTversky>
0.195 

> <ROCS_RefColorTversky>
0.141 

> <ROCS_RefTverskyCombo>
0.336 

> <ROCS_FitTversky>
1.778 

> <ROCS_FitColorTversky>
0.589 

> <ROCS_FitTverskyCombo>
2.367 

> <ROCS_ColorScore>
-5.015

> <ROCS_Overlap>
2300.950

> <ROCS_Rank>
241                 

$$$$
untitled-dbase-1727_181
  -OEChem-02082415043D

 30 31  0     1  0  0  0  0  0999 V2000
    5.5978   12.6191   25.6444 C   0  0  0  0  0  0  0  0  0  0  0  0
    6.5825   13.4577   25.1756 C   0  0  0  0  0  0  0  0  0  0  0  0
    6.9605   11.3528   24.5922 C   0  0  0  0  0  0  0  0  0  0  0  0
    7.6522   10.2128   23.9303 C   0  0  0  0  0  0  0  0  0  0  0  0
    9.1056   10.5483   23.5842 C   0  0  0  0  0  0  0  0  0  0  0  0
    8.6811   13.0169   23.8649 C   0  0  0  0  0  0  0  0  0  0  0  0
    9.2073   11.9297   22.9146 C   0  0  1  0  0  0  0  0  0  0  0  0
   12.1421   15.4358   21.0328 C   0  0  0  0  0  0  0  0  0  0  0  0
   10.6430   12.2320   22.4947 C   0  0  0  0  0  0  0  0  0  0  0  0
    5.8363   11.3164   25.2792 N   0  0  0  0  0  0  0  0  0  0  0  0
    7.4392   12.6359   24.5075 N   0  0  0  0  0  0  0  0  0  0  0  0
   10.6506   13.2470   21.4952 N   0  0  0  0  0  0  0  0  0  0  0  0
   10.9996   15.0236   23.3512 O   0  0  0  0  0  0  0  0  0  0  0  0
    9.5612   15.6159   21.3671 O   0  0  0  0  0  0  0  0  0  0  0  0
   10.6998   14.9210   21.9365 S   0  0  0  0  0  0  0  0  0  0  0  0
    4.7293   12.8869   26.2282 H   0  0  0  0  0  0  0  0  0  0  0  0
    6.7399   14.5234   25.2644 H   0  0  0  0  0  0  0  0  0  0  0  0
    7.6220    9.3302   24.5786 H   0  0  0  0  0  0  0  0  0  0  0  0
    7.1069    9.9606   23.0129 H   0  0  0  0  0  0  0  0  0  0  0  0
    9.7123   10.5377   24.4996 H   0  0  0  0  0  0  0  0  0  0  0  0
    9.5090    9.7701   22.9256 H   0  0  0  0  0  0  0  0  0  0  0  0
    9.3954   13.2147   24.6731 H   0  0  0  0  0  0  0  0  0  0  0  0
    8.5033   13.9508   23.3201 H   0  0  0  0  0  0  0  0  0  0  0  0
    8.5824   11.9201   22.0111 H   0  0  0  0  0  0  0  0  0  0  0  0
   12.3034   16.4989   21.2183 H   0  0  0  0  0  0  0  0  0  0  0  0
   12.9948   14.8527   21.3839 H   0  0  0  0  0  0  0  0  0  0  0  0
   11.9660   15.2552   19.9714 H   0  0  0  0  0  0  0  0  0  0  0  0
   11.1768   12.5656   23.3833 H   0  0  0  0  0  0  0  0  0  0  0  0
   11.0679   11.3080   22.1054 H   0  0  0  0  0  0  0  0  0  0  0  0
   10.0874   13.0550   20.6308 H   0  0  0  0  0  0  0  0  0  0  0  0
  1  2  2  0  0  0  0
  1 10  1  0  0  0  0
  2 11  1  0  0  0  0
  3  4  1  0  0  0  0
  3 10  2  0  0  0  0
  3 11  1  0  0  0  0
  4  5  1  0  0  0  0
  5  7  1  0  0  0  0
  6  7  1  0  0  0  0
  6 11  1  0  0  0  0
  7  9  1  0  0  0  0
  8 15  1  0  0  0  0
  9 12  1  0  0  0  0
 12 15  1  0  0  0  0
 13 15  2  0  0  0  0
 14 15  2  0  0  0  0
  1 16  1  0  0  0  0
  2 17  1  0  0  0  0
  4 18  1  0  0  0  0
  4 19  1  0  0  0  0
  5 20  1  0  0  0  0
  5 21  1  0  0  0  0
  6 22  1  0  0  0  0
  6 23  1  0  0  0  0
  7 24  1  0  0  0  0
  8 25  1  0  0  0  0
  8 26  1  0  0  0  0
  8 27  1  0  0  0  0
  9 28  1  0  0  0  0
  9 29  1  0  0  0  0
 12 30  1  0  0  0  0
M  END
> <Mol Weight>
229,30

> <Formula>
C9H15N3O2S

> <ID>
EN300-158527

> <name>
Sulfonamides

> <LogP>
-0,95

> <ROCS_ShapeQuery>
x0446_0A_x1080_0A_x0929_0A_x0812_0A_x0719_0A_x1140_0A_x0528_0A_x0310_0A

> <ROCS_TanimotoCombo>
0.341 

> <ROCS_ShapeTanimoto>
0.199 

> <ROCS_ColorTanimoto>
0.142 

> <ROCS_RefTversky>
0.184 

> <ROCS_RefColorTversky>
0.154 

> <ROCS_RefTverskyCombo>
0.337 

> <ROCS_FitTversky>
1.762 

> <ROCS_FitColorTversky>
0.644 

> <ROCS_FitTverskyCombo>
2.406 

> <ROCS_ColorScore>
-5.492

> <ROCS_Overlap>
2164.448

> <ROCS_Rank>
242                 

$$$$
untitled-dbase-1762_12
  -OEChem-02082415043D

 24 24  0     0  0  0  0  0  0999 V2000
    7.7341   11.7160   24.4422 C   0  0  0  0  0  0  0  0  0  0  0  0
    8.1492   10.4746   23.9603 C   0  0  0  0  0  0  0  0  0  0  0  0
    9.7335   11.5705   22.5021 C   0  0  0  0  0  0  0  0  0  0  0  0
    8.3186   12.8846   23.9540 C   0  0  0  0  0  0  0  0  0  0  0  0
    9.1489   10.4018   22.9903 C   0  0  0  0  0  0  0  0  0  0  0  0
    9.3183   12.8119   22.9840 C   0  0  0  0  0  0  0  0  0  0  0  0
    7.8586   14.1625   24.4813 C   0  0  0  0  0  0  0  0  0  0  0  0
    8.5482   16.1294   25.6380 C   0  0  0  0  0  0  0  0  0  0  0  0
   11.1792   13.5750   21.2349 N   0  0  0  0  0  0  0  0  0  0  0  0
    6.6943   14.5717   24.4015 O   0  0  0  0  0  0  0  0  0  0  0  0
    9.0706   15.0095   21.6119 O   0  0  0  0  0  0  0  0  0  0  0  0
   10.8222   14.8935   23.4192 O   0  0  0  0  0  0  0  0  0  0  0  0
    9.5534    9.1903   22.5204 O   0  0  0  0  0  0  0  0  0  0  0  0
    8.8765   14.8535   25.0777 O   0  0  0  0  0  0  0  0  0  0  0  0
   10.0754   14.2559   22.3459 S   0  0  0  0  0  0  0  0  0  0  0  0
    6.9541   11.7594   25.1983 H   0  0  0  0  0  0  0  0  0  0  0  0
    7.6894    9.5680   24.3440 H   0  0  0  0  0  0  0  0  0  0  0  0
   10.5121   11.5069   21.7458 H   0  0  0  0  0  0  0  0  0  0  0  0
    9.4424   16.5748   26.0807 H   0  0  0  0  0  0  0  0  0  0  0  0
    7.7744   16.0057   26.3998 H   0  0  0  0  0  0  0  0  0  0  0  0
    8.1744   16.7806   24.8442 H   0  0  0  0  0  0  0  0  0  0  0  0
   10.9837   13.6871   20.2325 H   0  0  0  0  0  0  0  0  0  0  0  0
   12.1789   13.6069   21.4689 H   0  0  0  0  0  0  0  0  0  0  0  0
    9.0562    8.4783   22.9537 H   0  0  0  0  0  0  0  0  0  0  0  0
  1  2  2  0  0  0  0
  1  4  1  0  0  0  0
  2  5  1  0  0  0  0
  3  5  2  0  0  0  0
  3  6  1  0  0  0  0
  4  6  2  0  0  0  0
  4  7  1  0  0  0  0
  5 13  1  0  0  0  0
  6 15  1  0  0  0  0
  7 10  2  0  0  0  0
  7 14  1  0  0  0  0
  8 14  1  0  0  0  0
  9 15  1  0  0  0  0
 11 15  2  0  0  0  0
 12 15  2  0  0  0  0
  1 16  1  0  0  0  0
  2 17  1  0  0  0  0
  3 18  1  0  0  0  0
  8 19  1  0  0  0  0
  8 20  1  0  0  0  0
  8 21  1  0  0  0  0
  9 22  1  0  0  0  0
  9 23  1  0  0  0  0
 13 24  1  0  0  0  0
M  END
> <Mol Weight>
231,22

> <Formula>
C8H9NO5S

> <ID>
EN300-1267268

> <name>
Sulfonamides

> <LogP>
0,28

> <ROCS_ShapeQuery>
x0446_0A_x1080_0A_x0929_0A_x0812_0A_x0719_0A_x1140_0A_x0528_0A_x0310_0A

> <ROCS_TanimotoCombo>
0.341 

> <ROCS_ShapeTanimoto>
0.202 

> <ROCS_ColorTanimoto>
0.139 

> <ROCS_RefTversky>
0.186 

> <ROCS_RefColorTversky>
0.151 

> <ROCS_RefTverskyCombo>
0.337 

> <ROCS_FitTversky>
1.780 

> <ROCS_FitColorTversky>
0.633 

> <ROCS_FitTverskyCombo>
2.413 

> <ROCS_ColorScore>
-5.389

> <ROCS_Overlap>
2191.110

> <ROCS_Rank>
243                 

$$$$
untitled-dbase-1349_10
  -OEChem-02082415043D

 27 28  0     0  0  0  0  0  0999 V2000
    9.8998   10.8592   22.3449 C   0  0  0  0  0  0  0  0  0  0  0  0
    9.4129   11.9877   22.9579 C   0  0  0  0  0  0  0  0  0  0  0  0
    8.4935   11.5035   23.9076 C   0  0  0  0  0  0  0  0  0  0  0  0
    5.5115   12.2196   24.6674 C   0  0  0  0  0  0  0  0  0  0  0  0
    6.5137   13.3280   24.3013 C   0  0  0  0  0  0  0  0  0  0  0  0
    6.5093   11.7710   25.7491 C   0  0  0  0  0  0  0  0  0  0  0  0
    7.6407   12.4259   24.8956 C   0  0  0  0  0  0  0  0  0  0  0  0
    9.4509    8.4107   22.6325 C   0  0  0  0  0  0  0  0  0  0  0  0
    8.3999   10.1711   23.9020 N   0  0  0  0  0  0  0  0  0  0  0  0
    9.2669    9.8085   22.9412 N   0  0  0  0  0  0  0  0  0  0  0  0
   10.9960   13.4284   21.3695 N   0  0  0  0  0  0  0  0  0  0  0  0
    8.6839   14.3246   22.0742 O   0  0  0  0  0  0  0  0  0  0  0  0
   10.5284   14.1913   23.7853 O   0  0  0  0  0  0  0  0  0  0  0  0
    9.8386   13.5994   22.6277 S   0  0  0  0  0  0  0  0  0  0  0  0
   10.6247   10.7179   21.5549 H   0  0  0  0  0  0  0  0  0  0  0  0
    4.5625   12.5965   25.0699 H   0  0  0  0  0  0  0  0  0  0  0  0
    5.2974   11.4893   23.8809 H   0  0  0  0  0  0  0  0  0  0  0  0
    6.5903   13.5114   23.2210 H   0  0  0  0  0  0  0  0  0  0  0  0
    6.3592   14.2864   24.8083 H   0  0  0  0  0  0  0  0  0  0  0  0
    6.3536   12.2071   26.7414 H   0  0  0  0  0  0  0  0  0  0  0  0
    6.5819   10.6799   25.8533 H   0  0  0  0  0  0  0  0  0  0  0  0
    8.3533   13.0304   25.5489 H   0  0  0  0  0  0  0  0  0  0  0  0
   10.2538    8.0278   23.2679 H   0  0  0  0  0  0  0  0  0  0  0  0
    8.5202    7.8697   22.8248 H   0  0  0  0  0  0  0  0  0  0  0  0
    9.7145    8.3055   21.5763 H   0  0  0  0  0  0  0  0  0  0  0  0
   10.7255   13.6979   20.4157 H   0  0  0  0  0  0  0  0  0  0  0  0
   11.9844   13.6052   21.5863 H   0  0  0  0  0  0  0  0  0  0  0  0
  1  2  2  0  0  0  0
  1 10  1  0  0  0  0
  2  3  1  0  0  0  0
  2 14  1  0  0  0  0
  3  7  1  0  0  0  0
  3  9  2  0  0  0  0
  4  5  1  0  0  0  0
  4  6  1  0  0  0  0
  5  7  1  0  0  0  0
  6  7  1  0  0  0  0
  8 10  1  0  0  0  0
  9 10  1  0  0  0  0
 11 14  1  0  0  0  0
 12 14  2  0  0  0  0
 13 14  2  0  0  0  0
  1 15  1  0  0  0  0
  4 16  1  0  0  0  0
  4 17  1  0  0  0  0
  5 18  1  0  0  0  0
  5 19  1  0  0  0  0
  6 20  1  0  0  0  0
  6 21  1  0  0  0  0
  7 22  1  0  0  0  0
  8 23  1  0  0  0  0
  8 24  1  0  0  0  0
  8 25  1  0  0  0  0
 11 26  1  0  0  0  0
 11 27  1  0  0  0  0
M  END
> <Mol Weight>
215,27

> <Formula>
C8H13N3O2S

> <ID>
EN300-1657684

> <name>
Sulfonamides

> <LogP>
0,36

> <ROCS_ShapeQuery>
x0446_0A_x1080_0A_x0929_0A_x0812_0A_x0719_0A_x1140_0A_x0528_0A_x0310_0A

> <ROCS_TanimotoCombo>
0.341 

> <ROCS_ShapeTanimoto>
0.202 

> <ROCS_ColorTanimoto>
0.139 

> <ROCS_RefTversky>
0.185 

> <ROCS_RefColorTversky>
0.148 

> <ROCS_RefTverskyCombo>
0.333 

> <ROCS_FitTversky>
1.842 

> <ROCS_FitColorTversky>
0.696 

> <ROCS_FitTverskyCombo>
2.538 

> <ROCS_ColorScore>
-5.266

> <ROCS_Overlap>
2182.734

> <ROCS_Rank>
244                 

$$$$
untitled-dbase-2600_0
  -OEChem-02082415043D

 20 21  0     0  0  0  0  0  0999 V2000
    9.2942   10.8211   23.1824 C   0  0  0  0  0  0  0  0  0  0  0  0
    9.1140   12.1695   23.3760 C   0  0  0  0  0  0  0  0  0  0  0  0
    7.5245   10.9819   24.3783 C   0  0  0  0  0  0  0  0  0  0  0  0
    6.2400   13.2861   25.3662 C   0  0  0  0  0  0  0  0  0  0  0  0
    5.7256   11.9533   25.6383 C   0  0  0  0  0  0  0  0  0  0  0  0
    7.3521   13.4195   24.6269 C   0  0  0  0  0  0  0  0  0  0  0  0
    6.3382   10.8476   25.1668 C   0  0  0  0  0  0  0  0  0  0  0  0
    8.3115   10.0933   23.8023 N   0  0  0  0  0  0  0  0  0  0  0  0
    7.9818   12.2774   24.1420 N   0  0  0  0  0  0  0  0  0  0  0  0
   11.2877   12.7615   21.9515 N   0  0  0  0  0  0  0  0  0  0  0  0
    9.2265   14.3089   21.8983 O   0  0  0  0  0  0  0  0  0  0  0  0
   10.6306   14.1970   23.9872 O   0  0  0  0  0  0  0  0  0  0  0  0
   10.0556   13.5576   22.8201 S   0  0  0  0  0  0  0  0  0  0  0  0
    5.6950    9.1304   25.5051 Br  0  0  0  0  0  0  0  0  0  0  0  0
   10.0834   10.3354   22.6270 H   0  0  0  0  0  0  0  0  0  0  0  0
    5.7128   14.1435   25.7666 H   0  0  0  0  0  0  0  0  0  0  0  0
    4.8244   11.8927   26.2404 H   0  0  0  0  0  0  0  0  0  0  0  0
    7.7777   14.3874   24.3938 H   0  0  0  0  0  0  0  0  0  0  0  0
   11.2747   12.8350   20.9268 H   0  0  0  0  0  0  0  0  0  0  0  0
   12.2322   12.7577   22.3555 H   0  0  0  0  0  0  0  0  0  0  0  0
  1  2  2  0  0  0  0
  1  8  1  0  0  0  0
  2  9  1  0  0  0  0
  2 13  1  0  0  0  0
  3  7  1  0  0  0  0
  3  8  2  0  0  0  0
  3  9  1  0  0  0  0
  4  5  1  0  0  0  0
  4  6  2  0  0  0  0
  5  7  2  0  0  0  0
  6  9  1  0  0  0  0
  7 14  1  0  0  0  0
 10 13  1  0  0  0  0
 11 13  2  0  0  0  0
 12 13  2  0  0  0  0
  1 15  1  0  0  0  0
  4 16  1  0  0  0  0
  5 17  1  0  0  0  0
  6 18  1  0  0  0  0
 10 19  1  0  0  0  0
 10 20  1  0  0  0  0
M  END
> <Mol Weight>
276,11

> <Formula>
C7H6BrN3O2S

> <ID>
EN300-45217297

> <name>
Sulfonamides

> <LogP>
0,22

> <ROCS_ShapeQuery>
x0446_0A_x1080_0A_x0929_0A_x0812_0A_x0719_0A_x1140_0A_x0528_0A_x0310_0A

> <ROCS_TanimotoCombo>
0.341 

> <ROCS_ShapeTanimoto>
0.196 

> <ROCS_ColorTanimoto>
0.144 

> <ROCS_RefTversky>
0.181 

> <ROCS_RefColorTversky>
0.160 

> <ROCS_RefTverskyCombo>
0.341 

> <ROCS_FitTversky>
1.779 

> <ROCS_FitColorTversky>
0.602 

> <ROCS_FitTverskyCombo>
2.381 

> <ROCS_ColorScore>
-5.708

> <ROCS_Overlap>
2133.519

> <ROCS_Rank>
245                 

$$$$
untitled-dbase-2516_36
  -OEChem-02082415043D

 29 30  0     1  0  0  0  0  0999 V2000
    4.6843   12.5430   25.5806 C   0  0  0  0  0  0  0  0  0  0  0  0
    5.9946   12.0667   25.5381 C   0  0  0  0  0  0  0  0  0  0  0  0
    4.2600   13.5005   24.6593 C   0  0  0  0  0  0  0  0  0  0  0  0
    6.4563   13.5054   23.6528 C   0  0  0  0  0  0  0  0  0  0  0  0
    6.8806   12.5478   24.5742 C   0  0  0  0  0  0  0  0  0  0  0  0
    5.1460   13.9817   23.6954 C   0  0  0  0  0  0  0  0  0  0  0  0
    8.3574   10.5095   24.2961 C   0  0  0  0  0  0  0  0  0  0  0  0
    9.4434   11.4270   22.5210 C   0  0  0  0  0  0  0  0  0  0  0  0
    8.3103   12.0275   24.5284 C   0  0  2  0  0  0  0  0  0  0  0  0
    9.1887   12.3337   25.7483 C   0  0  0  0  0  0  0  0  0  0  0  0
    9.0474   10.2600   23.1335 N   0  0  0  0  0  0  0  0  0  0  0  0
    8.9973   12.4766   23.3254 N   0  0  0  0  0  0  0  0  0  0  0  0
    6.0400   15.4082   21.6288 N   0  0  0  0  0  0  0  0  0  0  0  0
    7.8648    9.6717   25.0403 O   0  0  0  0  0  0  0  0  0  0  0  0
   10.0591   11.5306   21.4691 O   0  0  0  0  0  0  0  0  0  0  0  0
    3.5994   14.5803   21.6896 O   0  0  0  0  0  0  0  0  0  0  0  0
    4.3191   16.4132   23.2613 O   0  0  0  0  0  0  0  0  0  0  0  0
    4.6147   15.1810   22.5435 S   0  0  0  0  0  0  0  0  0  0  0  0
    3.9941   12.1679   26.3307 H   0  0  0  0  0  0  0  0  0  0  0  0
    6.3160   11.3199   26.2593 H   0  0  0  0  0  0  0  0  0  0  0  0
    3.2371   13.8649   24.7021 H   0  0  0  0  0  0  0  0  0  0  0  0
    7.1480   13.8794   22.9018 H   0  0  0  0  0  0  0  0  0  0  0  0
   10.1863   11.9157   25.6069 H   0  0  0  0  0  0  0  0  0  0  0  0
    8.7488   11.8978   26.6464 H   0  0  0  0  0  0  0  0  0  0  0  0
    9.2756   13.4123   25.8869 H   0  0  0  0  0  0  0  0  0  0  0  0
    9.2404    9.3326   22.7727 H   0  0  0  0  0  0  0  0  0  0  0  0
    9.1455   13.4542   23.0941 H   0  0  0  0  0  0  0  0  0  0  0  0
    6.0612   15.0398   20.6700 H   0  0  0  0  0  0  0  0  0  0  0  0
    6.5524   16.2908   21.7459 H   0  0  0  0  0  0  0  0  0  0  0  0
  1  2  2  0  0  0  0
  1  3  1  0  0  0  0
  2  5  1  0  0  0  0
  3  6  2  0  0  0  0
  4  5  2  0  0  0  0
  4  6  1  0  0  0  0
  5  9  1  0  0  0  0
  6 18  1  0  0  0  0
  7  9  1  0  0  0  0
  7 11  1  0  0  0  0
  7 14  2  0  0  0  0
  8 11  1  0  0  0  0
  8 12  1  0  0  0  0
  8 15  2  0  0  0  0
  9 10  1  0  0  0  0
  9 12  1  0  0  0  0
 13 18  1  0  0  0  0
 16 18  2  0  0  0  0
 17 18  2  0  0  0  0
  1 19  1  0  0  0  0
  2 20  1  0  0  0  0
  3 21  1  0  0  0  0
  4 22  1  0  0  0  0
 10 23  1  0  0  0  0
 10 24  1  0  0  0  0
 10 25  1  0  0  0  0
 11 26  1  0  0  0  0
 12 27  1  0  0  0  0
 13 28  1  0  0  0  0
 13 29  1  0  0  0  0
M  END
> <Mol Weight>
269,28

> <Formula>
C10H11N3O4S

> <ID>
EN300-66544

> <name>
Sulfonamides

> <LogP>
-0,47

> <ROCS_ShapeQuery>
x0446_0A_x1080_0A_x0929_0A_x0812_0A_x0719_0A_x1140_0A_x0528_0A_x0310_0A

> <ROCS_TanimotoCombo>
0.341 

> <ROCS_ShapeTanimoto>
0.188 

> <ROCS_ColorTanimoto>
0.153 

> <ROCS_RefTversky>
0.177 

> <ROCS_RefColorTversky>
0.171 

> <ROCS_RefTverskyCombo>
0.348 

> <ROCS_FitTversky>
1.518 

> <ROCS_FitColorTversky>
0.587 

> <ROCS_FitTverskyCombo>
2.105 

> <ROCS_ColorScore>
-6.117

> <ROCS_Overlap>
2088.019

> <ROCS_Rank>
246                 

$$$$
untitled-dbase-2325_41
  -OEChem-02082415043D

 30 31  0     0  0  0  0  0  0999 V2000
    8.5009   13.5561   24.8040 C   0  0  0  0  0  0  0  0  0  0  0  0
    9.1948   14.4697   24.0035 C   0  0  0  0  0  0  0  0  0  0  0  0
    9.9487   12.6953   22.5009 C   0  0  0  0  0  0  0  0  0  0  0  0
    8.5492   12.2293   24.4301 C   0  0  0  0  0  0  0  0  0  0  0  0
    9.2581   11.8150   23.3041 C   0  0  0  0  0  0  0  0  0  0  0  0
    9.9108   14.0440   22.8648 C   0  0  0  0  0  0  0  0  0  0  0  0
    8.3165    9.9483   24.2454 C   0  0  0  0  0  0  0  0  0  0  0  0
    5.5161    9.7698   27.6226 C   0  0  0  0  0  0  0  0  0  0  0  0
    6.3985    9.7760   26.3825 C   0  0  0  0  0  0  0  0  0  0  0  0
    7.1513   11.0886   26.2018 C   0  0  0  0  0  0  0  0  0  0  0  0
    9.1263   10.4319   23.1785 N   0  0  0  0  0  0  0  0  0  0  0  0
    7.9678   11.0940   25.0153 N   0  0  0  0  0  0  0  0  0  0  0  0
   11.4371   14.2221   20.6868 N   0  0  0  0  0  0  0  0  0  0  0  0
    7.9963    8.7848   24.4448 O   0  0  0  0  0  0  0  0  0  0  0  0
    9.7830   16.1071   21.2835 O   0  0  0  0  0  0  0  0  0  0  0  0
   11.8435   15.7820   22.6964 O   0  0  0  0  0  0  0  0  0  0  0  0
   10.7635   15.2229   21.8963 S   0  0  0  0  0  0  0  0  0  0  0  0
    7.9535   13.8904   25.6771 H   0  0  0  0  0  0  0  0  0  0  0  0
    9.1771   15.5239   24.2710 H   0  0  0  0  0  0  0  0  0  0  0  0
   10.4958   12.3557   21.6288 H   0  0  0  0  0  0  0  0  0  0  0  0
    6.1096    9.9370   28.5271 H   0  0  0  0  0  0  0  0  0  0  0  0
    4.7682   10.5666   27.5567 H   0  0  0  0  0  0  0  0  0  0  0  0
    4.9847    8.8191   27.7296 H   0  0  0  0  0  0  0  0  0  0  0  0
    5.7673    9.6058   25.5026 H   0  0  0  0  0  0  0  0  0  0  0  0
    7.1066    8.9408   26.4402 H   0  0  0  0  0  0  0  0  0  0  0  0
    6.4422   11.9168   26.1058 H   0  0  0  0  0  0  0  0  0  0  0  0
    7.8020   11.2947   27.0575 H   0  0  0  0  0  0  0  0  0  0  0  0
    9.5438    9.8748   22.4433 H   0  0  0  0  0  0  0  0  0  0  0  0
   11.0445   14.2809   19.7393 H   0  0  0  0  0  0  0  0  0  0  0  0
   12.4510   14.0583   20.7066 H   0  0  0  0  0  0  0  0  0  0  0  0
  1  2  2  0  0  0  0
  1  4  1  0  0  0  0
  2  6  1  0  0  0  0
  3  5  1  0  0  0  0
  3  6  2  0  0  0  0
  4  5  2  0  0  0  0
  4 12  1  0  0  0  0
  5 11  1  0  0  0  0
  6 17  1  0  0  0  0
  7 11  1  0  0  0  0
  7 12  1  0  0  0  0
  7 14  2  0  0  0  0
  8  9  1  0  0  0  0
  9 10  1  0  0  0  0
 10 12  1  0  0  0  0
 13 17  1  0  0  0  0
 15 17  2  0  0  0  0
 16 17  2  0  0  0  0
  1 18  1  0  0  0  0
  2 19  1  0  0  0  0
  3 20  1  0  0  0  0
  8 21  1  0  0  0  0
  8 22  1  0  0  0  0
  8 23  1  0  0  0  0
  9 24  1  0  0  0  0
  9 25  1  0  0  0  0
 10 26  1  0  0  0  0
 10 27  1  0  0  0  0
 11 28  1  0  0  0  0
 13 29  1  0  0  0  0
 13 30  1  0  0  0  0
M  END
> <Mol Weight>
255,29

> <Formula>
C10H13N3O3S

> <ID>
EN300-31156

> <name>
Sulfonamides

> <LogP>
0,68

> <ROCS_ShapeQuery>
x0446_0A_x1080_0A_x0929_0A_x0812_0A_x0719_0A_x1140_0A_x0528_0A_x0310_0A

> <ROCS_TanimotoCombo>
0.341 

> <ROCS_ShapeTanimoto>
0.201 

> <ROCS_ColorTanimoto>
0.140 

> <ROCS_RefTversky>
0.186 

> <ROCS_RefColorTversky>
0.159 

> <ROCS_RefTverskyCombo>
0.345 

> <ROCS_FitTversky>
1.657 

> <ROCS_FitColorTversky>
0.544 

> <ROCS_FitTverskyCombo>
2.200 

> <ROCS_ColorScore>
-5.672

> <ROCS_Overlap>
2196.074

> <ROCS_Rank>
247                 

$$$$
untitled-dbase-2053_0
  -OEChem-02082415043D

 22 23  0     0  0  0  0  0  0999 V2000
    6.2313   13.8233   25.3972 C   0  0  0  0  0  0  0  0  0  0  0  0
    5.5091   12.7094   25.8190 C   0  0  0  0  0  0  0  0  0  0  0  0
    7.3820   13.6608   24.6238 C   0  0  0  0  0  0  0  0  0  0  0  0
    5.9343   11.4280   25.4694 C   0  0  0  0  0  0  0  0  0  0  0  0
    9.3458   10.8837   23.1735 C   0  0  0  0  0  0  0  0  0  0  0  0
    7.8247   12.3778   24.2626 C   0  0  0  0  0  0  0  0  0  0  0  0
    7.0908   11.2526   24.6916 C   0  0  0  0  0  0  0  0  0  0  0  0
    8.9742   12.1818   23.4883 C   0  0  0  0  0  0  0  0  0  0  0  0
    7.5614    9.9937   24.3130 C   0  0  0  0  0  0  0  0  0  0  0  0
    8.6687    9.7837   23.5660 N   0  0  0  0  0  0  0  0  0  0  0  0
   11.1747   12.6124   22.0472 N   0  0  0  0  0  0  0  0  0  0  0  0
    9.1943   14.2589   21.9358 O   0  0  0  0  0  0  0  0  0  0  0  0
   10.5913   14.1507   24.0297 O   0  0  0  0  0  0  0  0  0  0  0  0
    9.9754   13.4880   22.8905 S   0  0  0  0  0  0  0  0  0  0  0  0
    6.7912    8.5103   24.7462 Cl  0  0  0  0  0  0  0  0  0  0  0  0
    5.8987   14.8205   25.6710 H   0  0  0  0  0  0  0  0  0  0  0  0
    4.6147   12.8390   26.4215 H   0  0  0  0  0  0  0  0  0  0  0  0
    7.9137   14.5577   24.3176 H   0  0  0  0  0  0  0  0  0  0  0  0
    5.3424   10.5863   25.8188 H   0  0  0  0  0  0  0  0  0  0  0  0
   10.2287   10.6778   22.5760 H   0  0  0  0  0  0  0  0  0  0  0  0
   11.1653   12.6500   21.0206 H   0  0  0  0  0  0  0  0  0  0  0  0
   12.1179   12.5754   22.4526 H   0  0  0  0  0  0  0  0  0  0  0  0
  1  2  1  0  0  0  0
  1  3  2  0  0  0  0
  2  4  2  0  0  0  0
  3  6  1  0  0  0  0
  4  7  1  0  0  0  0
  5  8  1  0  0  0  0
  5 10  2  0  0  0  0
  6  7  1  0  0  0  0
  6  8  2  0  0  0  0
  7  9  2  0  0  0  0
  8 14  1  0  0  0  0
  9 10  1  0  0  0  0
  9 15  1  0  0  0  0
 11 14  1  0  0  0  0
 12 14  2  0  0  0  0
 13 14  2  0  0  0  0
  1 16  1  0  0  0  0
  2 17  1  0  0  0  0
  3 18  1  0  0  0  0
  4 19  1  0  0  0  0
  5 20  1  0  0  0  0
 11 21  1  0  0  0  0
 11 22  1  0  0  0  0
M  END
> <Mol Weight>
242,68

> <Formula>
C9H7ClN2O2S

> <ID>
EN300-39671429

> <name>
Sulfonamides

> <LogP>
1,18

> <ROCS_ShapeQuery>
x0446_0A_x1080_0A_x0929_0A_x0812_0A_x0719_0A_x1140_0A_x0528_0A_x0310_0A

> <ROCS_TanimotoCombo>
0.341 

> <ROCS_ShapeTanimoto>
0.202 

> <ROCS_ColorTanimoto>
0.139 

> <ROCS_RefTversky>
0.186 

> <ROCS_RefColorTversky>
0.148 

> <ROCS_RefTverskyCombo>
0.333 

> <ROCS_FitTversky>
1.766 

> <ROCS_FitColorTversky>
0.695 

> <ROCS_FitTverskyCombo>
2.461 

> <ROCS_ColorScore>
-5.260

> <ROCS_Overlap>
2189.976

> <ROCS_Rank>
248                 

$$$$
untitled-dbase-2630_221
  -OEChem-02082415043D

 40 40  0     1  0  0  0  0  0999 V2000
   10.8905   13.3677   22.9087 C   0  0  0  0  0  0  0  0  0  0  0  0
    6.7506   10.6821   23.9058 C   0  0  0  0  0  0  0  0  0  0  0  0
    6.3029   11.8728   24.7549 C   0  0  0  0  0  0  0  0  0  0  0  0
    7.9511   10.9866   23.0043 C   0  0  0  0  0  0  0  0  0  0  0  0
    6.4203   13.1850   23.9891 C   0  0  0  0  0  0  0  0  0  0  0  0
    8.7317   12.2033   23.4946 C   0  0  2  0  0  0  0  0  0  0  0  0
    7.8566   13.4694   23.5109 C   0  0  1  0  0  0  0  0  0  0  0  0
   13.5953   14.0793   23.4808 C   0  0  0  0  0  0  0  0  0  0  0  0
   13.9580   13.9554   20.9984 C   0  0  0  0  0  0  0  0  0  0  0  0
   12.3468   15.6337   21.9447 C   0  0  0  0  0  0  0  0  0  0  0  0
   12.9459   14.2375   22.1067 C   0  0  0  0  0  0  0  0  0  0  0  0
    6.4690   15.3463   22.2304 N   0  0  0  0  0  0  0  0  0  0  0  0
    9.9543   12.3851   22.6744 N   0  0  0  0  0  0  0  0  0  0  0  0
   10.8440   14.2053   23.8036 O   0  0  0  0  0  0  0  0  0  0  0  0
    8.9927   15.0969   21.8000 O   0  0  0  0  0  0  0  0  0  0  0  0
    7.4054   13.3320   20.9332 O   0  0  0  0  0  0  0  0  0  0  0  0
   11.8941   13.2732   21.9861 O   0  0  0  0  0  0  0  0  0  0  0  0
    7.7856   14.3052   21.9389 S   0  0  0  0  0  0  0  0  0  0  0  0
    6.9965    9.8354   24.5683 H   0  0  0  0  0  0  0  0  0  0  0  0
    5.9038   10.3414   23.2854 H   0  0  0  0  0  0  0  0  0  0  0  0
    5.2682   11.7238   25.0778 H   0  0  0  0  0  0  0  0  0  0  0  0
    6.9184   11.9218   25.6596 H   0  0  0  0  0  0  0  0  0  0  0  0
    8.6149   10.1178   23.0038 H   0  0  0  0  0  0  0  0  0  0  0  0
    7.6154   11.1288   21.9749 H   0  0  0  0  0  0  0  0  0  0  0  0
    5.7327   13.1729   23.1272 H   0  0  0  0  0  0  0  0  0  0  0  0
    6.0742   14.0133   24.6286 H   0  0  0  0  0  0  0  0  0  0  0  0
    9.1086   12.0118   24.5054 H   0  0  0  0  0  0  0  0  0  0  0  0
    8.2992   14.1978   24.1872 H   0  0  0  0  0  0  0  0  0  0  0  0
   12.8721   14.2810   24.2791 H   0  0  0  0  0  0  0  0  0  0  0  0
   13.9981   13.0712   23.6230 H   0  0  0  0  0  0  0  0  0  0  0  0
   14.4107   14.7997   23.6132 H   0  0  0  0  0  0  0  0  0  0  0  0
   13.4963   14.0677   20.0107 H   0  0  0  0  0  0  0  0  0  0  0  0
   14.3202   12.9225   21.0542 H   0  0  0  0  0  0  0  0  0  0  0  0
   14.8194   14.6285   21.0570 H   0  0  0  0  0  0  0  0  0  0  0  0
   11.8809   15.7474   20.9592 H   0  0  0  0  0  0  0  0  0  0  0  0
   11.5913   15.8397   22.7099 H   0  0  0  0  0  0  0  0  0  0  0  0
   13.1259   16.4019   22.0089 H   0  0  0  0  0  0  0  0  0  0  0  0
    6.6651   16.3490   22.3381 H   0  0  0  0  0  0  0  0  0  0  0  0
    5.5841   15.1469   21.7479 H   0  0  0  0  0  0  0  0  0  0  0  0
   10.1093   11.7511   21.8985 H   0  0  0  0  0  0  0  0  0  0  0  0
  1 13  1  0  0  0  0
  1 14  2  0  0  0  0
  1 17  1  0  0  0  0
  2  3  1  0  0  0  0
  2  4  1  0  0  0  0
  3  5  1  0  0  0  0
  4  6  1  0  0  0  0
  5  7  1  0  0  0  0
  6  7  1  0  0  0  0
  6 13  1  6  0  0  0
  7 18  1  6  0  0  0
  8 11  1  0  0  0  0
  9 11  1  0  0  0  0
 10 11  1  0  0  0  0
 11 17  1  0  0  0  0
 12 18  1  0  0  0  0
 15 18  2  0  0  0  0
 16 18  2  0  0  0  0
  2 19  1  0  0  0  0
  2 20  1  0  0  0  0
  3 21  1  0  0  0  0
  3 22  1  0  0  0  0
  4 23  1  0  0  0  0
  4 24  1  0  0  0  0
  5 25  1  0  0  0  0
  5 26  1  0  0  0  0
  6 27  1  0  0  0  0
  7 28  1  0  0  0  0
  8 29  1  0  0  0  0
  8 30  1  0  0  0  0
  8 31  1  0  0  0  0
  9 32  1  0  0  0  0
  9 33  1  0  0  0  0
  9 34  1  0  0  0  0
 10 35  1  0  0  0  0
 10 36  1  0  0  0  0
 10 37  1  0  0  0  0
 12 38  1  0  0  0  0
 12 39  1  0  0  0  0
 13 40  1  0  0  0  0
M  END
> <Mol Weight>
278,37

> <Formula>
C11H22N2O4S

> <ID>
EN300-37325491

> <name>
Sulfonamides

> <LogP>
0,88

> <ROCS_ShapeQuery>
x0446_0A_x1080_0A_x0929_0A_x0812_0A_x0719_0A_x1140_0A_x0528_0A_x0310_0A

> <ROCS_TanimotoCombo>
0.341 

> <ROCS_ShapeTanimoto>
0.193 

> <ROCS_ColorTanimoto>
0.148 

> <ROCS_RefTversky>
0.180 

> <ROCS_RefColorTversky>
0.160 

> <ROCS_RefTverskyCombo>
0.339 

> <ROCS_FitTversky>
1.597 

> <ROCS_FitColorTversky>
0.669 

> <ROCS_FitTverskyCombo>
2.266 

> <ROCS_ColorScore>
-5.698

> <ROCS_Overlap>
2119.560

> <ROCS_Rank>
249                 

$$$$
untitled-dbase-2247_53
  -OEChem-02082415043D

 24 24  0     0  0  0  0  0  0999 V2000
    8.5065   10.9856   23.6994 C   0  0  0  0  0  0  0  0  0  0  0  0
    9.3384   11.6885   22.7808 C   0  0  0  0  0  0  0  0  0  0  0  0
    7.8987   11.8326   24.5997 C   0  0  0  0  0  0  0  0  0  0  0  0
    9.3345   13.0463   23.0138 C   0  0  0  0  0  0  0  0  0  0  0  0
    7.0015   11.5234   25.6668 C   0  0  0  0  0  0  0  0  0  0  0  0
    8.4067    8.9580   22.4605 C   0  0  0  0  0  0  0  0  0  0  0  0
   11.3964   10.7162   22.0915 C   0  0  0  0  0  0  0  0  0  0  0  0
   11.0099   13.6044   21.0172 N   0  0  0  0  0  0  0  0  0  0  0  0
    6.6198   10.3682   25.9481 O   0  0  0  0  0  0  0  0  0  0  0  0
    9.1146   15.2403   21.6313 O   0  0  0  0  0  0  0  0  0  0  0  0
   11.0721   14.9782   23.1957 O   0  0  0  0  0  0  0  0  0  0  0  0
    8.3167    9.6537   23.7112 O   0  0  0  0  0  0  0  0  0  0  0  0
   10.0557   11.1276   21.7911 O   0  0  0  0  0  0  0  0  0  0  0  0
    8.3312   13.4684   24.3357 S   0  0  0  0  0  0  0  0  0  0  0  0
   10.1360   14.4082   22.2427 S   0  0  0  0  0  0  0  0  0  0  0  0
    6.6076   12.3652   26.2993 H   0  0  0  0  0  0  0  0  0  0  0  0
    8.2317    7.8916   22.6225 H   0  0  0  0  0  0  0  0  0  0  0  0
    9.3975    9.1138   22.0264 H   0  0  0  0  0  0  0  0  0  0  0  0
    7.6471    9.3503   21.7801 H   0  0  0  0  0  0  0  0  0  0  0  0
   11.8534   10.2813   21.1992 H   0  0  0  0  0  0  0  0  0  0  0  0
   11.3805    9.9817   22.9006 H   0  0  0  0  0  0  0  0  0  0  0  0
   11.9741   11.5888   22.4055 H   0  0  0  0  0  0  0  0  0  0  0  0
   10.6944   13.7223   20.0467 H   0  0  0  0  0  0  0  0  0  0  0  0
   12.0304   13.5424   21.1174 H   0  0  0  0  0  0  0  0  0  0  0  0
  1  2  1  0  0  0  0
  1  3  2  0  0  0  0
  1 12  1  0  0  0  0
  2  4  2  0  0  0  0
  2 13  1  0  0  0  0
  3  5  1  0  0  0  0
  3 14  1  0  0  0  0
  4 14  1  0  0  0  0
  4 15  1  0  0  0  0
  5  9  2  0  0  0  0
  6 12  1  0  0  0  0
  7 13  1  0  0  0  0
  8 15  1  0  0  0  0
 10 15  2  0  0  0  0
 11 15  2  0  0  0  0
  5 16  1  0  0  0  0
  6 17  1  0  0  0  0
  6 18  1  0  0  0  0
  6 19  1  0  0  0  0
  7 20  1  0  0  0  0
  7 21  1  0  0  0  0
  7 22  1  0  0  0  0
  8 23  1  0  0  0  0
  8 24  1  0  0  0  0
M  END
> <Mol Weight>
251,27

> <Formula>
C7H9NO5S2

> <ID>
EN300-2010404

> <name>
Sulfonamides

> <LogP>
0,06

> <ROCS_ShapeQuery>
x0446_0A_x1080_0A_x0929_0A_x0812_0A_x0719_0A_x1140_0A_x0528_0A_x0310_0A

> <ROCS_TanimotoCombo>
0.340 

> <ROCS_ShapeTanimoto>
0.196 

> <ROCS_ColorTanimoto>
0.145 

> <ROCS_RefTversky>
0.181 

> <ROCS_RefColorTversky>
0.157 

> <ROCS_RefTverskyCombo>
0.337 

> <ROCS_FitTversky>
1.764 

> <ROCS_FitColorTversky>
0.656 

> <ROCS_FitTverskyCombo>
2.420 

> <ROCS_ColorScore>
-5.585

> <ROCS_Overlap>
2129.158

> <ROCS_Rank>
250                 

$$$$
untitled-dbase-2164_15
  -OEChem-02082415043D

 28 29  0     0  0  0  0  0  0999 V2000
   12.2969   16.0298   22.5638 C   0  0  0  0  0  0  0  0  0  0  0  0
   12.9456   14.8437   22.9072 C   0  0  0  0  0  0  0  0  0  0  0  0
   11.0499   15.9874   21.9401 C   0  0  0  0  0  0  0  0  0  0  0  0
    8.9706    9.9145   23.9878 C   0  0  0  0  0  0  0  0  0  0  0  0
   12.3474   13.6152   22.6268 C   0  0  0  0  0  0  0  0  0  0  0  0
   10.4517   14.7589   21.6597 C   0  0  0  0  0  0  0  0  0  0  0  0
    9.8007   10.4696   23.0139 C   0  0  0  0  0  0  0  0  0  0  0  0
    8.0319   10.7127   24.6416 C   0  0  0  0  0  0  0  0  0  0  0  0
    8.7536   12.6212   23.3478 C   0  0  0  0  0  0  0  0  0  0  0  0
   11.1004   13.5728   22.0031 C   0  0  0  0  0  0  0  0  0  0  0  0
    9.6922   11.8229   22.6940 C   0  0  0  0  0  0  0  0  0  0  0  0
    7.9234   12.0661   24.3216 C   0  0  0  0  0  0  0  0  0  0  0  0
    7.6603   13.6203   26.4710 N   0  0  0  0  0  0  0  0  0  0  0  0
    6.4304   14.1974   24.2801 O   0  0  0  0  0  0  0  0  0  0  0  0
    5.6760   12.2086   25.6304 O   0  0  0  0  0  0  0  0  0  0  0  0
   10.5171   12.3744   21.7278 O   0  0  0  0  0  0  0  0  0  0  0  0
    6.7465   13.0645   25.1386 S   0  0  0  0  0  0  0  0  0  0  0  0
   12.7621   16.9865   22.7824 H   0  0  0  0  0  0  0  0  0  0  0  0
   13.9167   14.8765   23.3927 H   0  0  0  0  0  0  0  0  0  0  0  0
   10.5453   16.9115   21.6731 H   0  0  0  0  0  0  0  0  0  0  0  0
    9.0553    8.8610   24.2371 H   0  0  0  0  0  0  0  0  0  0  0  0
   12.8587   12.6948   22.8956 H   0  0  0  0  0  0  0  0  0  0  0  0
    9.4810   14.7319   21.1721 H   0  0  0  0  0  0  0  0  0  0  0  0
   10.5299    9.8427   22.5084 H   0  0  0  0  0  0  0  0  0  0  0  0
    7.3894   10.2700   25.3978 H   0  0  0  0  0  0  0  0  0  0  0  0
    8.6732   13.6757   23.0950 H   0  0  0  0  0  0  0  0  0  0  0  0
    7.9490   14.6062   26.4797 H   0  0  0  0  0  0  0  0  0  0  0  0
    7.4340   13.2458   27.4005 H   0  0  0  0  0  0  0  0  0  0  0  0
  1  2  1  0  0  0  0
  1  3  2  0  0  0  0
  2  5  2  0  0  0  0
  3  6  1  0  0  0  0
  4  7  1  0  0  0  0
  4  8  2  0  0  0  0
  5 10  1  0  0  0  0
  6 10  2  0  0  0  0
  7 11  2  0  0  0  0
  8 12  1  0  0  0  0
  9 11  1  0  0  0  0
  9 12  2  0  0  0  0
 10 16  1  0  0  0  0
 11 16  1  0  0  0  0
 12 17  1  0  0  0  0
 13 17  1  0  0  0  0
 14 17  2  0  0  0  0
 15 17  2  0  0  0  0
  1 18  1  0  0  0  0
  2 19  1  0  0  0  0
  3 20  1  0  0  0  0
  4 21  1  0  0  0  0
  5 22  1  0  0  0  0
  6 23  1  0  0  0  0
  7 24  1  0  0  0  0
  8 25  1  0  0  0  0
  9 26  1  0  0  0  0
 13 27  1  0  0  0  0
 13 28  1  0  0  0  0
M  END
> <Mol Weight>
249,28

> <Formula>
C12H11NO3S

> <ID>
EN300-1723691

> <name>
Sulfonamides

> <LogP>
2,08

> <ROCS_ShapeQuery>
x0446_0A_x1080_0A_x0929_0A_x0812_0A_x0719_0A_x1140_0A_x0528_0A_x0310_0A

> <ROCS_TanimotoCombo>
0.340 

> <ROCS_ShapeTanimoto>
0.224 

> <ROCS_ColorTanimoto>
0.116 

> <ROCS_RefTversky>
0.204 

> <ROCS_RefColorTversky>
0.126 

> <ROCS_RefTverskyCombo>
0.330 

> <ROCS_FitTversky>
1.813 

> <ROCS_FitColorTversky>
0.596 

> <ROCS_FitTverskyCombo>
2.409 

> <ROCS_ColorScore>
-4.505

> <ROCS_Overlap>
2402.016

> <ROCS_Rank>
251                 

$$$$
untitled-dbase-1868_7721
  -OEChem-02082415043D

 35 35  0     0  0  0  0  0  0999 V2000
    7.8596   12.8393   24.2258 C   0  0  0  0  0  0  0  0  0  0  0  0
    9.1514   10.8774   25.1037 C   0  0  0  0  0  0  0  0  0  0  0  0
    8.2388   12.4024   22.8084 C   0  0  0  0  0  0  0  0  0  0  0  0
    9.4885   10.5046   23.6577 C   0  0  0  0  0  0  0  0  0  0  0  0
    7.8449   11.6723   25.2210 C   0  0  0  0  0  0  0  0  0  0  0  0
   11.7628   15.9507   21.6666 C   0  0  0  0  0  0  0  0  0  0  0  0
    6.6174   10.7781   25.0286 C   0  0  0  0  0  0  0  0  0  0  0  0
    9.8987   11.3290   21.4319 C   0  0  0  0  0  0  0  0  0  0  0  0
    9.9724   12.5379   20.5144 C   0  0  0  0  0  0  0  0  0  0  0  0
    9.5258   11.6950   22.7982 N   0  0  0  0  0  0  0  0  0  0  0  0
   10.9575   13.4886   20.9542 N   0  0  0  0  0  0  0  0  0  0  0  0
   10.7718   14.2753   23.4162 O   0  0  0  0  0  0  0  0  0  0  0  0
    9.2387   15.2924   21.6924 O   0  0  0  0  0  0  0  0  0  0  0  0
    5.4549   11.5588   25.2369 O   0  0  0  0  0  0  0  0  0  0  0  0
   10.5257   14.7368   22.0640 S   0  0  0  0  0  0  0  0  0  0  0  0
    8.5675   13.6120   24.5683 H   0  0  0  0  0  0  0  0  0  0  0  0
    6.8680   13.3239   24.2026 H   0  0  0  0  0  0  0  0  0  0  0  0
    9.0851    9.9569   25.7094 H   0  0  0  0  0  0  0  0  0  0  0  0
    9.9828   11.4624   25.5302 H   0  0  0  0  0  0  0  0  0  0  0  0
    7.4483   11.7407   22.4337 H   0  0  0  0  0  0  0  0  0  0  0  0
    8.2687   13.2799   22.1488 H   0  0  0  0  0  0  0  0  0  0  0  0
   10.4476    9.9706   23.6295 H   0  0  0  0  0  0  0  0  0  0  0  0
    8.7193    9.8105   23.2975 H   0  0  0  0  0  0  0  0  0  0  0  0
    7.7943   12.0958   26.2418 H   0  0  0  0  0  0  0  0  0  0  0  0
   11.6103   16.8204   22.3077 H   0  0  0  0  0  0  0  0  0  0  0  0
   12.7457   15.5119   21.8448 H   0  0  0  0  0  0  0  0  0  0  0  0
   11.6510   16.2252   20.6166 H   0  0  0  0  0  0  0  0  0  0  0  0
    6.6369    9.9607   25.7490 H   0  0  0  0  0  0  0  0  0  0  0  0
    6.6054   10.3763   24.0157 H   0  0  0  0  0  0  0  0  0  0  0  0
   10.8598   10.8077   21.4838 H   0  0  0  0  0  0  0  0  0  0  0  0
    9.1409   10.6275   21.0693 H   0  0  0  0  0  0  0  0  0  0  0  0
   10.2531   12.2291   19.5028 H   0  0  0  0  0  0  0  0  0  0  0  0
    9.0112   13.0595   20.4640 H   0  0  0  0  0  0  0  0  0  0  0  0
   11.9244   13.1159   21.0763 H   0  0  0  0  0  0  0  0  0  0  0  0
    4.6900   10.9717   25.1099 H   0  0  0  0  0  0  0  0  0  0  0  0
  1  3  1  0  0  0  0
  1  5  1  0  0  0  0
  2  4  1  0  0  0  0
  2  5  1  0  0  0  0
  3 10  1  0  0  0  0
  4 10  1  0  0  0  0
  5  7  1  0  0  0  0
  6 15  1  0  0  0  0
  7 14  1  0  0  0  0
  8  9  1  0  0  0  0
  8 10  1  0  0  0  0
  9 11  1  0  0  0  0
 11 15  1  0  0  0  0
 12 15  2  0  0  0  0
 13 15  2  0  0  0  0
  1 16  1  0  0  0  0
  1 17  1  0  0  0  0
  2 18  1  0  0  0  0
  2 19  1  0  0  0  0
  3 20  1  0  0  0  0
  3 21  1  0  0  0  0
  4 22  1  0  0  0  0
  4 23  1  0  0  0  0
  5 24  1  0  0  0  0
  6 25  1  0  0  0  0
  6 26  1  0  0  0  0
  6 27  1  0  0  0  0
  7 28  1  0  0  0  0
  7 29  1  0  0  0  0
  8 30  1  0  0  0  0
  8 31  1  0  0  0  0
  9 32  1  0  0  0  0
  9 33  1  0  0  0  0
 11 34  1  0  0  0  0
 14 35  1  0  0  0  0
M  END
> <Mol Weight>
236,33

> <Formula>
C9H20N2O3S

> <ID>
EN300-1167129

> <name>
Sulfonamides

> <LogP>
-1,51

> <ROCS_ShapeQuery>
x0446_0A_x1080_0A_x0929_0A_x0812_0A_x0719_0A_x1140_0A_x0528_0A_x0310_0A

> <ROCS_TanimotoCombo>
0.340 

> <ROCS_ShapeTanimoto>
0.188 

> <ROCS_ColorTanimoto>
0.152 

> <ROCS_RefTversky>
0.174 

> <ROCS_RefColorTversky>
0.164 

> <ROCS_RefTverskyCombo>
0.338 

> <ROCS_FitTversky>
1.734 

> <ROCS_FitColorTversky>
0.686 

> <ROCS_FitTverskyCombo>
2.420 

> <ROCS_ColorScore>
-5.839

> <ROCS_Overlap>
2054.995

> <ROCS_Rank>
252                 

$$$$
untitled-dbase-2776_64
  -OEChem-02082415043D

 32 32  0     1  0  0  0  0  0999 V2000
    8.8895   10.0713   23.7701 C   0  0  0  0  0  0  0  0  0  0  0  0
    9.8063   10.8206   23.0329 C   0  0  0  0  0  0  0  0  0  0  0  0
    7.8742   10.7131   24.4795 C   0  0  0  0  0  0  0  0  0  0  0  0
    8.6928   12.8535   23.7144 C   0  0  0  0  0  0  0  0  0  0  0  0
    9.7080   12.2117   23.0050 C   0  0  0  0  0  0  0  0  0  0  0  0
    7.7759   12.1042   24.4516 C   0  0  0  0  0  0  0  0  0  0  0  0
   10.4276   14.2013   21.6374 C   0  0  0  0  0  0  0  0  0  0  0  0
   11.4590   16.0279   20.2574 C   0  0  0  0  0  0  0  0  0  0  0  0
    8.4535   13.9878   26.9597 C   0  0  0  0  0  0  0  0  0  0  0  0
   11.6925   14.6840   20.9300 C   0  0  2  0  0  0  0  0  0  0  0  0
   12.0848   13.6865   19.9685 N   0  0  0  0  0  0  0  0  0  0  0  0
   10.6380   12.9721   22.2568 N   0  0  0  0  0  0  0  0  0  0  0  0
    7.2334   13.1736   26.8636 N   0  0  0  0  0  0  0  0  0  0  0  0
    9.4007   14.8741   21.6570 O   0  0  0  0  0  0  0  0  0  0  0  0
    6.2415   14.1982   24.7181 O   0  0  0  0  0  0  0  0  0  0  0  0
    5.4120   11.9590   25.5071 O   0  0  0  0  0  0  0  0  0  0  0  0
    6.5057   12.9070   25.3403 S   0  0  0  0  0  0  0  0  0  0  0  0
    8.9654    8.9881   23.7916 H   0  0  0  0  0  0  0  0  0  0  0  0
   10.5928   10.3094   22.4835 H   0  0  0  0  0  0  0  0  0  0  0  0
    7.1655   10.1199   25.0510 H   0  0  0  0  0  0  0  0  0  0  0  0
    8.6154   13.9384   23.6930 H   0  0  0  0  0  0  0  0  0  0  0  0
   10.6442   15.9715   19.5283 H   0  0  0  0  0  0  0  0  0  0  0  0
   12.3561   16.3656   19.7260 H   0  0  0  0  0  0  0  0  0  0  0  0
   11.2027   16.7945   20.9965 H   0  0  0  0  0  0  0  0  0  0  0  0
    8.4904   14.6947   26.1177 H   0  0  0  0  0  0  0  0  0  0  0  0
    8.4478   14.5464   27.9072 H   0  0  0  0  0  0  0  0  0  0  0  0
    9.3356   13.3315   26.9262 H   0  0  0  0  0  0  0  0  0  0  0  0
   12.5101   14.7588   21.6555 H   0  0  0  0  0  0  0  0  0  0  0  0
   12.9326   13.9712   19.5232 H   0  0  0  0  0  0  0  0  0  0  0  0
   12.2277   12.8151   20.4359 H   0  0  0  0  0  0  0  0  0  0  0  0
   11.5649   12.5606   22.1713 H   0  0  0  0  0  0  0  0  0  0  0  0
    7.0979   12.4757   27.6052 H   0  0  0  0  0  0  0  0  0  0  0  0
  1  2  1  0  0  0  0
  1  3  2  0  0  0  0
  2  5  2  0  0  0  0
  3  6  1  0  0  0  0
  4  5  1  0  0  0  0
  4  6  2  0  0  0  0
  5 12  1  0  0  0  0
  6 17  1  0  0  0  0
  7 10  1  0  0  0  0
  7 12  1  0  0  0  0
  7 14  2  0  0  0  0
  8 10  1  0  0  0  0
  9 13  1  0  0  0  0
 10 11  1  0  0  0  0
 13 17  1  0  0  0  0
 15 17  2  0  0  0  0
 16 17  2  0  0  0  0
  1 18  1  0  0  0  0
  2 19  1  0  0  0  0
  3 20  1  0  0  0  0
  4 21  1  0  0  0  0
  8 22  1  0  0  0  0
  8 23  1  0  0  0  0
  8 24  1  0  0  0  0
  9 25  1  0  0  0  0
  9 26  1  0  0  0  0
  9 27  1  0  0  0  0
 10 28  1  0  0  0  0
 11 29  1  0  0  0  0
 11 30  1  0  0  0  0
 12 31  1  0  0  0  0
 13 32  1  0  0  0  0
M  END
> <Mol Weight>
293,77

> <Formula>
C10H16ClN3O3S

> <ID>
EN300-66101

> <name>
Sulfonamides

> <LogP>
-0,42

> <ROCS_ShapeQuery>
x0446_0A_x1080_0A_x0929_0A_x0812_0A_x0719_0A_x1140_0A_x0528_0A_x0310_0A

> <ROCS_TanimotoCombo>
0.340 

> <ROCS_ShapeTanimoto>
0.202 

> <ROCS_ColorTanimoto>
0.138 

> <ROCS_RefTversky>
0.187 

> <ROCS_RefColorTversky>
0.154 

> <ROCS_RefTverskyCombo>
0.340 

> <ROCS_FitTversky>
1.699 

> <ROCS_FitColorTversky>
0.580 

> <ROCS_FitTverskyCombo>
2.279 

> <ROCS_ColorScore>
-5.491

> <ROCS_Overlap>
2200.713

> <ROCS_Rank>
253                 

$$$$
untitled-dbase-2574_36
  -OEChem-02082415043D

 33 33  0     0  0  0  0  0  0999 V2000
    9.8235   11.1688   22.5336 C   0  0  0  0  0  0  0  0  0  0  0  0
    9.4073    9.9222   22.9725 C   0  0  0  0  0  0  0  0  0  0  0  0
    7.9428   10.8441   24.4836 C   0  0  0  0  0  0  0  0  0  0  0  0
    8.2905   12.1339   24.1157 C   0  0  0  0  0  0  0  0  0  0  0  0
    9.2496   12.2906   23.1212 C   0  0  0  0  0  0  0  0  0  0  0  0
    6.4020   13.3120   25.2804 C   0  0  0  0  0  0  0  0  0  0  0  0
    3.8337   14.5584   25.4514 C   0  0  0  0  0  0  0  0  0  0  0  0
    5.0972   16.6719   25.9475 C   0  0  0  0  0  0  0  0  0  0  0  0
    5.4108   15.5162   23.7397 C   0  0  0  0  0  0  0  0  0  0  0  0
    5.1375   15.3240   25.2307 C   0  0  0  0  0  0  0  0  0  0  0  0
    8.4784    9.7303   23.9358 N   0  0  0  0  0  0  0  0  0  0  0  0
   10.9101   13.4598   21.3947 N   0  0  0  0  0  0  0  0  0  0  0  0
    7.6742   13.2382   24.7471 N   0  0  0  0  0  0  0  0  0  0  0  0
    5.5502   12.4323   25.3123 O   0  0  0  0  0  0  0  0  0  0  0  0
    8.6263   14.5242   21.9397 O   0  0  0  0  0  0  0  0  0  0  0  0
   10.4409   14.5367   23.6876 O   0  0  0  0  0  0  0  0  0  0  0  0
    6.2094   14.5682   25.7957 O   0  0  0  0  0  0  0  0  0  0  0  0
    9.7584   13.8770   22.5849 S   0  0  0  0  0  0  0  0  0  0  0  0
   10.5746   11.2545   21.7558 H   0  0  0  0  0  0  0  0  0  0  0  0
    9.8244    9.0157   22.5463 H   0  0  0  0  0  0  0  0  0  0  0  0
    7.2007   10.6567   25.2541 H   0  0  0  0  0  0  0  0  0  0  0  0
    3.8586   13.5903   24.9385 H   0  0  0  0  0  0  0  0  0  0  0  0
    3.6438   14.3835   26.5154 H   0  0  0  0  0  0  0  0  0  0  0  0
    2.9822   15.1077   25.0336 H   0  0  0  0  0  0  0  0  0  0  0  0
    6.0307   17.2246   25.7919 H   0  0  0  0  0  0  0  0  0  0  0  0
    4.9962   16.5353   27.0303 H   0  0  0  0  0  0  0  0  0  0  0  0
    4.2651   17.2911   25.5970 H   0  0  0  0  0  0  0  0  0  0  0  0
    6.3460   16.0653   23.5812 H   0  0  0  0  0  0  0  0  0  0  0  0
    5.4798   14.5576   23.2155 H   0  0  0  0  0  0  0  0  0  0  0  0
    4.6190   16.1126   23.2722 H   0  0  0  0  0  0  0  0  0  0  0  0
   10.6634   13.6176   20.4101 H   0  0  0  0  0  0  0  0  0  0  0  0
   11.9018   13.6248   21.6058 H   0  0  0  0  0  0  0  0  0  0  0  0
    8.2368   14.0826   24.8174 H   0  0  0  0  0  0  0  0  0  0  0  0
  1  2  2  0  0  0  0
  1  5  1  0  0  0  0
  2 11  1  0  0  0  0
  3  4  1  0  0  0  0
  3 11  2  0  0  0  0
  4  5  2  0  0  0  0
  4 13  1  0  0  0  0
  5 18  1  0  0  0  0
  6 13  1  0  0  0  0
  6 14  2  0  0  0  0
  6 17  1  0  0  0  0
  7 10  1  0  0  0  0
  8 10  1  0  0  0  0
  9 10  1  0  0  0  0
 10 17  1  0  0  0  0
 12 18  1  0  0  0  0
 15 18  2  0  0  0  0
 16 18  2  0  0  0  0
  1 19  1  0  0  0  0
  2 20  1  0  0  0  0
  3 21  1  0  0  0  0
  7 22  1  0  0  0  0
  7 23  1  0  0  0  0
  7 24  1  0  0  0  0
  8 25  1  0  0  0  0
  8 26  1  0  0  0  0
  8 27  1  0  0  0  0
  9 28  1  0  0  0  0
  9 29  1  0  0  0  0
  9 30  1  0  0  0  0
 12 31  1  0  0  0  0
 12 32  1  0  0  0  0
 13 33  1  0  0  0  0
M  END
> <Mol Weight>
273,31

> <Formula>
C10H15N3O4S

> <ID>
EN300-6494089

> <name>
Sulfonamides

> <LogP>
0,27

> <ROCS_ShapeQuery>
x0446_0A_x1080_0A_x0929_0A_x0812_0A_x0719_0A_x1140_0A_x0528_0A_x0310_0A

> <ROCS_TanimotoCombo>
0.340 

> <ROCS_ShapeTanimoto>
0.207 

> <ROCS_ColorTanimoto>
0.133 

> <ROCS_RefTversky>
0.191 

> <ROCS_RefColorTversky>
0.149 

> <ROCS_RefTverskyCombo>
0.340 

> <ROCS_FitTversky>
1.663 

> <ROCS_FitColorTversky>
0.562 

> <ROCS_FitTverskyCombo>
2.226 

> <ROCS_ColorScore>
-5.320

> <ROCS_Overlap>
2254.782

> <ROCS_Rank>
254                 

$$$$
untitled-dbase-2099_1
  -OEChem-02082415043D

 28 28  0     0  0  0  0  0  0999 V2000
    9.1461   10.1600   24.0558 C   0  0  0  0  0  0  0  0  0  0  0  0
    8.1010   10.8390   24.6822 C   0  0  0  0  0  0  0  0  0  0  0  0
    8.6283   12.8240   23.4099 C   0  0  0  0  0  0  0  0  0  0  0  0
    9.6734   12.1450   22.7836 C   0  0  0  0  0  0  0  0  0  0  0  0
    9.9323   10.8130   23.1065 C   0  0  0  0  0  0  0  0  0  0  0  0
    7.8421   12.1710   24.3593 C   0  0  0  0  0  0  0  0  0  0  0  0
   10.3328   14.1378   21.3986 C   0  0  0  0  0  0  0  0  0  0  0  0
   11.3721   14.4785   20.3603 C   0  0  0  0  0  0  0  0  0  0  0  0
   12.2260   10.1854   23.1386 C   0  0  0  0  0  0  0  0  0  0  0  0
    7.3374   13.6756   26.5008 N   0  0  0  0  0  0  0  0  0  0  0  0
   10.4528   12.8132   21.8362 N   0  0  0  0  0  0  0  0  0  0  0  0
    9.5156   14.9750   21.7676 O   0  0  0  0  0  0  0  0  0  0  0  0
    6.1085   14.1104   24.2768 O   0  0  0  0  0  0  0  0  0  0  0  0
    5.5584   12.0415   25.6053 O   0  0  0  0  0  0  0  0  0  0  0  0
   10.9490   10.1320   22.5062 O   0  0  0  0  0  0  0  0  0  0  0  0
    6.5334   13.0197   25.1432 S   0  0  0  0  0  0  0  0  0  0  0  0
    9.3434    9.1228   24.3131 H   0  0  0  0  0  0  0  0  0  0  0  0
    7.4957   10.3202   25.4208 H   0  0  0  0  0  0  0  0  0  0  0  0
    8.4263   13.8630   23.1590 H   0  0  0  0  0  0  0  0  0  0  0  0
   10.9841   14.2582   19.3618 H   0  0  0  0  0  0  0  0  0  0  0  0
   12.2736   13.8828   20.5295 H   0  0  0  0  0  0  0  0  0  0  0  0
   11.6321   15.5391   20.4264 H   0  0  0  0  0  0  0  0  0  0  0  0
   12.9452    9.6019   22.5587 H   0  0  0  0  0  0  0  0  0  0  0  0
   12.1485    9.7846   24.1524 H   0  0  0  0  0  0  0  0  0  0  0  0
   12.5567   11.2257   23.1844 H   0  0  0  0  0  0  0  0  0  0  0  0
    7.5067   14.6887   26.5177 H   0  0  0  0  0  0  0  0  0  0  0  0
    7.1316   13.2737   27.4235 H   0  0  0  0  0  0  0  0  0  0  0  0
   11.2088   12.2699   21.4055 H   0  0  0  0  0  0  0  0  0  0  0  0
  1  2  2  0  0  0  0
  1  5  1  0  0  0  0
  2  6  1  0  0  0  0
  3  4  1  0  0  0  0
  3  6  2  0  0  0  0
  4  5  2  0  0  0  0
  4 11  1  0  0  0  0
  5 15  1  0  0  0  0
  6 16  1  0  0  0  0
  7  8  1  0  0  0  0
  7 11  1  0  0  0  0
  7 12  2  0  0  0  0
  9 15  1  0  0  0  0
 10 16  1  0  0  0  0
 13 16  2  0  0  0  0
 14 16  2  0  0  0  0
  1 17  1  0  0  0  0
  2 18  1  0  0  0  0
  3 19  1  0  0  0  0
  8 20  1  0  0  0  0
  8 21  1  0  0  0  0
  8 22  1  0  0  0  0
  9 23  1  0  0  0  0
  9 24  1  0  0  0  0
  9 25  1  0  0  0  0
 10 26  1  0  0  0  0
 10 27  1  0  0  0  0
 11 28  1  0  0  0  0
M  END
> <Mol Weight>
244,27

> <Formula>
C9H12N2O4S

> <ID>
EN300-06008

> <name>
Sulfonamides

> <LogP>
-0,34

> <ROCS_ShapeQuery>
x0446_0A_x1080_0A_x0929_0A_x0812_0A_x0719_0A_x1140_0A_x0528_0A_x0310_0A

> <ROCS_TanimotoCombo>
0.340 

> <ROCS_ShapeTanimoto>
0.208 

> <ROCS_ColorTanimoto>
0.132 

> <ROCS_RefTversky>
0.191 

> <ROCS_RefColorTversky>
0.144 

> <ROCS_RefTverskyCombo>
0.335 

> <ROCS_FitTversky>
1.781 

> <ROCS_FitColorTversky>
0.605 

> <ROCS_FitTverskyCombo>
2.386 

> <ROCS_ColorScore>
-5.150

> <ROCS_Overlap>
2249.989

> <ROCS_Rank>
255                 

$$$$
untitled-dbase-1831_1329
  -OEChem-02082415043D

 33 33  0     1  0  0  0  0  0999 V2000
    6.4470   12.5411   24.6888 C   0  0  0  0  0  0  0  0  0  0  0  0
    8.8254    9.9631   23.5500 C   0  0  0  0  0  0  0  0  0  0  0  0
   10.1409   10.7021   23.2948 C   0  0  0  0  0  0  0  0  0  0  0  0
    7.9967   10.6176   24.6467 C   0  0  0  0  0  0  0  0  0  0  0  0
    8.7205   12.7749   23.6069 C   0  0  0  0  0  0  0  0  0  0  0  0
   10.1150   12.1623   23.7723 C   0  0  2  0  0  0  0  0  0  0  0  0
    6.2041   13.9858   24.3259 C   0  0  0  0  0  0  0  0  0  0  0  0
   10.6708   14.9067   19.5605 C   0  0  0  0  0  0  0  0  0  0  0  0
   11.1731   12.9921   23.0496 C   0  0  0  0  0  0  0  0  0  0  0  0
    7.6864   12.0124   24.3221 N   0  0  0  0  0  0  0  0  0  0  0  0
   10.7013   13.3541   21.7555 N   0  0  0  0  0  0  0  0  0  0  0  0
    5.5707   11.9065   25.2806 O   0  0  0  0  0  0  0  0  0  0  0  0
   11.6092   15.7813   21.8419 O   0  0  0  0  0  0  0  0  0  0  0  0
    9.1249   15.4290   21.5959 O   0  0  0  0  0  0  0  0  0  0  0  0
   10.4894   15.0185   21.3259 S   0  0  0  0  0  0  0  0  0  0  0  0
    8.2416    9.9250   22.6172 H   0  0  0  0  0  0  0  0  0  0  0  0
    9.0394    8.9170   23.8237 H   0  0  0  0  0  0  0  0  0  0  0  0
   10.9646   10.1585   23.7927 H   0  0  0  0  0  0  0  0  0  0  0  0
   10.3696   10.6664   22.2127 H   0  0  0  0  0  0  0  0  0  0  0  0
    7.0395   10.0922   24.7726 H   0  0  0  0  0  0  0  0  0  0  0  0
    8.5283   10.5495   25.6043 H   0  0  0  0  0  0  0  0  0  0  0  0
    8.7388   13.8257   23.9296 H   0  0  0  0  0  0  0  0  0  0  0  0
    8.4245   12.7893   22.5433 H   0  0  0  0  0  0  0  0  0  0  0  0
   10.3678   12.1737   24.8506 H   0  0  0  0  0  0  0  0  0  0  0  0
    5.7556   14.0333   23.3391 H   0  0  0  0  0  0  0  0  0  0  0  0
    7.1504   14.5171   24.3292 H   0  0  0  0  0  0  0  0  0  0  0  0
    5.5367   14.4285   25.0584 H   0  0  0  0  0  0  0  0  0  0  0  0
   10.5587   15.9068   19.1388 H   0  0  0  0  0  0  0  0  0  0  0  0
   11.6623   14.5079   19.3408 H   0  0  0  0  0  0  0  0  0  0  0  0
    9.8967   14.2407   19.1764 H   0  0  0  0  0  0  0  0  0  0  0  0
   11.3556   13.8795   23.6535 H   0  0  0  0  0  0  0  0  0  0  0  0
   12.0687   12.3777   22.9733 H   0  0  0  0  0  0  0  0  0  0  0  0
    9.9935   12.7130   21.3204 H   0  0  0  0  0  0  0  0  0  0  0  0
  1  7  1  0  0  0  0
  1 10  1  0  0  0  0
  1 12  2  0  0  0  0
  2  3  1  0  0  0  0
  2  4  1  0  0  0  0
  3  6  1  0  0  0  0
  4 10  1  0  0  0  0
  5  6  1  0  0  0  0
  5 10  1  0  0  0  0
  6  9  1  0  0  0  0
  8 15  1  0  0  0  0
  9 11  1  0  0  0  0
 11 15  1  0  0  0  0
 13 15  2  0  0  0  0
 14 15  2  0  0  0  0
  2 16  1  0  0  0  0
  2 17  1  0  0  0  0
  3 18  1  0  0  0  0
  3 19  1  0  0  0  0
  4 20  1  0  0  0  0
  4 21  1  0  0  0  0
  5 22  1  0  0  0  0
  5 23  1  0  0  0  0
  6 24  1  0  0  0  0
  7 25  1  0  0  0  0
  7 26  1  0  0  0  0
  7 27  1  0  0  0  0
  8 28  1  0  0  0  0
  8 29  1  0  0  0  0
  8 30  1  0  0  0  0
  9 31  1  0  0  0  0
  9 32  1  0  0  0  0
 11 33  1  0  0  0  0
M  END
> <Mol Weight>
234,31

> <Formula>
C9H18N2O3S

> <ID>
EN300-7530327

> <name>
Sulfonamides

> <LogP>
-1,56

> <ROCS_ShapeQuery>
x0446_0A_x1080_0A_x0929_0A_x0812_0A_x0719_0A_x1140_0A_x0528_0A_x0310_0A

> <ROCS_TanimotoCombo>
0.340 

> <ROCS_ShapeTanimoto>
0.205 

> <ROCS_ColorTanimoto>
0.135 

> <ROCS_RefTversky>
0.188 

> <ROCS_RefColorTversky>
0.141 

> <ROCS_RefTverskyCombo>
0.328 

> <ROCS_FitTversky>
1.853 

> <ROCS_FitColorTversky>
0.757 

> <ROCS_FitTverskyCombo>
2.610 

> <ROCS_ColorScore>
-5.008

> <ROCS_Overlap>
2212.648

> <ROCS_Rank>
256                 

$$$$
untitled-dbase-2789_55
  -OEChem-02082415043D

 31 32  0     0  0  0  0  0  0999 V2000
    8.9230   10.0781   23.6923 C   0  0  0  0  0  0  0  0  0  0  0  0
   12.6104   15.5130   21.4815 C   0  0  0  0  0  0  0  0  0  0  0  0
   11.8291   14.3964   19.4864 C   0  0  0  0  0  0  0  0  0  0  0  0
    9.8446   10.8233   22.9567 C   0  0  0  0  0  0  0  0  0  0  0  0
   13.7171   15.9916   20.7802 C   0  0  0  0  0  0  0  0  0  0  0  0
   12.9358   14.8751   18.7852 C   0  0  0  0  0  0  0  0  0  0  0  0
    7.9163   10.7251   24.4090 C   0  0  0  0  0  0  0  0  0  0  0  0
    8.7529   12.8624   23.6547 C   0  0  0  0  0  0  0  0  0  0  0  0
   11.6664   14.7153   20.8346 C   0  0  0  0  0  0  0  0  0  0  0  0
    9.7596   12.2154   22.9379 C   0  0  0  0  0  0  0  0  0  0  0  0
   13.8798   15.6727   19.4321 C   0  0  0  0  0  0  0  0  0  0  0  0
    7.8313   12.1172   24.3902 C   0  0  0  0  0  0  0  0  0  0  0  0
   10.5126   14.2165   21.5659 C   0  0  0  0  0  0  0  0  0  0  0  0
    7.3429   13.1571   26.7954 N   0  0  0  0  0  0  0  0  0  0  0  0
   10.6960   12.9729   22.1901 N   0  0  0  0  0  0  0  0  0  0  0  0
    9.4420   14.8392   21.5967 O   0  0  0  0  0  0  0  0  0  0  0  0
    6.3352   14.2273   24.6776 O   0  0  0  0  0  0  0  0  0  0  0  0
    5.4628   11.9997   25.4677 O   0  0  0  0  0  0  0  0  0  0  0  0
   14.9424   16.1324   18.7586 F   0  0  0  0  0  0  0  0  0  0  0  0
    6.5717   12.9266   25.2882 S   0  0  0  0  0  0  0  0  0  0  0  0
    8.9887    8.9941   23.7067 H   0  0  0  0  0  0  0  0  0  0  0  0
   12.4934   15.7676   22.5316 H   0  0  0  0  0  0  0  0  0  0  0  0
   11.0992   13.7761   18.9722 H   0  0  0  0  0  0  0  0  0  0  0  0
   10.6244   10.3080   22.4015 H   0  0  0  0  0  0  0  0  0  0  0  0
   14.4520   16.6127   21.2836 H   0  0  0  0  0  0  0  0  0  0  0  0
   13.0629   14.6266   17.7354 H   0  0  0  0  0  0  0  0  0  0  0  0
    7.2038   10.1351   24.9791 H   0  0  0  0  0  0  0  0  0  0  0  0
    8.6858   13.9481   23.6404 H   0  0  0  0  0  0  0  0  0  0  0  0
    7.6224   14.1116   27.0527 H   0  0  0  0  0  0  0  0  0  0  0  0
    7.0270   12.5884   27.5905 H   0  0  0  0  0  0  0  0  0  0  0  0
   11.6211   12.5615   22.0934 H   0  0  0  0  0  0  0  0  0  0  0  0
  1  4  1  0  0  0  0
  1  7  2  0  0  0  0
  2  5  2  0  0  0  0
  2  9  1  0  0  0  0
  3  6  1  0  0  0  0
  3  9  2  0  0  0  0
  4 10  2  0  0  0  0
  5 11  1  0  0  0  0
  6 11  2  0  0  0  0
  7 12  1  0  0  0  0
  8 10  1  0  0  0  0
  8 12  2  0  0  0  0
  9 13  1  0  0  0  0
 10 15  1  0  0  0  0
 11 19  1  0  0  0  0
 12 20  1  0  0  0  0
 13 15  1  0  0  0  0
 13 16  2  0  0  0  0
 14 20  1  0  0  0  0
 17 20  2  0  0  0  0
 18 20  2  0  0  0  0
  1 21  1  0  0  0  0
  2 22  1  0  0  0  0
  3 23  1  0  0  0  0
  4 24  1  0  0  0  0
  5 25  1  0  0  0  0
  6 26  1  0  0  0  0
  7 27  1  0  0  0  0
  8 28  1  0  0  0  0
 14 29  1  0  0  0  0
 14 30  1  0  0  0  0
 15 31  1  0  0  0  0
M  END
> <Mol Weight>
294,30

> <Formula>
C13H11FN2O3S

> <ID>
EN300-17944866

> <name>
Sulfonamides

> <LogP>
1,81

> <ROCS_ShapeQuery>
x0446_0A_x1080_0A_x0929_0A_x0812_0A_x0719_0A_x1140_0A_x0528_0A_x0310_0A

> <ROCS_TanimotoCombo>
0.340 

> <ROCS_ShapeTanimoto>
0.204 

> <ROCS_ColorTanimoto>
0.136 

> <ROCS_RefTversky>
0.190 

> <ROCS_RefColorTversky>
0.148 

> <ROCS_RefTverskyCombo>
0.338 

> <ROCS_FitTversky>
1.547 

> <ROCS_FitColorTversky>
0.620 

> <ROCS_FitTverskyCombo>
2.167 

> <ROCS_ColorScore>
-5.278

> <ROCS_Overlap>
2247.818

> <ROCS_Rank>
257                 

$$$$
untitled-dbase-1114_0
  -OEChem-02082415043D

 22 23  0     0  0  0  0  0  0999 V2000
    5.5084   12.7078   25.8175 C   0  0  0  0  0  0  0  0  0  0  0  0
    6.2304   13.8220   25.3959 C   0  0  0  0  0  0  0  0  0  0  0  0
    5.9340   11.4266   25.4678 C   0  0  0  0  0  0  0  0  0  0  0  0
    7.3812   13.6599   24.6227 C   0  0  0  0  0  0  0  0  0  0  0  0
    7.5616    9.9929   24.3114 C   0  0  0  0  0  0  0  0  0  0  0  0
    9.3460   10.8835   23.1723 C   0  0  0  0  0  0  0  0  0  0  0  0
    7.0907   11.2516   24.6902 C   0  0  0  0  0  0  0  0  0  0  0  0
    7.8243   12.3770   24.2613 C   0  0  0  0  0  0  0  0  0  0  0  0
    8.9740   12.1815   23.4872 C   0  0  0  0  0  0  0  0  0  0  0  0
    8.6691    9.7832   23.5645 N   0  0  0  0  0  0  0  0  0  0  0  0
   11.1751   12.6123   22.0471 N   0  0  0  0  0  0  0  0  0  0  0  0
    9.1947   14.2588   21.9350 O   0  0  0  0  0  0  0  0  0  0  0  0
   10.5908   14.1503   24.0295 O   0  0  0  0  0  0  0  0  0  0  0  0
    9.9753   13.4876   22.8901 S   0  0  0  0  0  0  0  0  0  0  0  0
    4.6133   12.8368   26.4191 H   0  0  0  0  0  0  0  0  0  0  0  0
    5.8972   14.8191   25.6694 H   0  0  0  0  0  0  0  0  0  0  0  0
    5.3586   10.5676   25.8053 H   0  0  0  0  0  0  0  0  0  0  0  0
    7.9126   14.5571   24.3164 H   0  0  0  0  0  0  0  0  0  0  0  0
    7.0437    9.0849   24.6081 H   0  0  0  0  0  0  0  0  0  0  0  0
   10.2292   10.6781   22.5747 H   0  0  0  0  0  0  0  0  0  0  0  0
   11.1661   12.6500   21.0205 H   0  0  0  0  0  0  0  0  0  0  0  0
   12.1181   12.5752   22.4529 H   0  0  0  0  0  0  0  0  0  0  0  0
  1  2  1  0  0  0  0
  1  3  2  0  0  0  0
  2  4  2  0  0  0  0
  3  7  1  0  0  0  0
  4  8  1  0  0  0  0
  5  7  2  0  0  0  0
  5 10  1  0  0  0  0
  6  9  1  0  0  0  0
  6 10  2  0  0  0  0
  7  8  1  0  0  0  0
  8  9  2  0  0  0  0
  9 14  1  0  0  0  0
 11 14  1  0  0  0  0
 12 14  2  0  0  0  0
 13 14  2  0  0  0  0
  1 15  1  0  0  0  0
  2 16  1  0  0  0  0
  3 17  1  0  0  0  0
  4 18  1  0  0  0  0
  5 19  1  0  0  0  0
  6 20  1  0  0  0  0
 11 21  1  0  0  0  0
 11 22  1  0  0  0  0
M  END
> <Mol Weight>
208,24

> <Formula>
C9H8N2O2S

> <ID>
EN300-275738

> <name>
Sulfonamides

> <LogP>
0,35

> <ROCS_ShapeQuery>
x0446_0A_x1080_0A_x0929_0A_x0812_0A_x0719_0A_x1140_0A_x0528_0A_x0310_0A

> <ROCS_TanimotoCombo>
0.340 

> <ROCS_ShapeTanimoto>
0.201 

> <ROCS_ColorTanimoto>
0.139 

> <ROCS_RefTversky>
0.184 

> <ROCS_RefColorTversky>
0.148 

> <ROCS_RefTverskyCombo>
0.332 

> <ROCS_FitTversky>
1.806 

> <ROCS_FitColorTversky>
0.695 

> <ROCS_FitTverskyCombo>
2.501 

> <ROCS_ColorScore>
-5.260

> <ROCS_Overlap>
2175.503

> <ROCS_Rank>
258                 

$$$$
untitled-dbase-768_3
  -OEChem-02082415043D

 24 25  0     0  0  0  0  0  0999 V2000
    9.1251    9.9740   25.1333 C   0  0  0  0  0  0  0  0  0  0  0  0
    7.8938   10.6106   25.3553 C   0  0  0  0  0  0  0  0  0  0  0  0
    9.8509   10.2154   23.9650 C   0  0  0  0  0  0  0  0  0  0  0  0
    7.3710   11.4980   24.4123 C   0  0  0  0  0  0  0  0  0  0  0  0
    9.3304   11.1058   23.0410 C   0  0  0  0  0  0  0  0  0  0  0  0
    8.1035   11.7407   23.2624 C   0  0  0  0  0  0  0  0  0  0  0  0
    9.9046   11.4941   21.7134 C   0  0  0  0  0  0  0  0  0  0  0  0
    7.7354   12.6171   22.1051 C   0  0  0  0  0  0  0  0  0  0  0  0
    9.0856   12.7538   21.3789 C   0  0  0  0  0  0  0  0  0  0  0  0
   11.3620   14.0618   20.9816 N   0  0  0  0  0  0  0  0  0  0  0  0
    9.1891   15.3641   21.4278 O   0  0  0  0  0  0  0  0  0  0  0  0
   10.2649   14.0633   23.3083 O   0  0  0  0  0  0  0  0  0  0  0  0
    9.9416   14.2232   21.9059 S   0  0  0  0  0  0  0  0  0  0  0  0
    9.5132    9.2821   25.8760 H   0  0  0  0  0  0  0  0  0  0  0  0
    7.3404   10.4052   26.2677 H   0  0  0  0  0  0  0  0  0  0  0  0
   10.7971    9.7146   23.7908 H   0  0  0  0  0  0  0  0  0  0  0  0
    6.4147   11.9811   24.5813 H   0  0  0  0  0  0  0  0  0  0  0  0
   10.9803   11.6845   21.7698 H   0  0  0  0  0  0  0  0  0  0  0  0
    9.7047   10.6977   20.9884 H   0  0  0  0  0  0  0  0  0  0  0  0
    7.0075   12.0951   21.4748 H   0  0  0  0  0  0  0  0  0  0  0  0
    7.3245   13.5770   22.4311 H   0  0  0  0  0  0  0  0  0  0  0  0
    8.9548   12.8793   20.2989 H   0  0  0  0  0  0  0  0  0  0  0  0
   11.4984   14.7062   20.1930 H   0  0  0  0  0  0  0  0  0  0  0  0
   12.2309   13.8200   21.4737 H   0  0  0  0  0  0  0  0  0  0  0  0
  1  2  1  0  0  0  0
  1  3  2  0  0  0  0
  2  4  2  0  0  0  0
  3  5  1  0  0  0  0
  4  6  1  0  0  0  0
  5  6  2  0  0  0  0
  5  7  1  0  0  0  0
  6  8  1  0  0  0  0
  7  9  1  0  0  0  0
  8  9  1  0  0  0  0
  9 13  1  0  0  0  0
 10 13  1  0  0  0  0
 11 13  2  0  0  0  0
 12 13  2  0  0  0  0
  1 14  1  0  0  0  0
  2 15  1  0  0  0  0
  3 16  1  0  0  0  0
  4 17  1  0  0  0  0
  7 18  1  0  0  0  0
  7 19  1  0  0  0  0
  8 20  1  0  0  0  0
  8 21  1  0  0  0  0
  9 22  1  0  0  0  0
 10 23  1  0  0  0  0
 10 24  1  0  0  0  0
M  END
> <Mol Weight>
197,25

> <Formula>
C9H11NO2S

> <ID>
EN300-274051

> <name>
Sulfonamides

> <LogP>
0,88

> <ROCS_ShapeQuery>
x0446_0A_x1080_0A_x0929_0A_x0812_0A_x0719_0A_x1140_0A_x0528_0A_x0310_0A

> <ROCS_TanimotoCombo>
0.340 

> <ROCS_ShapeTanimoto>
0.170 

> <ROCS_ColorTanimoto>
0.169 

> <ROCS_RefTversky>
0.160 

> <ROCS_RefColorTversky>
0.172 

> <ROCS_RefTverskyCombo>
0.331 

> <ROCS_FitTversky>
1.640 

> <ROCS_FitColorTversky>
0.922 

> <ROCS_FitTverskyCombo>
2.562 

> <ROCS_ColorScore>
-6.109

> <ROCS_Overlap>
1883.254

> <ROCS_Rank>
259                 

$$$$
untitled-dbase-2106_509
  -OEChem-02082415043D

 27 27  0     0  0  0  0  0  0999 V2000
    7.8875   13.1770   24.6280 C   0  0  0  0  0  0  0  0  0  0  0  0
    9.0350   13.8038   24.1424 C   0  0  0  0  0  0  0  0  0  0  0  0
    9.8195   11.6917   23.2701 C   0  0  0  0  0  0  0  0  0  0  0  0
    7.7059   11.8075   24.4347 C   0  0  0  0  0  0  0  0  0  0  0  0
   10.0010   13.0612   23.4634 C   0  0  0  0  0  0  0  0  0  0  0  0
    8.6719   11.0649   23.7558 C   0  0  0  0  0  0  0  0  0  0  0  0
    6.5005   11.1728   24.9497 C   0  0  0  0  0  0  0  0  0  0  0  0
    5.3429    9.0963   25.1292 C   0  0  0  0  0  0  0  0  0  0  0  0
   12.0112   14.7574   20.6421 C   0  0  0  0  0  0  0  0  0  0  0  0
   11.1759   13.7029   22.9665 N   0  0  0  0  0  0  0  0  0  0  0  0
    5.6040   11.7681   25.5596 O   0  0  0  0  0  0  0  0  0  0  0  0
    9.6195   15.2050   21.5624 O   0  0  0  0  0  0  0  0  0  0  0  0
   11.5783   16.2783   22.7271 O   0  0  0  0  0  0  0  0  0  0  0  0
    8.5132    9.7258   23.5578 O   0  0  0  0  0  0  0  0  0  0  0  0
    6.4822    9.8337   24.6734 O   0  0  0  0  0  0  0  0  0  0  0  0
   10.9870   15.1448   22.0441 S   0  0  0  0  0  0  0  0  0  0  0  0
    7.1421   13.7668   25.1558 H   0  0  0  0  0  0  0  0  0  0  0  0
    9.1675   14.8712   24.2989 H   0  0  0  0  0  0  0  0  0  0  0  0
   10.5706   11.1087   22.7424 H   0  0  0  0  0  0  0  0  0  0  0  0
    5.4507    8.0462   24.8468 H   0  0  0  0  0  0  0  0  0  0  0  0
    4.4360    9.5132   24.6840 H   0  0  0  0  0  0  0  0  0  0  0  0
    5.2812    9.1741   26.2173 H   0  0  0  0  0  0  0  0  0  0  0  0
   11.9871   15.6036   19.9537 H   0  0  0  0  0  0  0  0  0  0  0  0
   13.0280   14.5816   20.9966 H   0  0  0  0  0  0  0  0  0  0  0  0
   11.6133   13.8622   20.1619 H   0  0  0  0  0  0  0  0  0  0  0  0
   11.9644   13.7198   23.6343 H   0  0  0  0  0  0  0  0  0  0  0  0
    9.2725    9.3671   23.0727 H   0  0  0  0  0  0  0  0  0  0  0  0
  1  2  2  0  0  0  0
  1  4  1  0  0  0  0
  2  5  1  0  0  0  0
  3  5  2  0  0  0  0
  3  6  1  0  0  0  0
  4  6  2  0  0  0  0
  4  7  1  0  0  0  0
  5 10  1  0  0  0  0
  6 14  1  0  0  0  0
  7 11  2  0  0  0  0
  7 15  1  0  0  0  0
  8 15  1  0  0  0  0
  9 16  1  0  0  0  0
 10 16  1  0  0  0  0
 12 16  2  0  0  0  0
 13 16  2  0  0  0  0
  1 17  1  0  0  0  0
  2 18  1  0  0  0  0
  3 19  1  0  0  0  0
  8 20  1  0  0  0  0
  8 21  1  0  0  0  0
  8 22  1  0  0  0  0
  9 23  1  0  0  0  0
  9 24  1  0  0  0  0
  9 25  1  0  0  0  0
 10 26  1  0  0  0  0
 14 27  1  0  0  0  0
M  END
> <Mol Weight>
245,25

> <Formula>
C9H11NO5S

> <ID>
EN300-37086188

> <name>
Sulfonamides

> <LogP>
0,70

> <ROCS_ShapeQuery>
x0446_0A_x1080_0A_x0929_0A_x0812_0A_x0719_0A_x1140_0A_x0528_0A_x0310_0A

> <ROCS_TanimotoCombo>
0.339 

> <ROCS_ShapeTanimoto>
0.208 

> <ROCS_ColorTanimoto>
0.132 

> <ROCS_RefTversky>
0.190 

> <ROCS_RefColorTversky>
0.144 

> <ROCS_RefTverskyCombo>
0.335 

> <ROCS_FitTversky>
1.770 

> <ROCS_FitColorTversky>
0.605 

> <ROCS_FitTverskyCombo>
2.375 

> <ROCS_ColorScore>
-5.151

> <ROCS_Overlap>
2245.372

> <ROCS_Rank>
260                 

$$$$
untitled-dbase-290_7
  -OEChem-02082415043D

 18 18  0     0  0  0  0  0  0999 V2000
    9.5938   10.2415   24.0054 C   0  0  0  0  0  0  0  0  0  0  0  0
   10.2950   11.4177   23.8557 C   0  0  0  0  0  0  0  0  0  0  0  0
    7.6256   11.4003   23.8926 C   0  0  0  0  0  0  0  0  0  0  0  0
    8.3267   12.5767   23.7435 C   0  0  0  0  0  0  0  0  0  0  0  0
    7.6069   13.8720   23.5986 C   0  0  0  0  0  0  0  0  0  0  0  0
    8.2465   10.2117   24.0265 N   0  0  0  0  0  0  0  0  0  0  0  0
    9.6740   12.6065   23.7221 N   0  0  0  0  0  0  0  0  0  0  0  0
    6.4290   15.4770   21.8414 N   0  0  0  0  0  0  0  0  0  0  0  0
    8.9742   15.1155   21.7516 O   0  0  0  0  0  0  0  0  0  0  0  0
    7.4289   13.2358   21.0705 O   0  0  0  0  0  0  0  0  0  0  0  0
    7.7320   14.3797   21.9133 S   0  0  0  0  0  0  0  0  0  0  0  0
   10.0936    9.2868   24.1129 H   0  0  0  0  0  0  0  0  0  0  0  0
   11.3776   11.4409   23.8387 H   0  0  0  0  0  0  0  0  0  0  0  0
    6.5425   11.3687   23.9103 H   0  0  0  0  0  0  0  0  0  0  0  0
    8.0413   14.6641   24.2208 H   0  0  0  0  0  0  0  0  0  0  0  0
    6.5414   13.7887   23.8456 H   0  0  0  0  0  0  0  0  0  0  0  0
    6.6501   16.4778   21.7701 H   0  0  0  0  0  0  0  0  0  0  0  0
    5.5976   15.1975   21.3064 H   0  0  0  0  0  0  0  0  0  0  0  0
  1  2  2  0  0  0  0
  1  6  1  0  0  0  0
  2  7  1  0  0  0  0
  3  4  1  0  0  0  0
  3  6  2  0  0  0  0
  4  5  1  0  0  0  0
  4  7  2  0  0  0  0
  5 11  1  0  0  0  0
  8 11  1  0  0  0  0
  9 11  2  0  0  0  0
 10 11  2  0  0  0  0
  1 12  1  0  0  0  0
  2 13  1  0  0  0  0
  3 14  1  0  0  0  0
  5 15  1  0  0  0  0
  5 16  1  0  0  0  0
  8 17  1  0  0  0  0
  8 18  1  0  0  0  0
M  END
> <Mol Weight>
173,19

> <Formula>
C5H7N3O2S

> <ID>
EN300-277240

> <name>
Sulfonamides

> <LogP>
-1,71

> <ROCS_ShapeQuery>
x0446_0A_x1080_0A_x0929_0A_x0812_0A_x0719_0A_x1140_0A_x0528_0A_x0310_0A

> <ROCS_TanimotoCombo>
0.339 

> <ROCS_ShapeTanimoto>
0.165 

> <ROCS_ColorTanimoto>
0.174 

> <ROCS_RefTversky>
0.154 

> <ROCS_RefColorTversky>
0.180 

> <ROCS_RefTverskyCombo>
0.334 

> <ROCS_FitTversky>
1.720 

> <ROCS_FitColorTversky>
0.848 

> <ROCS_FitTverskyCombo>
2.569 

> <ROCS_ColorScore>
-6.416

> <ROCS_Overlap>
1817.312

> <ROCS_Rank>
261                 

$$$$
untitled-dbase-1366_15
  -OEChem-02082415043D

 22 22  0     0  0  0  0  0  0999 V2000
    9.5701   10.2842   23.5386 C   0  0  0  0  0  0  0  0  0  0  0  0
    9.9380   11.6038   23.2762 C   0  0  0  0  0  0  0  0  0  0  0  0
    8.3616   10.0113   24.1796 C   0  0  0  0  0  0  0  0  0  0  0  0
    7.8890   12.3778   24.2959 C   0  0  0  0  0  0  0  0  0  0  0  0
    9.0975   12.6506   23.6549 C   0  0  0  0  0  0  0  0  0  0  0  0
    7.5211   11.0582   24.5583 C   0  0  0  0  0  0  0  0  0  0  0  0
    9.4913   14.0614   23.3751 C   0  0  0  0  0  0  0  0  0  0  0  0
   10.7255   13.6340   21.0631 N   0  0  0  0  0  0  0  0  0  0  0  0
    6.2905   10.7803   25.2096 N   0  3  0  0  0  0  0  0  0  0  0  0
    5.9777    9.5861   25.4353 O   0  5  0  0  0  0  0  0  0  0  0  0
    5.5486   11.7365   25.5417 O   0  0  0  0  0  0  0  0  0  0  0  0
    8.1570   13.5666   21.1838 O   0  0  0  0  0  0  0  0  0  0  0  0
    9.3525   15.7810   21.4127 O   0  0  0  0  0  0  0  0  0  0  0  0
    9.2912   14.3482   21.6464 S   0  0  0  0  0  0  0  0  0  0  0  0
   10.2242    9.4690   23.2432 H   0  0  0  0  0  0  0  0  0  0  0  0
   10.8814   11.8074   22.7769 H   0  0  0  0  0  0  0  0  0  0  0  0
    8.0870    8.9783   24.3778 H   0  0  0  0  0  0  0  0  0  0  0  0
    7.2370   13.1977   24.5895 H   0  0  0  0  0  0  0  0  0  0  0  0
   10.5386   14.2597   23.6306 H   0  0  0  0  0  0  0  0  0  0  0  0
    8.8639   14.7828   23.9111 H   0  0  0  0  0  0  0  0  0  0  0  0
   10.6435   12.7498   20.5464 H   0  0  0  0  0  0  0  0  0  0  0  0
   11.4578   14.2580   20.7024 H   0  0  0  0  0  0  0  0  0  0  0  0
  1  2  2  0  0  0  0
  1  3  1  0  0  0  0
  2  5  1  0  0  0  0
  3  6  2  0  0  0  0
  4  5  2  0  0  0  0
  4  6  1  0  0  0  0
  5  7  1  0  0  0  0
  6  9  1  0  0  0  0
  7 14  1  0  0  0  0
  8 14  1  0  0  0  0
  9 10  1  0  0  0  0
  9 11  2  0  0  0  0
 12 14  2  0  0  0  0
 13 14  2  0  0  0  0
  1 15  1  0  0  0  0
  2 16  1  0  0  0  0
  3 17  1  0  0  0  0
  4 18  1  0  0  0  0
  7 19  1  0  0  0  0
  7 20  1  0  0  0  0
  8 21  1  0  0  0  0
  8 22  1  0  0  0  0
M  CHG  2   9   1  10  -1
M  END
> <Mol Weight>
216,21

> <Formula>
C7H8N2O4S

> <ID>
EN300-201320

> <name>
Sulfonamides

> <LogP>
0,28

> <ROCS_ShapeQuery>
x0446_0A_x1080_0A_x0929_0A_x0812_0A_x0719_0A_x1140_0A_x0528_0A_x0310_0A

> <ROCS_TanimotoCombo>
0.339 

> <ROCS_ShapeTanimoto>
0.188 

> <ROCS_ColorTanimoto>
0.151 

> <ROCS_RefTversky>
0.175 

> <ROCS_RefColorTversky>
0.159 

> <ROCS_RefTverskyCombo>
0.333 

> <ROCS_FitTversky>
1.737 

> <ROCS_FitColorTversky>
0.747 

> <ROCS_FitTverskyCombo>
2.484 

> <ROCS_ColorScore>
-5.660

> <ROCS_Overlap>
2057.842

> <ROCS_Rank>
262                 

$$$$
untitled-dbase-2643_48
  -OEChem-02082415043D

 29 29  0     0  0  0  0  0  0999 V2000
    8.8963   10.0562   23.7165 C   0  0  0  0  0  0  0  0  0  0  0  0
    9.8182   10.7912   22.9711 C   0  0  0  0  0  0  0  0  0  0  0  0
    7.8978   10.7138   24.4351 C   0  0  0  0  0  0  0  0  0  0  0  0
    8.7432   12.8413   23.6630 C   0  0  0  0  0  0  0  0  0  0  0  0
    9.7417   12.1837   22.9444 C   0  0  0  0  0  0  0  0  0  0  0  0
    7.8213   12.1063   24.4084 C   0  0  0  0  0  0  0  0  0  0  0  0
   10.4791   14.1612   21.5696 C   0  0  0  0  0  0  0  0  0  0  0  0
    8.5512   13.9781   26.9106 C   0  0  0  0  0  0  0  0  0  0  0  0
   11.7432   14.6083   20.8613 C   0  0  0  0  0  0  0  0  0  0  0  0
   12.5659   15.3744   21.7627 N   0  0  0  0  0  0  0  0  0  0  0  0
   10.6635   12.9189   22.1987 N   0  0  0  0  0  0  0  0  0  0  0  0
    7.3176   13.1834   26.8254 N   0  0  0  0  0  0  0  0  0  0  0  0
    9.4564   14.8391   21.5723 O   0  0  0  0  0  0  0  0  0  0  0  0
    6.3227   14.2242   24.6891 O   0  0  0  0  0  0  0  0  0  0  0  0
    5.4650   11.9982   25.4852 O   0  0  0  0  0  0  0  0  0  0  0  0
    6.5720   12.9288   25.3087 S   0  0  0  0  0  0  0  0  0  0  0  0
    8.9552    8.9720   23.7371 H   0  0  0  0  0  0  0  0  0  0  0  0
   10.5915   10.2677   22.4146 H   0  0  0  0  0  0  0  0  0  0  0  0
    7.1849   10.1317   25.0129 H   0  0  0  0  0  0  0  0  0  0  0  0
    8.6828   13.9272   23.6426 H   0  0  0  0  0  0  0  0  0  0  0  0
    8.5918   14.6846   26.0684 H   0  0  0  0  0  0  0  0  0  0  0  0
    8.5629   14.5364   27.8583 H   0  0  0  0  0  0  0  0  0  0  0  0
    9.4225   13.3079   26.8690 H   0  0  0  0  0  0  0  0  0  0  0  0
   11.4832   15.2216   19.9928 H   0  0  0  0  0  0  0  0  0  0  0  0
   12.2907   13.7247   20.5186 H   0  0  0  0  0  0  0  0  0  0  0  0
   13.3998   15.6556   21.2903 H   0  0  0  0  0  0  0  0  0  0  0  0
   12.0614   16.1822   22.0635 H   0  0  0  0  0  0  0  0  0  0  0  0
   11.5967   12.5042   22.0934 H   0  0  0  0  0  0  0  0  0  0  0  0
    7.1777   12.4875   27.5680 H   0  0  0  0  0  0  0  0  0  0  0  0
  1  2  1  0  0  0  0
  1  3  2  0  0  0  0
  2  5  2  0  0  0  0
  3  6  1  0  0  0  0
  4  5  1  0  0  0  0
  4  6  2  0  0  0  0
  5 11  1  0  0  0  0
  6 16  1  0  0  0  0
  7  9  1  0  0  0  0
  7 11  1  0  0  0  0
  7 13  2  0  0  0  0
  8 12  1  0  0  0  0
  9 10  1  0  0  0  0
 12 16  1  0  0  0  0
 14 16  2  0  0  0  0
 15 16  2  0  0  0  0
  1 17  1  0  0  0  0
  2 18  1  0  0  0  0
  3 19  1  0  0  0  0
  4 20  1  0  0  0  0
  8 21  1  0  0  0  0
  8 22  1  0  0  0  0
  8 23  1  0  0  0  0
  9 24  1  0  0  0  0
  9 25  1  0  0  0  0
 10 26  1  0  0  0  0
 10 27  1  0  0  0  0
 11 28  1  0  0  0  0
 12 29  1  0  0  0  0
M  END
> <Mol Weight>
279,74

> <Formula>
C9H14ClN3O3S

> <ID>
EN300-66100

> <name>
Sulfonamides

> <LogP>
-0,88

> <ROCS_ShapeQuery>
x0446_0A_x1080_0A_x0929_0A_x0812_0A_x0719_0A_x1140_0A_x0528_0A_x0310_0A

> <ROCS_TanimotoCombo>
0.339 

> <ROCS_ShapeTanimoto>
0.206 

> <ROCS_ColorTanimoto>
0.133 

> <ROCS_RefTversky>
0.189 

> <ROCS_RefColorTversky>
0.149 

> <ROCS_RefTverskyCombo>
0.338 

> <ROCS_FitTversky>
1.775 

> <ROCS_FitColorTversky>
0.562 

> <ROCS_FitTverskyCombo>
2.337 

> <ROCS_ColorScore>
-5.315

> <ROCS_Overlap>
2228.362

> <ROCS_Rank>
263                 

$$$$
untitled-dbase-1620_1
  -OEChem-02082415043D

 25 26  0     0  0  0  0  0  0999 V2000
    8.7676   12.9609   24.1891 C   0  0  0  0  0  0  0  0  0  0  0  0
    9.4657   10.7642   23.5221 C   0  0  0  0  0  0  0  0  0  0  0  0
    7.5632   12.3696   24.5902 C   0  0  0  0  0  0  0  0  0  0  0  0
    9.7387   12.1229   23.6407 C   0  0  0  0  0  0  0  0  0  0  0  0
    6.3421   12.7703   25.1681 C   0  0  0  0  0  0  0  0  0  0  0  0
    7.4213   11.0019   24.4154 C   0  0  0  0  0  0  0  0  0  0  0  0
    5.9381   14.1298   25.5677 C   0  0  0  0  0  0  0  0  0  0  0  0
    5.5664    9.3831   24.9109 C   0  0  0  0  0  0  0  0  0  0  0  0
    8.3186   10.1466   23.8950 N   0  0  0  0  0  0  0  0  0  0  0  0
    5.4947   11.7516   25.3473 N   0  0  0  0  0  0  0  0  0  0  0  0
    6.1779   10.6906   24.8808 N   0  0  0  0  0  0  0  0  0  0  0  0
   10.9143   13.1517   21.4810 N   0  0  0  0  0  0  0  0  0  0  0  0
   11.5209   14.0095   23.8351 O   0  0  0  0  0  0  0  0  0  0  0  0
   12.2593   11.7048   23.1346 O   0  0  0  0  0  0  0  0  0  0  0  0
   11.2668   12.7715   23.1097 S   0  0  0  0  0  0  0  0  0  0  0  0
    8.9364   14.0269   24.3004 H   0  0  0  0  0  0  0  0  0  0  0  0
   10.2067   10.0915   23.0963 H   0  0  0  0  0  0  0  0  0  0  0  0
    5.4371   14.6579   24.7387 H   0  0  0  0  0  0  0  0  0  0  0  0
    5.2432   14.1223   26.4260 H   0  0  0  0  0  0  0  0  0  0  0  0
    6.8000   14.7448   25.8818 H   0  0  0  0  0  0  0  0  0  0  0  0
    5.8191    8.9144   25.8656 H   0  0  0  0  0  0  0  0  0  0  0  0
    4.4823    9.4858   24.8105 H   0  0  0  0  0  0  0  0  0  0  0  0
    5.9483    8.7864   24.0778 H   0  0  0  0  0  0  0  0  0  0  0  0
   10.8300   14.1429   21.2244 H   0  0  0  0  0  0  0  0  0  0  0  0
   11.3332   12.5671   20.7475 H   0  0  0  0  0  0  0  0  0  0  0  0
  1  3  1  0  0  0  0
  1  4  2  0  0  0  0
  2  4  1  0  0  0  0
  2  9  2  0  0  0  0
  3  5  1  0  0  0  0
  3  6  2  0  0  0  0
  4 15  1  0  0  0  0
  5  7  1  0  0  0  0
  5 10  2  0  0  0  0
  6  9  1  0  0  0  0
  6 11  1  0  0  0  0
  8 11  1  0  0  0  0
 10 11  1  0  0  0  0
 12 15  1  0  0  0  0
 13 15  2  0  0  0  0
 14 15  2  0  0  0  0
  1 16  1  0  0  0  0
  2 17  1  0  0  0  0
  7 18  1  0  0  0  0
  7 19  1  0  0  0  0
  7 20  1  0  0  0  0
  8 21  1  0  0  0  0
  8 22  1  0  0  0  0
  8 23  1  0  0  0  0
 12 24  1  0  0  0  0
 12 25  1  0  0  0  0
M  END
> <Mol Weight>
226,25

> <Formula>
C8H10N4O2S

> <ID>
EN300-219561

> <name>
Sulfonamides

> <LogP>
-0,69

> <ROCS_ShapeQuery>
x0446_0A_x1080_0A_x0929_0A_x0812_0A_x0719_0A_x1140_0A_x0528_0A_x0310_0A

> <ROCS_TanimotoCombo>
0.339 

> <ROCS_ShapeTanimoto>
0.198 

> <ROCS_ColorTanimoto>
0.141 

> <ROCS_RefTversky>
0.183 

> <ROCS_RefColorTversky>
0.153 

> <ROCS_RefTverskyCombo>
0.336 

> <ROCS_FitTversky>
1.721 

> <ROCS_FitColorTversky>
0.639 

> <ROCS_FitTverskyCombo>
2.360 

> <ROCS_ColorScore>
-5.456

> <ROCS_Overlap>
2159.369

> <ROCS_Rank>
264                 

$$$$
untitled-dbase-2295_20
  -OEChem-02082415043D

 23 23  0     0  0  0  0  0  0999 V2000
    9.2438   10.1659   23.6669 C   0  0  0  0  0  0  0  0  0  0  0  0
   10.2421   11.1237   23.4893 C   0  0  0  0  0  0  0  0  0  0  0  0
    7.9725   10.5537   24.0901 C   0  0  0  0  0  0  0  0  0  0  0  0
    8.6979   12.8572   24.1584 C   0  0  0  0  0  0  0  0  0  0  0  0
    9.9692   12.4694   23.7351 C   0  0  0  0  0  0  0  0  0  0  0  0
    7.6996   11.8994   24.3359 C   0  0  0  0  0  0  0  0  0  0  0  0
    8.4048   14.3028   24.4217 C   0  0  0  0  0  0  0  0  0  0  0  0
    7.2735   14.8597   23.5580 C   0  0  0  0  0  0  0  0  0  0  0  0
    6.5109   15.8764   21.2265 N   0  0  0  0  0  0  0  0  0  0  0  0
    8.9526   15.1467   21.5767 O   0  0  0  0  0  0  0  0  0  0  0  0
    7.1450   13.3896   21.4017 O   0  0  0  0  0  0  0  0  0  0  0  0
    7.5923   14.7039   21.8286 S   0  0  0  0  0  0  0  0  0  0  0  0
   11.2343   13.6215   23.5020 Cl  0  0  0  0  0  0  0  0  0  0  0  0
    6.1111   12.3357   24.8542 Cl  0  0  0  0  0  0  0  0  0  0  0  0
    9.4570    9.1181   23.4765 H   0  0  0  0  0  0  0  0  0  0  0  0
   11.2279   10.8038   23.1610 H   0  0  0  0  0  0  0  0  0  0  0  0
    7.2062    9.7944   24.2230 H   0  0  0  0  0  0  0  0  0  0  0  0
    9.3124   14.8955   24.2258 H   0  0  0  0  0  0  0  0  0  0  0  0
    8.1685   14.4669   25.4849 H   0  0  0  0  0  0  0  0  0  0  0  0
    6.3477   14.3056   23.7430 H   0  0  0  0  0  0  0  0  0  0  0  0
    7.0861   15.9194   23.7563 H   0  0  0  0  0  0  0  0  0  0  0  0
    6.9093   16.7423   20.8430 H   0  0  0  0  0  0  0  0  0  0  0  0
    5.6781   15.5456   20.7239 H   0  0  0  0  0  0  0  0  0  0  0  0
  1  2  1  0  0  0  0
  1  3  2  0  0  0  0
  2  5  2  0  0  0  0
  3  6  1  0  0  0  0
  4  5  1  0  0  0  0
  4  6  2  0  0  0  0
  4  7  1  0  0  0  0
  5 13  1  0  0  0  0
  6 14  1  0  0  0  0
  7  8  1  0  0  0  0
  8 12  1  0  0  0  0
  9 12  1  0  0  0  0
 10 12  2  0  0  0  0
 11 12  2  0  0  0  0
  1 15  1  0  0  0  0
  2 16  1  0  0  0  0
  3 17  1  0  0  0  0
  7 18  1  0  0  0  0
  7 19  1  0  0  0  0
  8 20  1  0  0  0  0
  8 21  1  0  0  0  0
  9 22  1  0  0  0  0
  9 23  1  0  0  0  0
M  END
> <Mol Weight>
254,13

> <Formula>
C8H9Cl2NO2S

> <ID>
EN300-37375558

> <name>
Sulfonamides

> <LogP>
1,84

> <ROCS_ShapeQuery>
x0446_0A_x1080_0A_x0929_0A_x0812_0A_x0719_0A_x1140_0A_x0528_0A_x0310_0A

> <ROCS_TanimotoCombo>
0.339 

> <ROCS_ShapeTanimoto>
0.201 

> <ROCS_ColorTanimoto>
0.138 

> <ROCS_RefTversky>
0.183 

> <ROCS_RefColorTversky>
0.141 

> <ROCS_RefTverskyCombo>
0.324 

> <ROCS_FitTversky>
1.879 

> <ROCS_FitColorTversky>
0.884 

> <ROCS_FitTverskyCombo>
2.763 

> <ROCS_ColorScore>
-5.007

> <ROCS_Overlap>
2162.561

> <ROCS_Rank>
265                 

$$$$
untitled-dbase-1128_3
  -OEChem-02082415043D

 21 22  0     0  0  0  0  0  0999 V2000
    8.2417   10.1291   24.4967 C   0  0  0  0  0  0  0  0  0  0  0  0
    8.0747   11.2609   25.2807 C   0  0  0  0  0  0  0  0  0  0  0  0
    8.9110   10.2294   23.2783 C   0  0  0  0  0  0  0  0  0  0  0  0
    8.5782   12.4833   24.8394 C   0  0  0  0  0  0  0  0  0  0  0  0
   10.5297   12.7174   21.2629 C   0  0  0  0  0  0  0  0  0  0  0  0
    9.4181   11.4461   22.8282 C   0  0  0  0  0  0  0  0  0  0  0  0
    9.2486   12.5943   23.6235 C   0  0  0  0  0  0  0  0  0  0  0  0
   10.3646   13.8351   22.0370 C   0  0  0  0  0  0  0  0  0  0  0  0
   10.0603   11.5174   21.6490 N   0  0  0  0  0  0  0  0  0  0  0  0
    9.7253   13.7848   23.2195 N   0  0  0  0  0  0  0  0  0  0  0  0
   11.6812   15.1056   20.0987 N   0  0  0  0  0  0  0  0  0  0  0  0
    9.7967   16.2929   21.3966 O   0  0  0  0  0  0  0  0  0  0  0  0
   11.9797   15.8109   22.5584 O   0  0  0  0  0  0  0  0  0  0  0  0
   10.9412   15.4105   21.6117 S   0  0  0  0  0  0  0  0  0  0  0  0
    7.8537    9.1709   24.8286 H   0  0  0  0  0  0  0  0  0  0  0  0
    7.5551   11.1967   26.2315 H   0  0  0  0  0  0  0  0  0  0  0  0
    9.0345    9.3335   22.6731 H   0  0  0  0  0  0  0  0  0  0  0  0
    8.4397   13.3635   25.4643 H   0  0  0  0  0  0  0  0  0  0  0  0
   11.0423   12.7399   20.3094 H   0  0  0  0  0  0  0  0  0  0  0  0
   11.2165   15.4572   19.2526 H   0  0  0  0  0  0  0  0  0  0  0  0
   12.7070   15.1265   20.0481 H   0  0  0  0  0  0  0  0  0  0  0  0
  1  2  1  0  0  0  0
  1  3  2  0  0  0  0
  2  4  2  0  0  0  0
  3  6  1  0  0  0  0
  4  7  1  0  0  0  0
  5  8  1  0  0  0  0
  5  9  2  0  0  0  0
  6  7  2  0  0  0  0
  6  9  1  0  0  0  0
  7 10  1  0  0  0  0
  8 10  2  0  0  0  0
  8 14  1  0  0  0  0
 11 14  1  0  0  0  0
 12 14  2  0  0  0  0
 13 14  2  0  0  0  0
  1 15  1  0  0  0  0
  2 16  1  0  0  0  0
  3 17  1  0  0  0  0
  4 18  1  0  0  0  0
  5 19  1  0  0  0  0
 11 20  1  0  0  0  0
 11 21  1  0  0  0  0
M  END
> <Mol Weight>
209,22

> <Formula>
C8H7N3O2S

> <ID>
EN300-274572

> <name>
Sulfonamides

> <LogP>
0,50

> <ROCS_ShapeQuery>
x0446_0A_x1080_0A_x0929_0A_x0812_0A_x0719_0A_x1140_0A_x0528_0A_x0310_0A

> <ROCS_TanimotoCombo>
0.339 

> <ROCS_ShapeTanimoto>
0.188 

> <ROCS_ColorTanimoto>
0.151 

> <ROCS_RefTversky>
0.175 

> <ROCS_RefColorTversky>
0.162 

> <ROCS_RefTverskyCombo>
0.337 

> <ROCS_FitTversky>
1.701 

> <ROCS_FitColorTversky>
0.679 

> <ROCS_FitTverskyCombo>
2.380 

> <ROCS_ColorScore>
-5.786

> <ROCS_Overlap>
2061.219

> <ROCS_Rank>
266                 

$$$$
untitled-dbase-2633_234
  -OEChem-02082415043D

 40 40  0     1  0  0  0  0  0999 V2000
   10.8182   13.4110   22.9910 C   0  0  0  0  0  0  0  0  0  0  0  0
    7.3759   11.5044   24.8687 C   0  0  0  0  0  0  0  0  0  0  0  0
    6.2167   12.3220   24.3085 C   0  0  0  0  0  0  0  0  0  0  0  0
    8.7256   11.9851   24.3395 C   0  0  0  0  0  0  0  0  0  0  0  0
    6.2385   12.3703   22.7809 C   0  0  0  0  0  0  0  0  0  0  0  0
    8.7454   12.0143   22.8061 C   0  0  1  0  0  0  0  0  0  0  0  0
    7.5855   12.8390   22.2182 C   0  0  2  0  0  0  0  0  0  0  0  0
   13.2846   14.0921   24.2570 C   0  0  0  0  0  0  0  0  0  0  0  0
   14.0930   14.6756   21.9515 C   0  0  0  0  0  0  0  0  0  0  0  0
   12.1662   15.9343   22.9571 C   0  0  0  0  0  0  0  0  0  0  0  0
   12.8759   14.5840   22.8693 C   0  0  0  0  0  0  0  0  0  0  0  0
    6.4299   15.1389   21.5598 N   0  0  0  0  0  0  0  0  0  0  0  0
   10.0479   12.4774   22.3294 N   0  0  0  0  0  0  0  0  0  0  0  0
   10.5226   13.9666   24.0439 O   0  0  0  0  0  0  0  0  0  0  0  0
    7.5668   14.8795   23.8526 O   0  0  0  0  0  0  0  0  0  0  0  0
    8.9900   14.9978   21.7679 O   0  0  0  0  0  0  0  0  0  0  0  0
   11.9737   13.6312   22.2956 O   0  0  0  0  0  0  0  0  0  0  0  0
    7.7764   14.5932   22.4479 S   0  0  0  0  0  0  0  0  0  0  0  0
    7.3693   11.5578   25.9632 H   0  0  0  0  0  0  0  0  0  0  0  0
    7.2374   10.4494   24.6016 H   0  0  0  0  0  0  0  0  0  0  0  0
    5.2680   11.8886   24.6455 H   0  0  0  0  0  0  0  0  0  0  0  0
    6.2565   13.3394   24.7147 H   0  0  0  0  0  0  0  0  0  0  0  0
    8.9432   12.9795   24.7471 H   0  0  0  0  0  0  0  0  0  0  0  0
    9.5098   11.3135   24.7102 H   0  0  0  0  0  0  0  0  0  0  0  0
    6.0271   11.3643   22.3965 H   0  0  0  0  0  0  0  0  0  0  0  0
    5.4279   13.0184   22.4272 H   0  0  0  0  0  0  0  0  0  0  0  0
    8.6599   10.9882   22.4428 H   0  0  0  0  0  0  0  0  0  0  0  0
    7.5656   12.7089   21.1289 H   0  0  0  0  0  0  0  0  0  0  0  0
   12.4137   14.0249   24.9188 H   0  0  0  0  0  0  0  0  0  0  0  0
   13.7634   13.1085   24.2114 H   0  0  0  0  0  0  0  0  0  0  0  0
   13.9800   14.7939   24.7315 H   0  0  0  0  0  0  0  0  0  0  0  0
   13.8043   15.0282   20.9547 H   0  0  0  0  0  0  0  0  0  0  0  0
   14.5501   13.6896   21.8098 H   0  0  0  0  0  0  0  0  0  0  0  0
   14.8517   15.3550   22.3533 H   0  0  0  0  0  0  0  0  0  0  0  0
   11.8728   16.2874   21.9618 H   0  0  0  0  0  0  0  0  0  0  0  0
   11.2691   15.8786   23.5822 H   0  0  0  0  0  0  0  0  0  0  0  0
   12.8330   16.6987   23.3722 H   0  0  0  0  0  0  0  0  0  0  0  0
    6.4649   15.0583   20.5362 H   0  0  0  0  0  0  0  0  0  0  0  0
    5.4958   14.9778   21.9561 H   0  0  0  0  0  0  0  0  0  0  0  0
   10.4059   12.0895   21.4618 H   0  0  0  0  0  0  0  0  0  0  0  0
  1 13  1  0  0  0  0
  1 14  2  0  0  0  0
  1 17  1  0  0  0  0
  2  3  1  0  0  0  0
  2  4  1  0  0  0  0
  3  5  1  0  0  0  0
  4  6  1  0  0  0  0
  5  7  1  0  0  0  0
  6  7  1  0  0  0  0
  6 13  1  1  0  0  0
  7 18  1  1  0  0  0
  8 11  1  0  0  0  0
  9 11  1  0  0  0  0
 10 11  1  0  0  0  0
 11 17  1  0  0  0  0
 12 18  1  0  0  0  0
 15 18  2  0  0  0  0
 16 18  2  0  0  0  0
  2 19  1  0  0  0  0
  2 20  1  0  0  0  0
  3 21  1  0  0  0  0
  3 22  1  0  0  0  0
  4 23  1  0  0  0  0
  4 24  1  0  0  0  0
  5 25  1  0  0  0  0
  5 26  1  0  0  0  0
  6 27  1  0  0  0  0
  7 28  1  0  0  0  0
  8 29  1  0  0  0  0
  8 30  1  0  0  0  0
  8 31  1  0  0  0  0
  9 32  1  0  0  0  0
  9 33  1  0  0  0  0
  9 34  1  0  0  0  0
 10 35  1  0  0  0  0
 10 36  1  0  0  0  0
 10 37  1  0  0  0  0
 12 38  1  0  0  0  0
 12 39  1  0  0  0  0
 13 40  1  0  0  0  0
M  END
> <Mol Weight>
278,37

> <Formula>
C11H22N2O4S

> <ID>
EN300-37325495

> <name>
Sulfonamides

> <LogP>
0,88

> <ROCS_ShapeQuery>
x0446_0A_x1080_0A_x0929_0A_x0812_0A_x0719_0A_x1140_0A_x0528_0A_x0310_0A

> <ROCS_TanimotoCombo>
0.339 

> <ROCS_ShapeTanimoto>
0.194 

> <ROCS_ColorTanimoto>
0.145 

> <ROCS_RefTversky>
0.180 

> <ROCS_RefColorTversky>
0.157 

> <ROCS_RefTverskyCombo>
0.338 

> <ROCS_FitTversky>
1.604 

> <ROCS_FitColorTversky>
0.658 

> <ROCS_FitTverskyCombo>
2.263 

> <ROCS_ColorScore>
-5.605

> <ROCS_Overlap>
2129.524

> <ROCS_Rank>
267                 

$$$$
untitled-dbase-2028_14
  -OEChem-02082415043D

 35 35  0     1  0  0  0  0  0999 V2000
    8.5177    9.8077   24.0543 C   0  0  0  0  0  0  0  0  0  0  0  0
    9.8143   10.2866   23.8672 C   0  0  0  0  0  0  0  0  0  0  0  0
    7.4383   10.6910   24.0349 C   0  0  0  0  0  0  0  0  0  0  0  0
   10.0316   11.6489   23.6609 C   0  0  0  0  0  0  0  0  0  0  0  0
    7.6556   12.0533   23.8286 C   0  0  0  0  0  0  0  0  0  0  0  0
    8.9522   12.5323   23.6415 C   0  0  0  0  0  0  0  0  0  0  0  0
    9.0101   14.5800   26.4687 C   0  0  0  0  0  0  0  0  0  0  0  0
    6.7489   15.5704   26.0590 C   0  0  0  0  0  0  0  0  0  0  0  0
   11.8848   14.7090   21.3724 C   0  0  0  0  0  0  0  0  0  0  0  0
    8.1770   14.9549   24.0849 C   0  0  0  0  0  0  0  0  0  0  0  0
    9.1868   14.0077   23.4184 C   0  0  2  0  0  0  0  0  0  0  0  0
    7.7993   14.5873   25.5346 C   0  0  0  0  0  0  0  0  0  0  0  0
   10.7782   13.7400   21.2770 N   0  0  0  0  0  0  0  0  0  0  0  0
    8.2316   13.3282   21.0782 O   0  0  0  0  0  0  0  0  0  0  0  0
    9.0950   15.6733   21.4126 O   0  0  0  0  0  0  0  0  0  0  0  0
    9.1927   14.2468   21.6572 S   0  0  0  0  0  0  0  0  0  0  0  0
    8.3486    8.7467   24.2136 H   0  0  0  0  0  0  0  0  0  0  0  0
   10.6548    9.5988   23.8812 H   0  0  0  0  0  0  0  0  0  0  0  0
    6.4286   10.3183   24.1794 H   0  0  0  0  0  0  0  0  0  0  0  0
   11.0453   12.0132   23.5162 H   0  0  0  0  0  0  0  0  0  0  0  0
    6.8086   12.7341   23.8152 H   0  0  0  0  0  0  0  0  0  0  0  0
    9.4931   15.5631   26.4853 H   0  0  0  0  0  0  0  0  0  0  0  0
    9.7547   13.8438   26.1478 H   0  0  0  0  0  0  0  0  0  0  0  0
    8.7196   14.3461   27.4972 H   0  0  0  0  0  0  0  0  0  0  0  0
    7.1426   16.5923   26.0677 H   0  0  0  0  0  0  0  0  0  0  0  0
    6.4401   15.3166   27.0789 H   0  0  0  0  0  0  0  0  0  0  0  0
    5.8571   15.5631   25.4233 H   0  0  0  0  0  0  0  0  0  0  0  0
   11.7040   15.3909   22.2164 H   0  0  0  0  0  0  0  0  0  0  0  0
   12.8307   14.1706   21.5323 H   0  0  0  0  0  0  0  0  0  0  0  0
   11.9460   15.2885   20.4395 H   0  0  0  0  0  0  0  0  0  0  0  0
    7.2620   15.0104   23.4806 H   0  0  0  0  0  0  0  0  0  0  0  0
    8.5931   15.9719   24.0735 H   0  0  0  0  0  0  0  0  0  0  0  0
   10.2003   14.2832   23.7322 H   0  0  0  0  0  0  0  0  0  0  0  0
    7.3493   13.5873   25.5495 H   0  0  0  0  0  0  0  0  0  0  0  0
   10.8787   13.0664   20.5066 H   0  0  0  0  0  0  0  0  0  0  0  0
  1  2  1  0  0  0  0
  1  3  2  0  0  0  0
  2  4  2  0  0  0  0
  3  5  1  0  0  0  0
  4  6  1  0  0  0  0
  5  6  2  0  0  0  0
  6 11  1  0  0  0  0
  7 12  1  0  0  0  0
  8 12  1  0  0  0  0
  9 13  1  0  0  0  0
 10 11  1  0  0  0  0
 10 12  1  0  0  0  0
 11 16  1  0  0  0  0
 13 16  1  0  0  0  0
 14 16  2  0  0  0  0
 15 16  2  0  0  0  0
  1 17  1  0  0  0  0
  2 18  1  0  0  0  0
  3 19  1  0  0  0  0
  4 20  1  0  0  0  0
  5 21  1  0  0  0  0
  7 22  1  0  0  0  0
  7 23  1  0  0  0  0
  7 24  1  0  0  0  0
  8 25  1  0  0  0  0
  8 26  1  0  0  0  0
  8 27  1  0  0  0  0
  9 28  1  0  0  0  0
  9 29  1  0  0  0  0
  9 30  1  0  0  0  0
 10 31  1  0  0  0  0
 10 32  1  0  0  0  0
 11 33  1  0  0  0  0
 12 34  1  0  0  0  0
 13 35  1  0  0  0  0
M  END
> <Mol Weight>
241,35

> <Formula>
C12H19NO2S

> <ID>
EN300-680272

> <name>
Sulfonamides

> <LogP>
2,39

> <ROCS_ShapeQuery>
x0446_0A_x1080_0A_x0929_0A_x0812_0A_x0719_0A_x1140_0A_x0528_0A_x0310_0A

> <ROCS_TanimotoCombo>
0.339 

> <ROCS_ShapeTanimoto>
0.189 

> <ROCS_ColorTanimoto>
0.149 

> <ROCS_RefTversky>
0.176 

> <ROCS_RefColorTversky>
0.154 

> <ROCS_RefTverskyCombo>
0.330 

> <ROCS_FitTversky>
1.679 

> <ROCS_FitColorTversky>
0.829 

> <ROCS_FitTverskyCombo>
2.508 

> <ROCS_ColorScore>
-5.483

> <ROCS_Overlap>
2075.708

> <ROCS_Rank>
268                 

$$$$
untitled-dbase-535_1
  -OEChem-02082415043D

 21 21  0     0  0  0  0  0  0999 V2000
    8.0799   10.4353   24.0984 C   0  0  0  0  0  0  0  0  0  0  0  0
    9.4730   10.3969   24.1561 C   0  0  0  0  0  0  0  0  0  0  0  0
    7.4243   11.6458   23.8735 C   0  0  0  0  0  0  0  0  0  0  0  0
   10.2105   11.5690   23.9890 C   0  0  0  0  0  0  0  0  0  0  0  0
    8.1618   12.8179   23.7064 C   0  0  0  0  0  0  0  0  0  0  0  0
    9.5549   12.7795   23.7642 C   0  0  0  0  0  0  0  0  0  0  0  0
    7.4432   14.1044   23.4670 C   0  0  0  0  0  0  0  0  0  0  0  0
    6.3493   15.6179   21.5792 N   0  0  0  0  0  0  0  0  0  0  0  0
    8.8970   15.2667   21.6332 O   0  0  0  0  0  0  0  0  0  0  0  0
    7.3935   13.3483   20.9663 O   0  0  0  0  0  0  0  0  0  0  0  0
   10.2902   13.9153   23.6038 O   0  0  0  0  0  0  0  0  0  0  0  0
    7.6504   14.5321   21.7690 S   0  0  0  0  0  0  0  0  0  0  0  0
    7.5051    9.5229   24.2290 H   0  0  0  0  0  0  0  0  0  0  0  0
    9.9830    9.4544   24.3321 H   0  0  0  0  0  0  0  0  0  0  0  0
    6.3384   11.6653   23.8318 H   0  0  0  0  0  0  0  0  0  0  0  0
   11.2956   11.5328   24.0351 H   0  0  0  0  0  0  0  0  0  0  0  0
    7.8457   14.9230   24.0733 H   0  0  0  0  0  0  0  0  0  0  0  0
    6.3691   14.0226   23.6661 H   0  0  0  0  0  0  0  0  0  0  0  0
    5.3983   15.2292   21.5811 H   0  0  0  0  0  0  0  0  0  0  0  0
    6.4225   16.5357   22.0352 H   0  0  0  0  0  0  0  0  0  0  0  0
   11.2366   13.7141   23.6726 H   0  0  0  0  0  0  0  0  0  0  0  0
  1  2  1  0  0  0  0
  1  3  2  0  0  0  0
  2  4  2  0  0  0  0
  3  5  1  0  0  0  0
  4  6  1  0  0  0  0
  5  6  2  0  0  0  0
  5  7  1  0  0  0  0
  6 11  1  0  0  0  0
  7 12  1  0  0  0  0
  8 12  1  0  0  0  0
  9 12  2  0  0  0  0
 10 12  2  0  0  0  0
  1 13  1  0  0  0  0
  2 14  1  0  0  0  0
  3 15  1  0  0  0  0
  4 16  1  0  0  0  0
  7 17  1  0  0  0  0
  7 18  1  0  0  0  0
  8 19  1  0  0  0  0
  8 20  1  0  0  0  0
 11 21  1  0  0  0  0
M  END
> <Mol Weight>
187,21

> <Formula>
C7H9NO3S

> <ID>
EN300-1986933

> <name>
Sulfonamides

> <LogP>
0,04

> <ROCS_ShapeQuery>
x0446_0A_x1080_0A_x0929_0A_x0812_0A_x0719_0A_x1140_0A_x0528_0A_x0310_0A

> <ROCS_TanimotoCombo>
0.339 

> <ROCS_ShapeTanimoto>
0.172 

> <ROCS_ColorTanimoto>
0.167 

> <ROCS_RefTversky>
0.160 

> <ROCS_RefColorTversky>
0.173 

> <ROCS_RefTverskyCombo>
0.334 

> <ROCS_FitTversky>
1.729 

> <ROCS_FitColorTversky>
0.816 

> <ROCS_FitTverskyCombo>
2.545 

> <ROCS_ColorScore>
-6.173

> <ROCS_Overlap>
1889.862

> <ROCS_Rank>
269                 

$$$$
untitled-dbase-1251_1
  -OEChem-02082415043D

 21 21  0     0  0  0  0  0  0999 V2000
    6.5105   11.8146   24.7386 C   0  0  0  0  0  0  0  0  0  0  0  0
    9.9170   12.7428   23.5250 C   0  0  0  0  0  0  0  0  0  0  0  0
   10.5600   11.5067   23.5884 C   0  0  0  0  0  0  0  0  0  0  0  0
    8.5267   10.4912   24.4079 C   0  0  0  0  0  0  0  0  0  0  0  0
    7.8837   11.7274   24.3445 C   0  0  0  0  0  0  0  0  0  0  0  0
    8.5789   12.8532   23.9031 C   0  0  0  0  0  0  0  0  0  0  0  0
    9.8648   10.3808   24.0298 C   0  0  0  0  0  0  0  0  0  0  0  0
    7.9219   14.1940   23.8220 C   0  0  0  0  0  0  0  0  0  0  0  0
    5.3971   11.8854   25.0582 N   0  0  0  0  0  0  0  0  0  0  0  0
    6.4211   15.7420   22.2720 N   0  0  0  0  0  0  0  0  0  0  0  0
    8.8272   15.1630   21.5706 O   0  0  0  0  0  0  0  0  0  0  0  0
    7.0485   13.3694   21.5014 O   0  0  0  0  0  0  0  0  0  0  0  0
   10.4825    9.1939   24.0911 F   0  0  0  0  0  0  0  0  0  0  0  0
    7.6301   14.5489   22.1203 S   0  0  0  0  0  0  0  0  0  0  0  0
   10.4681   13.6136   23.1792 H   0  0  0  0  0  0  0  0  0  0  0  0
   11.6015   11.4201   23.2937 H   0  0  0  0  0  0  0  0  0  0  0  0
    8.0004    9.6031   24.7501 H   0  0  0  0  0  0  0  0  0  0  0  0
    8.5542   14.9883   24.2308 H   0  0  0  0  0  0  0  0  0  0  0  0
    6.9592   14.2134   24.3425 H   0  0  0  0  0  0  0  0  0  0  0  0
    6.6750   16.7113   22.0446 H   0  0  0  0  0  0  0  0  0  0  0  0
    5.4637   15.4896   21.9977 H   0  0  0  0  0  0  0  0  0  0  0  0
  1  5  1  0  0  0  0
  1  9  3  0  0  0  0
  2  3  2  0  0  0  0
  2  6  1  0  0  0  0
  3  7  1  0  0  0  0
  4  5  1  0  0  0  0
  4  7  2  0  0  0  0
  5  6  2  0  0  0  0
  6  8  1  0  0  0  0
  7 13  1  0  0  0  0
  8 14  1  0  0  0  0
 10 14  1  0  0  0  0
 11 14  2  0  0  0  0
 12 14  2  0  0  0  0
  2 15  1  0  0  0  0
  3 16  1  0  0  0  0
  4 17  1  0  0  0  0
  8 18  1  0  0  0  0
  8 19  1  0  0  0  0
 10 20  1  0  0  0  0
 10 21  1  0  0  0  0
M  END
> <Mol Weight>
214,21

> <Formula>
C8H7FN2O2S

> <ID>
EN300-89824

> <name>
Sulfonamides

> <LogP>
0,34

> <ROCS_ShapeQuery>
x0446_0A_x1080_0A_x0929_0A_x0812_0A_x0719_0A_x1140_0A_x0528_0A_x0310_0A

> <ROCS_TanimotoCombo>
0.339 

> <ROCS_ShapeTanimoto>
0.195 

> <ROCS_ColorTanimoto>
0.143 

> <ROCS_RefTversky>
0.180 

> <ROCS_RefColorTversky>
0.149 

> <ROCS_RefTverskyCombo>
0.328 

> <ROCS_FitTversky>
1.798 

> <ROCS_FitColorTversky>
0.800 

> <ROCS_FitTverskyCombo>
2.598 

> <ROCS_ColorScore>
-5.290

> <ROCS_Overlap>
2119.436

> <ROCS_Rank>
270                 

$$$$
untitled-dbase-1648_60
  -OEChem-02082415043D

 29 29  0     1  0  0  0  0  0999 V2000
    7.7215   10.0889   23.1375 C   0  0  0  0  0  0  0  0  0  0  0  0
    9.1745   10.3279   22.7243 C   0  0  0  0  0  0  0  0  0  0  0  0
    7.5018   10.3966   24.6140 C   0  0  0  0  0  0  0  0  0  0  0  0
    9.4019   12.0733   24.5455 C   0  0  0  0  0  0  0  0  0  0  0  0
    9.6860   11.7482   23.0605 C   0  0  1  0  0  0  0  0  0  0  0  0
    7.9665   11.7968   24.9716 C   0  0  0  0  0  0  0  0  0  0  0  0
   11.2079   11.7997   22.8237 C   0  0  0  0  0  0  0  0  0  0  0  0
    9.0329   12.7907   22.1328 C   0  0  0  0  0  0  0  0  0  0  0  0
   11.2079   13.8338   21.0227 N   0  0  0  0  0  0  0  0  0  0  0  0
    9.1656   15.3227   21.5015 O   0  0  0  0  0  0  0  0  0  0  0  0
   10.5589   14.4695   23.4293 O   0  0  0  0  0  0  0  0  0  0  0  0
    7.8605   11.9715   26.3144 F   0  0  0  0  0  0  0  0  0  0  0  0
    7.1334   12.7067   24.4072 F   0  0  0  0  0  0  0  0  0  0  0  0
    9.9692   14.2727   22.1122 S   0  0  0  0  0  0  0  0  0  0  0  0
    7.0499   10.7022   22.5261 H   0  0  0  0  0  0  0  0  0  0  0  0
    7.4545    9.0441   22.9403 H   0  0  0  0  0  0  0  0  0  0  0  0
    9.8013    9.5852   23.2362 H   0  0  0  0  0  0  0  0  0  0  0  0
    9.2804   10.1309   21.6502 H   0  0  0  0  0  0  0  0  0  0  0  0
    6.4377   10.2902   24.8535 H   0  0  0  0  0  0  0  0  0  0  0  0
    8.0371    9.6647   25.2306 H   0  0  0  0  0  0  0  0  0  0  0  0
   10.0673   11.4801   25.1870 H   0  0  0  0  0  0  0  0  0  0  0  0
    9.6412   13.1241   24.7523 H   0  0  0  0  0  0  0  0  0  0  0  0
   11.5706   12.7941   23.0583 H   0  0  0  0  0  0  0  0  0  0  0  0
   11.4137   11.5693   21.7845 H   0  0  0  0  0  0  0  0  0  0  0  0
   11.6920   11.0713   23.4645 H   0  0  0  0  0  0  0  0  0  0  0  0
    8.0368   13.0222   22.4914 H   0  0  0  0  0  0  0  0  0  0  0  0
    8.9894   12.4010   21.1227 H   0  0  0  0  0  0  0  0  0  0  0  0
   11.2014   14.2711   20.0930 H   0  0  0  0  0  0  0  0  0  0  0  0
   12.1502   13.6899   21.4059 H   0  0  0  0  0  0  0  0  0  0  0  0
  1  2  1  0  0  0  0
  1  3  1  0  0  0  0
  2  5  1  0  0  0  0
  3  6  1  0  0  0  0
  4  5  1  0  0  0  0
  4  6  1  0  0  0  0
  5  7  1  0  0  0  0
  5  8  1  0  0  0  0
  6 12  1  0  0  0  0
  6 13  1  0  0  0  0
  8 14  1  0  0  0  0
  9 14  1  0  0  0  0
 10 14  2  0  0  0  0
 11 14  2  0  0  0  0
  1 15  1  0  0  0  0
  1 16  1  0  0  0  0
  2 17  1  0  0  0  0
  2 18  1  0  0  0  0
  3 19  1  0  0  0  0
  3 20  1  0  0  0  0
  4 21  1  0  0  0  0
  4 22  1  0  0  0  0
  7 23  1  0  0  0  0
  7 24  1  0  0  0  0
  7 25  1  0  0  0  0
  8 26  1  0  0  0  0
  8 27  1  0  0  0  0
  9 28  1  0  0  0  0
  9 29  1  0  0  0  0
M  END
> <Mol Weight>
227,27

> <Formula>
C8H15F2NO2S

> <ID>
EN300-7542687

> <name>
Sulfonamides

> <LogP>
0,60

> <ROCS_ShapeQuery>
x0446_0A_x1080_0A_x0929_0A_x0812_0A_x0719_0A_x1140_0A_x0528_0A_x0310_0A

> <ROCS_TanimotoCombo>
0.339 

> <ROCS_ShapeTanimoto>
0.195 

> <ROCS_ColorTanimoto>
0.143 

> <ROCS_RefTversky>
0.179 

> <ROCS_RefColorTversky>
0.145 

> <ROCS_RefTverskyCombo>
0.325 

> <ROCS_FitTversky>
1.812 

> <ROCS_FitColorTversky>
0.913 

> <ROCS_FitTverskyCombo>
2.724 

> <ROCS_ColorScore>
-5.168

> <ROCS_Overlap>
2115.916

> <ROCS_Rank>
271                 

$$$$
untitled-dbase-1413_130
  -OEChem-02082415043D

 25 25  0     0  0  0  0  0  0999 V2000
    9.2583   10.5240   22.8818 C   0  0  0  0  0  0  0  0  0  0  0  0
    9.8133   11.6893   22.3529 C   0  0  0  0  0  0  0  0  0  0  0  0
    8.6082   13.0033   23.9834 C   0  0  0  0  0  0  0  0  0  0  0  0
    8.0532   11.8379   24.5123 C   0  0  0  0  0  0  0  0  0  0  0  0
    8.3783   10.5983   23.9615 C   0  0  0  0  0  0  0  0  0  0  0  0
    9.4882   12.9289   22.9037 C   0  0  0  0  0  0  0  0  0  0  0  0
    6.6136    9.0052   23.9013 C   0  0  0  0  0  0  0  0  0  0  0  0
    7.1130   11.9361   25.6681 C   0  0  0  0  0  0  0  0  0  0  0  0
   11.1491   13.7465   20.9859 N   0  0  0  0  0  0  0  0  0  0  0  0
    9.1128   15.1799   21.6525 O   0  0  0  0  0  0  0  0  0  0  0  0
   11.0551   14.9814   23.2449 O   0  0  0  0  0  0  0  0  0  0  0  0
    5.7828   11.7270   25.2118 O   0  0  0  0  0  0  0  0  0  0  0  0
    7.8453    9.4503   24.4658 O   0  0  0  0  0  0  0  0  0  0  0  0
   10.1831   14.3872   22.2412 S   0  0  0  0  0  0  0  0  0  0  0  0
    9.5158    9.5615   22.4481 H   0  0  0  0  0  0  0  0  0  0  0  0
   10.4977   11.6199   21.5117 H   0  0  0  0  0  0  0  0  0  0  0  0
    8.3541   13.9692   24.4135 H   0  0  0  0  0  0  0  0  0  0  0  0
    6.2996    8.0810   24.3927 H   0  0  0  0  0  0  0  0  0  0  0  0
    6.7434    8.8348   22.8296 H   0  0  0  0  0  0  0  0  0  0  0  0
    5.8530    9.7742   24.0565 H   0  0  0  0  0  0  0  0  0  0  0  0
    7.3441   11.1855   26.4354 H   0  0  0  0  0  0  0  0  0  0  0  0
    7.1732   12.9239   26.1435 H   0  0  0  0  0  0  0  0  0  0  0  0
   11.9997   13.2327   21.2468 H   0  0  0  0  0  0  0  0  0  0  0  0
   10.6741   13.3693   20.1569 H   0  0  0  0  0  0  0  0  0  0  0  0
    5.2060   11.7986   25.9893 H   0  0  0  0  0  0  0  0  0  0  0  0
  1  2  2  0  0  0  0
  1  5  1  0  0  0  0
  2  6  1  0  0  0  0
  3  4  1  0  0  0  0
  3  6  2  0  0  0  0
  4  5  2  0  0  0  0
  4  8  1  0  0  0  0
  5 13  1  0  0  0  0
  6 14  1  0  0  0  0
  7 13  1  0  0  0  0
  8 12  1  0  0  0  0
  9 14  1  0  0  0  0
 10 14  2  0  0  0  0
 11 14  2  0  0  0  0
  1 15  1  0  0  0  0
  2 16  1  0  0  0  0
  3 17  1  0  0  0  0
  7 18  1  0  0  0  0
  7 19  1  0  0  0  0
  7 20  1  0  0  0  0
  8 21  1  0  0  0  0
  8 22  1  0  0  0  0
  9 23  1  0  0  0  0
  9 24  1  0  0  0  0
 12 25  1  0  0  0  0
M  END
> <Mol Weight>
217,24

> <Formula>
C8H11NO4S

> <ID>
EN300-383987

> <name>
Sulfonamides

> <LogP>
-0,35

> <ROCS_ShapeQuery>
x0446_0A_x1080_0A_x0929_0A_x0812_0A_x0719_0A_x1140_0A_x0528_0A_x0310_0A

> <ROCS_TanimotoCombo>
0.339 

> <ROCS_ShapeTanimoto>
0.191 

> <ROCS_ColorTanimoto>
0.148 

> <ROCS_RefTversky>
0.176 

> <ROCS_RefColorTversky>
0.159 

> <ROCS_RefTverskyCombo>
0.336 

> <ROCS_FitTversky>
1.771 

> <ROCS_FitColorTversky>
0.667 

> <ROCS_FitTverskyCombo>
2.438 

> <ROCS_ColorScore>
-5.681

> <ROCS_Overlap>
2079.681

> <ROCS_Rank>
272                 

$$$$
untitled-dbase-2818_0
  -OEChem-02082415043D

 25 26  0     0  0  0  0  0  0999 V2000
    6.5774   10.9905   23.3799 C   0  0  0  0  0  0  0  0  0  0  0  0
    7.0527   13.7076   22.9885 C   0  0  0  0  0  0  0  0  0  0  0  0
    7.9061   11.4206   23.2327 C   0  0  0  0  0  0  0  0  0  0  0  0
    8.1107   12.7948   23.0323 C   0  0  0  0  0  0  0  0  0  0  0  0
    5.7486   13.2505   23.1480 C   0  0  0  0  0  0  0  0  0  0  0  0
    5.5100   11.8929   23.3424 C   0  0  0  0  0  0  0  0  0  0  0  0
   10.3210   10.8449   23.2272 C   0  0  0  0  0  0  0  0  0  0  0  0
    8.9224   10.4777   23.2536 N   0  0  0  0  0  0  0  0  0  0  0  0
   10.5807   12.0080   22.3599 N   0  0  0  0  0  0  0  0  0  0  0  0
    5.3339   15.8665   22.8495 N   0  0  0  0  0  0  0  0  0  0  0  0
   10.1935   13.8873   24.0923 O   0  0  0  0  0  0  0  0  0  0  0  0
    9.7103   14.3129   21.6433 O   0  0  0  0  0  0  0  0  0  0  0  0
    3.6391   14.1588   21.9240 O   0  0  0  0  0  0  0  0  0  0  0  0
    3.8325   14.4775   24.4157 O   0  0  0  0  0  0  0  0  0  0  0  0
    9.7405   13.4311   22.7932 S   0  0  0  0  0  0  0  0  0  0  0  0
    4.4510   14.4267   23.1004 S   0  0  0  0  0  0  0  0  0  0  0  0
    3.9111   11.2711   23.5462 Cl  0  0  0  0  0  0  0  0  0  0  0  0
    6.3771    9.9294   23.5263 H   0  0  0  0  0  0  0  0  0  0  0  0
    7.2440   14.7652   22.8266 H   0  0  0  0  0  0  0  0  0  0  0  0
   10.6490   11.0899   24.2424 H   0  0  0  0  0  0  0  0  0  0  0  0
   10.9254    9.9964   22.8877 H   0  0  0  0  0  0  0  0  0  0  0  0
    8.6795    9.5029   23.1200 H   0  0  0  0  0  0  0  0  0  0  0  0
   10.6575   11.7933   21.3577 H   0  0  0  0  0  0  0  0  0  0  0  0
    5.2705   16.3151   21.9274 H   0  0  0  0  0  0  0  0  0  0  0  0
    5.4033   16.5305   23.6302 H   0  0  0  0  0  0  0  0  0  0  0  0
  1  3  2  0  0  0  0
  1  6  1  0  0  0  0
  2  4  2  0  0  0  0
  2  5  1  0  0  0  0
  3  4  1  0  0  0  0
  3  8  1  0  0  0  0
  4 15  1  0  0  0  0
  5  6  2  0  0  0  0
  5 16  1  0  0  0  0
  6 17  1  0  0  0  0
  7  8  1  0  0  0  0
  7  9  1  0  0  0  0
  9 15  1  0  0  0  0
 10 16  1  0  0  0  0
 11 15  2  0  0  0  0
 12 15  2  0  0  0  0
 13 16  2  0  0  0  0
 14 16  2  0  0  0  0
  1 18  1  0  0  0  0
  2 19  1  0  0  0  0
  7 20  1  0  0  0  0
  7 21  1  0  0  0  0
  8 22  1  0  0  0  0
  9 23  1  0  0  0  0
 10 24  1  0  0  0  0
 10 25  1  0  0  0  0
M  END
> <Mol Weight>
297,73

> <Formula>
C7H8ClN3O4S2

> <ID>
EN300-16641

> <name>
Sulfonamides

> <LogP>
-0,58

> <ROCS_ShapeQuery>
x0446_0A_x1080_0A_x0929_0A_x0812_0A_x0719_0A_x1140_0A_x0528_0A_x0310_0A

> <ROCS_TanimotoCombo>
0.338 

> <ROCS_ShapeTanimoto>
0.165 

> <ROCS_ColorTanimoto>
0.173 

> <ROCS_RefTversky>
0.158 

> <ROCS_RefColorTversky>
0.190 

> <ROCS_RefTverskyCombo>
0.348 

> <ROCS_FitTversky>
1.432 

> <ROCS_FitColorTversky>
0.654 

> <ROCS_FitTverskyCombo>
2.086 

> <ROCS_ColorScore>
-6.816

> <ROCS_Overlap>
1858.378

> <ROCS_Rank>
273                 

$$$$
untitled-dbase-2136_10
  -OEChem-02082415043D

 24 25  0     1  0  0  0  0  0999 V2000
   10.2888   10.1323   24.0939 C   0  0  0  0  0  0  0  0  0  0  0  0
    9.2426    9.6444   24.8907 C   0  0  0  0  0  0  0  0  0  0  0  0
   10.0822   11.2032   23.2147 C   0  0  0  0  0  0  0  0  0  0  0  0
    7.9746   10.2129   24.8123 C   0  0  0  0  0  0  0  0  0  0  0  0
    8.8287   11.8015   23.1468 C   0  0  0  0  0  0  0  0  0  0  0  0
    7.8060   11.2651   23.9317 C   0  0  0  0  0  0  0  0  0  0  0  0
    7.0479   13.4422   22.7415 C   0  0  0  0  0  0  0  0  0  0  0  0
    8.3978   12.9173   22.2295 C   0  0  1  0  0  0  0  0  0  0  0  0
   10.7474   13.5200   21.1595 N   0  0  0  0  0  0  0  0  0  0  0  0
    5.4843   11.2952   22.8085 O   0  0  0  0  0  0  0  0  0  0  0  0
    5.8490   12.6146   24.9594 O   0  0  0  0  0  0  0  0  0  0  0  0
    9.0220   15.3734   21.6120 O   0  0  0  0  0  0  0  0  0  0  0  0
   10.1926   14.2653   23.5582 O   0  0  0  0  0  0  0  0  0  0  0  0
    6.3022   12.1073   23.6828 S   0  0  0  0  0  0  0  0  0  0  0  0
    9.6083   14.1982   22.2308 S   0  0  0  0  0  0  0  0  0  0  0  0
   11.2718    9.6727   24.1578 H   0  0  0  0  0  0  0  0  0  0  0  0
    9.4241    8.8156   25.5683 H   0  0  0  0  0  0  0  0  0  0  0  0
   10.9015   11.5600   22.5941 H   0  0  0  0  0  0  0  0  0  0  0  0
    7.1570    9.8387   25.4184 H   0  0  0  0  0  0  0  0  0  0  0  0
    7.1212   14.3376   23.3649 H   0  0  0  0  0  0  0  0  0  0  0  0
    6.3767   13.6372   21.8966 H   0  0  0  0  0  0  0  0  0  0  0  0
    8.2896   12.5741   21.1807 H   0  0  0  0  0  0  0  0  0  0  0  0
   10.8395   13.9432   20.2278 H   0  0  0  0  0  0  0  0  0  0  0  0
   11.6366   13.1884   21.5533 H   0  0  0  0  0  0  0  0  0  0  0  0
  1  2  1  0  0  0  0
  1  3  2  0  0  0  0
  2  4  2  0  0  0  0
  3  5  1  0  0  0  0
  4  6  1  0  0  0  0
  5  6  2  0  0  0  0
  5  8  1  0  0  0  0
  6 14  1  0  0  0  0
  7  8  1  0  0  0  0
  7 14  1  0  0  0  0
  8 15  1  0  0  0  0
  9 15  1  0  0  0  0
 10 14  2  0  0  0  0
 11 14  2  0  0  0  0
 12 15  2  0  0  0  0
 13 15  2  0  0  0  0
  1 16  1  0  0  0  0
  2 17  1  0  0  0  0
  3 18  1  0  0  0  0
  4 19  1  0  0  0  0
  7 20  1  0  0  0  0
  7 21  1  0  0  0  0
  8 22  1  0  0  0  0
  9 23  1  0  0  0  0
  9 24  1  0  0  0  0
M  END
> <Mol Weight>
247,28

> <Formula>
C8H9NO4S2

> <ID>
EN300-226159

> <name>
Sulfonamides

> <LogP>
-0,63

> <ROCS_ShapeQuery>
x0446_0A_x1080_0A_x0929_0A_x0812_0A_x0719_0A_x1140_0A_x0528_0A_x0310_0A

> <ROCS_TanimotoCombo>
0.338 

> <ROCS_ShapeTanimoto>
0.186 

> <ROCS_ColorTanimoto>
0.153 

> <ROCS_RefTversky>
0.173 

> <ROCS_RefColorTversky>
0.164 

> <ROCS_RefTverskyCombo>
0.337 

> <ROCS_FitTversky>
1.670 

> <ROCS_FitColorTversky>
0.687 

> <ROCS_FitTverskyCombo>
2.357 

> <ROCS_ColorScore>
-5.854

> <ROCS_Overlap>
2038.853

> <ROCS_Rank>
274                 

$$$$
untitled-dbase-2133_26
  -OEChem-02082415043D

 29 29  0     0  0  0  0  0  0999 V2000
    7.8713   11.7344   24.2287 C   0  0  0  0  0  0  0  0  0  0  0  0
    9.9461   11.7793   22.3644 C   0  0  0  0  0  0  0  0  0  0  0  0
    8.4163   10.5380   23.7629 C   0  0  0  0  0  0  0  0  0  0  0  0
    8.3636   12.9534   23.7623 C   0  0  0  0  0  0  0  0  0  0  0  0
    9.4538   10.5604   22.8308 C   0  0  0  0  0  0  0  0  0  0  0  0
    9.4010   12.9758   22.8301 C   0  0  0  0  0  0  0  0  0  0  0  0
    6.8453    8.7718   23.5011 C   0  0  0  0  0  0  0  0  0  0  0  0
    6.7603   13.9884   25.1814 C   0  0  0  0  0  0  0  0  0  0  0  0
   11.0513    9.5096   21.4167 C   0  0  0  0  0  0  0  0  0  0  0  0
   11.2424   13.9333   21.1576 N   0  0  0  0  0  0  0  0  0  0  0  0
    8.9908   15.1513   21.4619 O   0  0  0  0  0  0  0  0  0  0  0  0
   10.6764   15.1902   23.3340 O   0  0  0  0  0  0  0  0  0  0  0  0
    7.9269    9.3539   24.2260 O   0  0  0  0  0  0  0  0  0  0  0  0
    7.8163   14.1098   24.2306 O   0  0  0  0  0  0  0  0  0  0  0  0
    9.9944    9.3987   22.3680 O   0  0  0  0  0  0  0  0  0  0  0  0
   10.0358   14.4914   22.2301 S   0  0  0  0  0  0  0  0  0  0  0  0
    7.0631   11.7164   24.9555 H   0  0  0  0  0  0  0  0  0  0  0  0
   10.7558   11.7911   21.6389 H   0  0  0  0  0  0  0  0  0  0  0  0
    6.5516    7.8323   23.9756 H   0  0  0  0  0  0  0  0  0  0  0  0
    7.1536    8.5901   22.4684 H   0  0  0  0  0  0  0  0  0  0  0  0
    5.9987    9.4624   23.5104 H   0  0  0  0  0  0  0  0  0  0  0  0
    6.4145   14.9834   25.4721 H   0  0  0  0  0  0  0  0  0  0  0  0
    7.1196   13.4451   26.0590 H   0  0  0  0  0  0  0  0  0  0  0  0
    5.9342   13.4365   24.7266 H   0  0  0  0  0  0  0  0  0  0  0  0
   11.3914    8.5113   21.1308 H   0  0  0  0  0  0  0  0  0  0  0  0
   11.8775   10.0765   21.8531 H   0  0  0  0  0  0  0  0  0  0  0  0
   10.6800   10.0327   20.5323 H   0  0  0  0  0  0  0  0  0  0  0  0
   11.0745   14.0351   20.1492 H   0  0  0  0  0  0  0  0  0  0  0  0
   12.2247   14.0605   21.4299 H   0  0  0  0  0  0  0  0  0  0  0  0
  1  3  1  0  0  0  0
  1  4  2  0  0  0  0
  2  5  1  0  0  0  0
  2  6  2  0  0  0  0
  3  5  2  0  0  0  0
  3 13  1  0  0  0  0
  4  6  1  0  0  0  0
  4 14  1  0  0  0  0
  5 15  1  0  0  0  0
  6 16  1  0  0  0  0
  7 13  1  0  0  0  0
  8 14  1  0  0  0  0
  9 15  1  0  0  0  0
 10 16  1  0  0  0  0
 11 16  2  0  0  0  0
 12 16  2  0  0  0  0
  1 17  1  0  0  0  0
  2 18  1  0  0  0  0
  7 19  1  0  0  0  0
  7 20  1  0  0  0  0
  7 21  1  0  0  0  0
  8 22  1  0  0  0  0
  8 23  1  0  0  0  0
  8 24  1  0  0  0  0
  9 25  1  0  0  0  0
  9 26  1  0  0  0  0
  9 27  1  0  0  0  0
 10 28  1  0  0  0  0
 10 29  1  0  0  0  0
M  END
> <Mol Weight>
247,27

> <Formula>
C9H13NO5S

> <ID>
EN300-1988597

> <name>
Sulfonamides

> <LogP>
0,11

> <ROCS_ShapeQuery>
x0446_0A_x1080_0A_x0929_0A_x0812_0A_x0719_0A_x1140_0A_x0528_0A_x0310_0A

> <ROCS_TanimotoCombo>
0.338 

> <ROCS_ShapeTanimoto>
0.208 

> <ROCS_ColorTanimoto>
0.130 

> <ROCS_RefTversky>
0.191 

> <ROCS_RefColorTversky>
0.143 

> <ROCS_RefTverskyCombo>
0.334 

> <ROCS_FitTversky>
1.774 

> <ROCS_FitColorTversky>
0.599 

> <ROCS_FitTverskyCombo>
2.373 

> <ROCS_ColorScore>
-5.100

> <ROCS_Overlap>
2248.646

> <ROCS_Rank>
275                 

$$$$
untitled-dbase-2296_25
  -OEChem-02082415043D

 23 23  0     0  0  0  0  0  0999 V2000
    7.9440   11.8638   24.8870 C   0  0  0  0  0  0  0  0  0  0  0  0
    8.0328   10.4970   24.6236 C   0  0  0  0  0  0  0  0  0  0  0  0
    9.5147   12.3092   23.1062 C   0  0  0  0  0  0  0  0  0  0  0  0
    8.6849   12.7700   24.1283 C   0  0  0  0  0  0  0  0  0  0  0  0
    8.8627   10.0362   23.6015 C   0  0  0  0  0  0  0  0  0  0  0  0
    9.6036   10.9423   22.8427 C   0  0  0  0  0  0  0  0  0  0  0  0
    8.5891   14.2311   24.4113 C   0  0  0  0  0  0  0  0  0  0  0  0
    7.4877   14.9392   23.6175 C   0  0  0  0  0  0  0  0  0  0  0  0
    6.3306   15.6505   21.3358 N   0  0  0  0  0  0  0  0  0  0  0  0
    8.8930   15.4785   21.4818 O   0  0  0  0  0  0  0  0  0  0  0  0
    7.5027   13.3689   21.5291 O   0  0  0  0  0  0  0  0  0  0  0  0
    7.6874   14.7683   21.8718 S   0  0  0  0  0  0  0  0  0  0  0  0
    8.9300    8.3310   23.3246 Cl  0  0  0  0  0  0  0  0  0  0  0  0
   10.6490   10.4332   21.5633 Cl  0  0  0  0  0  0  0  0  0  0  0  0
    7.2954   12.2140   25.6860 H   0  0  0  0  0  0  0  0  0  0  0  0
    7.4483    9.8051   25.2251 H   0  0  0  0  0  0  0  0  0  0  0  0
   10.0890   13.0226   22.5193 H   0  0  0  0  0  0  0  0  0  0  0  0
    9.5501   14.7159   24.1664 H   0  0  0  0  0  0  0  0  0  0  0  0
    8.4356   14.4191   25.4882 H   0  0  0  0  0  0  0  0  0  0  0  0
    6.5093   14.5071   23.8508 H   0  0  0  0  0  0  0  0  0  0  0  0
    7.4511   16.0112   23.8337 H   0  0  0  0  0  0  0  0  0  0  0  0
    6.4976   16.5611   20.8904 H   0  0  0  0  0  0  0  0  0  0  0  0
    5.5507   15.1243   20.9228 H   0  0  0  0  0  0  0  0  0  0  0  0
  1  2  2  0  0  0  0
  1  4  1  0  0  0  0
  2  5  1  0  0  0  0
  3  4  2  0  0  0  0
  3  6  1  0  0  0  0
  4  7  1  0  0  0  0
  5  6  2  0  0  0  0
  5 13  1  0  0  0  0
  6 14  1  0  0  0  0
  7  8  1  0  0  0  0
  8 12  1  0  0  0  0
  9 12  1  0  0  0  0
 10 12  2  0  0  0  0
 11 12  2  0  0  0  0
  1 15  1  0  0  0  0
  2 16  1  0  0  0  0
  3 17  1  0  0  0  0
  7 18  1  0  0  0  0
  7 19  1  0  0  0  0
  8 20  1  0  0  0  0
  8 21  1  0  0  0  0
  9 22  1  0  0  0  0
  9 23  1  0  0  0  0
M  END
> <Mol Weight>
254,13

> <Formula>
C8H9Cl2NO2S

> <ID>
EN300-283808

> <name>
Sulfonamides

> <LogP>
1,84

> <ROCS_ShapeQuery>
x0446_0A_x1080_0A_x0929_0A_x0812_0A_x0719_0A_x1140_0A_x0528_0A_x0310_0A

> <ROCS_TanimotoCombo>
0.338 

> <ROCS_ShapeTanimoto>
0.187 

> <ROCS_ColorTanimoto>
0.151 

> <ROCS_RefTversky>
0.173 

> <ROCS_RefColorTversky>
0.152 

> <ROCS_RefTverskyCombo>
0.325 

> <ROCS_FitTversky>
1.774 

> <ROCS_FitColorTversky>
0.956 

> <ROCS_FitTverskyCombo>
2.730 

> <ROCS_ColorScore>
-5.413

> <ROCS_Overlap>
2039.161

> <ROCS_Rank>
276                 

$$$$
untitled-dbase-509_0
  -OEChem-02082415043D

 22 22  0     0  0  0  0  0  0999 V2000
    8.0549   10.4268   24.0909 C   0  0  0  0  0  0  0  0  0  0  0  0
    9.4475   10.3796   24.1552 C   0  0  0  0  0  0  0  0  0  0  0  0
    7.4079   11.6419   23.8661 C   0  0  0  0  0  0  0  0  0  0  0  0
   10.1930   11.5475   23.9948 C   0  0  0  0  0  0  0  0  0  0  0  0
    8.1534   12.8098   23.7056 C   0  0  0  0  0  0  0  0  0  0  0  0
    9.5460   12.7627   23.7700 C   0  0  0  0  0  0  0  0  0  0  0  0
    7.4342   14.0974   23.4661 C   0  0  0  0  0  0  0  0  0  0  0  0
   10.3170   13.9349   23.6099 N   0  0  0  0  0  0  0  0  0  0  0  0
    6.3475   15.6134   21.5761 N   0  0  0  0  0  0  0  0  0  0  0  0
    8.8951   15.2636   21.6404 O   0  0  0  0  0  0  0  0  0  0  0  0
    7.3956   13.3455   20.9639 O   0  0  0  0  0  0  0  0  0  0  0  0
    7.6484   14.5280   21.7700 S   0  0  0  0  0  0  0  0  0  0  0  0
    7.4745    9.5173   24.2158 H   0  0  0  0  0  0  0  0  0  0  0  0
    9.9511    9.4334   24.3303 H   0  0  0  0  0  0  0  0  0  0  0  0
    6.3224   11.6679   23.8176 H   0  0  0  0  0  0  0  0  0  0  0  0
   11.2777   11.4985   24.0470 H   0  0  0  0  0  0  0  0  0  0  0  0
    7.8343   14.9140   24.0760 H   0  0  0  0  0  0  0  0  0  0  0  0
    6.3600   14.0132   23.6610 H   0  0  0  0  0  0  0  0  0  0  0  0
    9.8549   14.7960   23.4021 H   0  0  0  0  0  0  0  0  0  0  0  0
   11.3137   13.8652   23.6136 H   0  0  0  0  0  0  0  0  0  0  0  0
    5.3966   15.2241   21.5733 H   0  0  0  0  0  0  0  0  0  0  0  0
    6.4181   16.5305   22.0339 H   0  0  0  0  0  0  0  0  0  0  0  0
  1  2  1  0  0  0  0
  1  3  2  0  0  0  0
  2  4  2  0  0  0  0
  3  5  1  0  0  0  0
  4  6  1  0  0  0  0
  5  6  2  0  0  0  0
  5  7  1  0  0  0  0
  6  8  1  0  0  0  0
  7 12  1  0  0  0  0
  9 12  1  0  0  0  0
 10 12  2  0  0  0  0
 11 12  2  0  0  0  0
  1 13  1  0  0  0  0
  2 14  1  0  0  0  0
  3 15  1  0  0  0  0
  4 16  1  0  0  0  0
  7 17  1  0  0  0  0
  7 18  1  0  0  0  0
  8 19  1  0  0  0  0
  8 20  1  0  0  0  0
  9 21  1  0  0  0  0
  9 22  1  0  0  0  0
M  END
> <Mol Weight>
186,23

> <Formula>
C7H10N2O2S

> <ID>
EN300-130084

> <name>
Sulfonamides

> <LogP>
-0,49

> <ROCS_ShapeQuery>
x0446_0A_x1080_0A_x0929_0A_x0812_0A_x0719_0A_x1140_0A_x0528_0A_x0310_0A

> <ROCS_TanimotoCombo>
0.338 

> <ROCS_ShapeTanimoto>
0.172 

> <ROCS_ColorTanimoto>
0.167 

> <ROCS_RefTversky>
0.160 

> <ROCS_RefColorTversky>
0.173 

> <ROCS_RefTverskyCombo>
0.333 

> <ROCS_FitTversky>
1.726 

> <ROCS_FitColorTversky>
0.816 

> <ROCS_FitTverskyCombo>
2.542 

> <ROCS_ColorScore>
-6.173

> <ROCS_Overlap>
1886.440

> <ROCS_Rank>
277                 

$$$$
untitled-dbase-1538_0
  -OEChem-02082415043D

 22 22  0     0  0  0  0  0  0999 V2000
    8.0549   10.4268   24.0909 C   0  0  0  0  0  0  0  0  0  0  0  0
    9.4475   10.3796   24.1552 C   0  0  0  0  0  0  0  0  0  0  0  0
    7.4079   11.6419   23.8661 C   0  0  0  0  0  0  0  0  0  0  0  0
   10.1930   11.5475   23.9948 C   0  0  0  0  0  0  0  0  0  0  0  0
    8.1534   12.8098   23.7056 C   0  0  0  0  0  0  0  0  0  0  0  0
    9.5460   12.7627   23.7700 C   0  0  0  0  0  0  0  0  0  0  0  0
    7.4342   14.0974   23.4661 C   0  0  0  0  0  0  0  0  0  0  0  0
   10.3170   13.9349   23.6099 N   0  0  0  0  0  0  0  0  0  0  0  0
    6.3475   15.6134   21.5761 N   0  0  0  0  0  0  0  0  0  0  0  0
    8.8951   15.2636   21.6404 O   0  0  0  0  0  0  0  0  0  0  0  0
    7.3956   13.3455   20.9639 O   0  0  0  0  0  0  0  0  0  0  0  0
    7.6484   14.5280   21.7700 S   0  0  0  0  0  0  0  0  0  0  0  0
    7.4745    9.5173   24.2158 H   0  0  0  0  0  0  0  0  0  0  0  0
    9.9511    9.4334   24.3303 H   0  0  0  0  0  0  0  0  0  0  0  0
    6.3224   11.6679   23.8176 H   0  0  0  0  0  0  0  0  0  0  0  0
   11.2777   11.4985   24.0470 H   0  0  0  0  0  0  0  0  0  0  0  0
    7.8343   14.9140   24.0760 H   0  0  0  0  0  0  0  0  0  0  0  0
    6.3600   14.0132   23.6610 H   0  0  0  0  0  0  0  0  0  0  0  0
    9.8549   14.7960   23.4021 H   0  0  0  0  0  0  0  0  0  0  0  0
   11.3137   13.8652   23.6136 H   0  0  0  0  0  0  0  0  0  0  0  0
    5.3966   15.2241   21.5733 H   0  0  0  0  0  0  0  0  0  0  0  0
    6.4181   16.5305   22.0339 H   0  0  0  0  0  0  0  0  0  0  0  0
  1  2  1  0  0  0  0
  1  3  2  0  0  0  0
  2  4  2  0  0  0  0
  3  5  1  0  0  0  0
  4  6  1  0  0  0  0
  5  6  2  0  0  0  0
  5  7  1  0  0  0  0
  6  8  1  0  0  0  0
  7 12  1  0  0  0  0
  9 12  1  0  0  0  0
 10 12  2  0  0  0  0
 11 12  2  0  0  0  0
  1 13  1  0  0  0  0
  2 14  1  0  0  0  0
  3 15  1  0  0  0  0
  4 16  1  0  0  0  0
  7 17  1  0  0  0  0
  7 18  1  0  0  0  0
  8 19  1  0  0  0  0
  8 20  1  0  0  0  0
  9 21  1  0  0  0  0
  9 22  1  0  0  0  0
M  END
> <Mol Weight>
222,69

> <Formula>
C7H11ClN2O2S

> <ID>
EN300-209373

> <name>
Sulfonamides

> <LogP>
-0,49

> <ROCS_ShapeQuery>
x0446_0A_x1080_0A_x0929_0A_x0812_0A_x0719_0A_x1140_0A_x0528_0A_x0310_0A

> <ROCS_TanimotoCombo>
0.338 

> <ROCS_ShapeTanimoto>
0.172 

> <ROCS_ColorTanimoto>
0.167 

> <ROCS_RefTversky>
0.160 

> <ROCS_RefColorTversky>
0.173 

> <ROCS_RefTverskyCombo>
0.333 

> <ROCS_FitTversky>
1.726 

> <ROCS_FitColorTversky>
0.816 

> <ROCS_FitTverskyCombo>
2.542 

> <ROCS_ColorScore>
-6.173

> <ROCS_Overlap>
1886.440

> <ROCS_Rank>
278                 

$$$$
untitled-dbase-2677_325
  -OEChem-02082415043D

 30 30  0     0  0  0  0  0  0999 V2000
    9.2594   10.2137   23.3467 C   0  0  0  0  0  0  0  0  0  0  0  0
    8.0068   10.2692   23.9578 C   0  0  0  0  0  0  0  0  0  0  0  0
   10.0737   11.3459   23.3210 C   0  0  0  0  0  0  0  0  0  0  0  0
    8.3826   12.5893   24.5173 C   0  0  0  0  0  0  0  0  0  0  0  0
    7.5684   11.4570   24.5430 C   0  0  0  0  0  0  0  0  0  0  0  0
    9.6353   12.5337   23.9062 C   0  0  0  0  0  0  0  0  0  0  0  0
   12.0991   15.0740   22.9201 C   0  0  0  0  0  0  0  0  0  0  0  0
   11.3185   13.7765   22.7757 C   0  0  0  0  0  0  0  0  0  0  0  0
   11.1793   16.2823   22.9372 C   0  0  0  0  0  0  0  0  0  0  0  0
    6.2288   11.5164   25.1959 C   0  0  0  0  0  0  0  0  0  0  0  0
   11.4619   15.9708   20.3153 N   0  0  0  0  0  0  0  0  0  0  0  0
    9.2292   15.3824   21.4491 O   0  0  0  0  0  0  0  0  0  0  0  0
    9.9115   17.8060   21.2346 O   0  0  0  0  0  0  0  0  0  0  0  0
   10.4359   13.6462   23.8814 O   0  0  0  0  0  0  0  0  0  0  0  0
    5.5424   10.3365   25.1455 F   0  0  0  0  0  0  0  0  0  0  0  0
    6.2805   11.8417   26.5215 F   0  0  0  0  0  0  0  0  0  0  0  0
    5.4062   12.4430   24.6234 F   0  0  0  0  0  0  0  0  0  0  0  0
   10.2566   16.4096   21.4386 S   0  0  0  0  0  0  0  0  0  0  0  0
    9.6009    9.2887   22.8915 H   0  0  0  0  0  0  0  0  0  0  0  0
    7.3792    9.3821   23.9725 H   0  0  0  0  0  0  0  0  0  0  0  0
   11.0483   11.2961   22.8435 H   0  0  0  0  0  0  0  0  0  0  0  0
    8.0433   13.5168   24.9725 H   0  0  0  0  0  0  0  0  0  0  0  0
   12.7006   15.0402   23.8374 H   0  0  0  0  0  0  0  0  0  0  0  0
   12.8245   15.1587   22.1010 H   0  0  0  0  0  0  0  0  0  0  0  0
   11.9926   12.9142   22.7647 H   0  0  0  0  0  0  0  0  0  0  0  0
   10.7259   13.7773   21.8552 H   0  0  0  0  0  0  0  0  0  0  0  0
   11.7458   17.2124   23.0412 H   0  0  0  0  0  0  0  0  0  0  0  0
   10.4530   16.2183   23.7529 H   0  0  0  0  0  0  0  0  0  0  0  0
   11.3753   15.0571   19.8534 H   0  0  0  0  0  0  0  0  0  0  0  0
   11.8400   16.7078   19.7075 H   0  0  0  0  0  0  0  0  0  0  0  0
  1  2  1  0  0  0  0
  1  3  2  0  0  0  0
  2  5  2  0  0  0  0
  3  6  1  0  0  0  0
  4  5  1  0  0  0  0
  4  6  2  0  0  0  0
  5 10  1  0  0  0  0
  6 14  1  0  0  0  0
  7  8  1  0  0  0  0
  7  9  1  0  0  0  0
  8 14  1  0  0  0  0
  9 18  1  0  0  0  0
 10 15  1  0  0  0  0
 10 16  1  0  0  0  0
 10 17  1  0  0  0  0
 11 18  1  0  0  0  0
 12 18  2  0  0  0  0
 13 18  2  0  0  0  0
  1 19  1  0  0  0  0
  2 20  1  0  0  0  0
  3 21  1  0  0  0  0
  4 22  1  0  0  0  0
  7 23  1  0  0  0  0
  7 24  1  0  0  0  0
  8 25  1  0  0  0  0
  8 26  1  0  0  0  0
  9 27  1  0  0  0  0
  9 28  1  0  0  0  0
 11 29  1  0  0  0  0
 11 30  1  0  0  0  0
M  END
> <Mol Weight>
283,27

> <Formula>
C10H12F3NO3S

> <ID>
EN300-14975404

> <name>
Sulfonamides

> <LogP>
1,20

> <ROCS_ShapeQuery>
x0446_0A_x1080_0A_x0929_0A_x0812_0A_x0719_0A_x1140_0A_x0528_0A_x0310_0A

> <ROCS_TanimotoCombo>
0.338 

> <ROCS_ShapeTanimoto>
0.210 

> <ROCS_ColorTanimoto>
0.128 

> <ROCS_RefTversky>
0.194 

> <ROCS_RefColorTversky>
0.135 

> <ROCS_RefTverskyCombo>
0.328 

> <ROCS_FitTversky>
1.698 

> <ROCS_FitColorTversky>
0.724 

> <ROCS_FitTverskyCombo>
2.423 

> <ROCS_ColorScore>
-4.788

> <ROCS_Overlap>
2284.186

> <ROCS_Rank>
279                 

$$$$
untitled-dbase-1196_8
  -OEChem-02082415043D

 26 27  0     1  0  0  0  0  0999 V2000
    7.5576    9.8039   24.4399 C   0  0  0  0  0  0  0  0  0  0  0  0
    8.4944    9.3274   23.5280 C   0  0  0  0  0  0  0  0  0  0  0  0
    7.5408   11.1562   24.7751 C   0  0  0  0  0  0  0  0  0  0  0  0
    9.4208   10.2013   22.9570 C   0  0  0  0  0  0  0  0  0  0  0  0
    8.4607   12.0423   24.1959 C   0  0  0  0  0  0  0  0  0  0  0  0
    9.4299   11.5629   23.2936 C   0  0  0  0  0  0  0  0  0  0  0  0
    8.4295   13.5028   24.5786 C   0  0  0  0  0  0  0  0  0  0  0  0
   10.4970   13.7829   23.1638 C   0  0  0  0  0  0  0  0  0  0  0  0
    9.1539   14.3887   23.5615 C   0  0  1  0  0  0  0  0  0  0  0  0
   10.3492   12.4167   22.6980 N   0  0  0  0  0  0  0  0  0  0  0  0
    6.8243   15.4853   22.8955 N   0  0  0  0  0  0  0  0  0  0  0  0
    8.8348   15.6701   21.3016 O   0  0  0  0  0  0  0  0  0  0  0  0
    7.6952   13.4356   21.6081 O   0  0  0  0  0  0  0  0  0  0  0  0
    8.1396   14.7106   22.1386 S   0  0  0  0  0  0  0  0  0  0  0  0
    6.8422    9.1229   24.8914 H   0  0  0  0  0  0  0  0  0  0  0  0
    8.5040    8.2753   23.2585 H   0  0  0  0  0  0  0  0  0  0  0  0
    6.8097   11.5170   25.4945 H   0  0  0  0  0  0  0  0  0  0  0  0
   10.1375    9.8105   22.2375 H   0  0  0  0  0  0  0  0  0  0  0  0
    7.3756   13.8104   24.6740 H   0  0  0  0  0  0  0  0  0  0  0  0
    8.8904   13.6415   25.5694 H   0  0  0  0  0  0  0  0  0  0  0  0
   10.9717   14.3841   22.3725 H   0  0  0  0  0  0  0  0  0  0  0  0
   11.1910   13.7974   24.0171 H   0  0  0  0  0  0  0  0  0  0  0  0
    9.3357   15.3897   24.0142 H   0  0  0  0  0  0  0  0  0  0  0  0
   10.7563   12.1557   21.8072 H   0  0  0  0  0  0  0  0  0  0  0  0
    6.7113   16.4953   22.7445 H   0  0  0  0  0  0  0  0  0  0  0  0
    5.9353   14.9734   22.9534 H   0  0  0  0  0  0  0  0  0  0  0  0
  1  2  1  0  0  0  0
  1  3  2  0  0  0  0
  2  4  2  0  0  0  0
  3  5  1  0  0  0  0
  4  6  1  0  0  0  0
  5  6  2  0  0  0  0
  5  7  1  0  0  0  0
  6 10  1  0  0  0  0
  7  9  1  0  0  0  0
  8  9  1  0  0  0  0
  8 10  1  0  0  0  0
  9 14  1  0  0  0  0
 11 14  1  0  0  0  0
 12 14  2  0  0  0  0
 13 14  2  0  0  0  0
  1 15  1  0  0  0  0
  2 16  1  0  0  0  0
  3 17  1  0  0  0  0
  4 18  1  0  0  0  0
  7 19  1  0  0  0  0
  7 20  1  0  0  0  0
  8 21  1  0  0  0  0
  8 22  1  0  0  0  0
  9 23  1  0  0  0  0
 10 24  1  0  0  0  0
 11 25  1  0  0  0  0
 11 26  1  0  0  0  0
M  END
> <Mol Weight>
212,27

> <Formula>
C9H12N2O2S

> <ID>
EN300-221193

> <name>
Sulfonamides

> <LogP>
0,14

> <ROCS_ShapeQuery>
x0446_0A_x1080_0A_x0929_0A_x0812_0A_x0719_0A_x1140_0A_x0528_0A_x0310_0A

> <ROCS_TanimotoCombo>
0.338 

> <ROCS_ShapeTanimoto>
0.204 

> <ROCS_ColorTanimoto>
0.134 

> <ROCS_RefTversky>
0.187 

> <ROCS_RefColorTversky>
0.143 

> <ROCS_RefTverskyCombo>
0.330 

> <ROCS_FitTversky>
1.852 

> <ROCS_FitColorTversky>
0.675 

> <ROCS_FitTverskyCombo>
2.526 

> <ROCS_ColorScore>
-5.105

> <ROCS_Overlap>
2201.481

> <ROCS_Rank>
280                 

$$$$
untitled-dbase-2266_21
  -OEChem-02082415043D

 27 27  0     0  0  0  0  0  0999 V2000
    9.9920   13.6753   23.9636 C   0  0  0  0  0  0  0  0  0  0  0  0
    8.3774   12.1973   25.0883 C   0  0  0  0  0  0  0  0  0  0  0  0
    8.8395   12.0016   22.5516 C   0  0  0  0  0  0  0  0  0  0  0  0
    7.4905   10.9796   24.8749 C   0  0  0  0  0  0  0  0  0  0  0  0
    9.4532   10.6533   22.9039 C   0  0  0  0  0  0  0  0  0  0  0  0
    8.7115   12.9508   23.7730 C   0  0  0  0  0  0  0  0  0  0  0  0
    7.6191   13.9941   23.4712 C   0  0  0  0  0  0  0  0  0  0  0  0
   10.9934   14.2419   24.1125 N   0  0  0  0  0  0  0  0  0  0  0  0
    6.4070   15.6226   21.7595 N   0  0  0  0  0  0  0  0  0  0  0  0
    7.3889    9.0417   23.1152 O   0  0  0  0  0  0  0  0  0  0  0  0
    9.1802    8.9682   24.8919 O   0  0  0  0  0  0  0  0  0  0  0  0
    8.9421   15.2238   21.5832 O   0  0  0  0  0  0  0  0  0  0  0  0
    7.3469   13.3696   20.9485 O   0  0  0  0  0  0  0  0  0  0  0  0
    8.3580    9.7141   23.9588 S   0  0  0  0  0  0  0  0  0  0  0  0
    7.6947   14.5027   21.7947 S   0  0  0  0  0  0  0  0  0  0  0  0
    7.8820   12.8740   25.7870 H   0  0  0  0  0  0  0  0  0  0  0  0
    9.3066   11.8784   25.5661 H   0  0  0  0  0  0  0  0  0  0  0  0
    9.4540   12.4801   21.7865 H   0  0  0  0  0  0  0  0  0  0  0  0
    7.8573   11.8343   22.1077 H   0  0  0  0  0  0  0  0  0  0  0  0
    7.2077   10.5370   25.8295 H   0  0  0  0  0  0  0  0  0  0  0  0
    6.5853   11.2228   24.3224 H   0  0  0  0  0  0  0  0  0  0  0  0
    9.6550   10.0513   22.0209 H   0  0  0  0  0  0  0  0  0  0  0  0
   10.3827   10.7860   23.4561 H   0  0  0  0  0  0  0  0  0  0  0  0
    7.7655   14.8664   24.0979 H   0  0  0  0  0  0  0  0  0  0  0  0
    6.6420   13.5607   23.6513 H   0  0  0  0  0  0  0  0  0  0  0  0
    6.6444   16.6190   21.6781 H   0  0  0  0  0  0  0  0  0  0  0  0
    5.5580   15.3560   21.2461 H   0  0  0  0  0  0  0  0  0  0  0  0
  1  6  1  0  0  0  0
  1  8  3  0  0  0  0
  2  4  1  0  0  0  0
  2  6  1  0  0  0  0
  3  5  1  0  0  0  0
  3  6  1  0  0  0  0
  4 14  1  0  0  0  0
  5 14  1  0  0  0  0
  6  7  1  0  0  0  0
  7 15  1  0  0  0  0
  9 15  1  0  0  0  0
 10 14  2  0  0  0  0
 11 14  2  0  0  0  0
 12 15  2  0  0  0  0
 13 15  2  0  0  0  0
  2 16  1  0  0  0  0
  2 17  1  0  0  0  0
  3 18  1  0  0  0  0
  3 19  1  0  0  0  0
  4 20  1  0  0  0  0
  4 21  1  0  0  0  0
  5 22  1  0  0  0  0
  5 23  1  0  0  0  0
  7 24  1  0  0  0  0
  7 25  1  0  0  0  0
  9 26  1  0  0  0  0
  9 27  1  0  0  0  0
M  END
> <Mol Weight>
252,30

> <Formula>
C7H12N2O4S2

> <ID>
EN300-6764855

> <name>
Sulfonamides

> <LogP>
-2,45

> <ROCS_ShapeQuery>
x0446_0A_x1080_0A_x0929_0A_x0812_0A_x0719_0A_x1140_0A_x0528_0A_x0310_0A

> <ROCS_TanimotoCombo>
0.338 

> <ROCS_ShapeTanimoto>
0.183 

> <ROCS_ColorTanimoto>
0.156 

> <ROCS_RefTversky>
0.170 

> <ROCS_RefColorTversky>
0.167 

> <ROCS_RefTverskyCombo>
0.337 

> <ROCS_FitTversky>
1.687 

> <ROCS_FitColorTversky>
0.699 

> <ROCS_FitTverskyCombo>
2.385 

> <ROCS_ColorScore>
-5.950

> <ROCS_Overlap>
2004.218

> <ROCS_Rank>
281                 

$$$$
untitled-dbase-777_3
  -OEChem-02082415043D

 19 20  0     0  0  0  0  0  0999 V2000
    7.5471   11.0082   23.6506 C   0  0  0  0  0  0  0  0  0  0  0  0
    8.1967   12.2095   23.4969 C   0  0  0  0  0  0  0  0  0  0  0  0
    9.6012   10.5963   24.0744 C   0  0  0  0  0  0  0  0  0  0  0  0
   10.8824   10.0883   24.3932 C   0  0  0  0  0  0  0  0  0  0  0  0
   11.9383   10.9101   24.3877 C   0  0  0  0  0  0  0  0  0  0  0  0
   11.6807   12.3279   24.0394 C   0  0  0  0  0  0  0  0  0  0  0  0
    8.4212   10.0136   24.0080 N   0  0  0  0  0  0  0  0  0  0  0  0
   10.5315   12.8483   23.7396 N   0  0  0  0  0  0  0  0  0  0  0  0
    9.5128   11.9435   23.7690 N   0  0  0  0  0  0  0  0  0  0  0  0
    9.0803   14.6934   23.1042 N   0  0  0  0  0  0  0  0  0  0  0  0
    7.1432   13.7538   21.6863 O   0  0  0  0  0  0  0  0  0  0  0  0
    6.7476   14.2829   24.1176 O   0  0  0  0  0  0  0  0  0  0  0  0
    7.6185   13.8165   23.0554 S   0  0  0  0  0  0  0  0  0  0  0  0
    6.4933   10.8075   23.5226 H   0  0  0  0  0  0  0  0  0  0  0  0
   10.9968    9.0382   24.6372 H   0  0  0  0  0  0  0  0  0  0  0  0
   12.9447   10.5897   24.6192 H   0  0  0  0  0  0  0  0  0  0  0  0
   12.5717   12.9768   24.0451 H   0  0  0  0  0  0  0  0  0  0  0  0
    9.4983   14.8767   24.0246 H   0  0  0  0  0  0  0  0  0  0  0  0
    9.7693   14.5176   22.3629 H   0  0  0  0  0  0  0  0  0  0  0  0
  1  2  2  0  0  0  0
  1  7  1  0  0  0  0
  2  9  1  0  0  0  0
  2 13  1  0  0  0  0
  3  4  1  0  0  0  0
  3  7  2  0  0  0  0
  3  9  1  0  0  0  0
  4  5  2  0  0  0  0
  5  6  1  0  0  0  0
  6  8  2  0  0  0  0
  8  9  1  0  0  0  0
 10 13  1  0  0  0  0
 11 13  2  0  0  0  0
 12 13  2  0  0  0  0
  1 14  1  0  0  0  0
  4 15  1  0  0  0  0
  5 16  1  0  0  0  0
  6 17  1  0  0  0  0
 10 18  1  0  0  0  0
 10 19  1  0  0  0  0
M  END
> <Mol Weight>
198,20

> <Formula>
C6H6N4O2S

> <ID>
EN300-7547127

> <name>
Sulfonamides

> <LogP>
-0,65

> <ROCS_ShapeQuery>
x0446_0A_x1080_0A_x0929_0A_x0812_0A_x0719_0A_x1140_0A_x0528_0A_x0310_0A

> <ROCS_TanimotoCombo>
0.338 

> <ROCS_ShapeTanimoto>
0.183 

> <ROCS_ColorTanimoto>
0.155 

> <ROCS_RefTversky>
0.170 

> <ROCS_RefColorTversky>
0.170 

> <ROCS_RefTverskyCombo>
0.340 

> <ROCS_FitTversky>
1.708 

> <ROCS_FitColorTversky>
0.641 

> <ROCS_FitTverskyCombo>
2.349 

> <ROCS_ColorScore>
-6.081

> <ROCS_Overlap>
2003.188

> <ROCS_Rank>
282                 

$$$$
untitled-dbase-2057_3
  -OEChem-02082415043D

 22 23  0     0  0  0  0  0  0999 V2000
    5.4333   12.0877   25.5228 C   0  0  0  0  0  0  0  0  0  0  0  0
    6.1974   11.0453   25.0184 C   0  0  0  0  0  0  0  0  0  0  0  0
    8.1562   10.2819   23.7607 C   0  0  0  0  0  0  0  0  0  0  0  0
    9.6672   11.9041   22.8323 C   0  0  0  0  0  0  0  0  0  0  0  0
    5.8650   13.3745   25.2729 C   0  0  0  0  0  0  0  0  0  0  0  0
    7.3608   11.3149   24.2850 C   0  0  0  0  0  0  0  0  0  0  0  0
    7.7203   12.6638   24.0821 C   0  0  0  0  0  0  0  0  0  0  0  0
    8.8762   12.9310   23.3537 C   0  0  0  0  0  0  0  0  0  0  0  0
    9.3070   10.5778   23.0358 C   0  0  0  0  0  0  0  0  0  0  0  0
    6.9808   13.6774   24.5705 N   0  0  0  0  0  0  0  0  0  0  0  0
    8.1485   15.4434   23.8664 N   0  0  0  0  0  0  0  0  0  0  0  0
   10.6422   14.7973   23.7677 O   0  0  0  0  0  0  0  0  0  0  0  0
    9.2959   14.8458   21.6386 O   0  0  0  0  0  0  0  0  0  0  0  0
    9.3877   14.5855   23.0654 S   0  0  0  0  0  0  0  0  0  0  0  0
   10.2777    9.3090   22.3984 Cl  0  0  0  0  0  0  0  0  0  0  0  0
    4.5315   11.8971   26.0924 H   0  0  0  0  0  0  0  0  0  0  0  0
    5.8805   10.0210   25.2007 H   0  0  0  0  0  0  0  0  0  0  0  0
    7.8715    9.2439   23.9238 H   0  0  0  0  0  0  0  0  0  0  0  0
   10.5656   12.1456   22.2684 H   0  0  0  0  0  0  0  0  0  0  0  0
    5.3086   14.2296   25.6428 H   0  0  0  0  0  0  0  0  0  0  0  0
    7.2147   15.4502   23.4381 H   0  0  0  0  0  0  0  0  0  0  0  0
    8.1340   15.4195   24.8933 H   0  0  0  0  0  0  0  0  0  0  0  0
  1  2  2  0  0  0  0
  1  5  1  0  0  0  0
  2  6  1  0  0  0  0
  3  6  2  0  0  0  0
  3  9  1  0  0  0  0
  4  8  1  0  0  0  0
  4  9  2  0  0  0  0
  5 10  2  0  0  0  0
  6  7  1  0  0  0  0
  7  8  2  0  0  0  0
  7 10  1  0  0  0  0
  8 14  1  0  0  0  0
  9 15  1  0  0  0  0
 11 14  1  0  0  0  0
 12 14  2  0  0  0  0
 13 14  2  0  0  0  0
  1 16  1  0  0  0  0
  2 17  1  0  0  0  0
  3 18  1  0  0  0  0
  4 19  1  0  0  0  0
  5 20  1  0  0  0  0
 11 21  1  0  0  0  0
 11 22  1  0  0  0  0
M  END
> <Mol Weight>
242,68

> <Formula>
C9H7ClN2O2S

> <ID>
EN300-272017

> <name>
Sulfonamides

> <LogP>
1,34

> <ROCS_ShapeQuery>
x0446_0A_x1080_0A_x0929_0A_x0812_0A_x0719_0A_x1140_0A_x0528_0A_x0310_0A

> <ROCS_TanimotoCombo>
0.338 

> <ROCS_ShapeTanimoto>
0.205 

> <ROCS_ColorTanimoto>
0.133 

> <ROCS_RefTversky>
0.188 

> <ROCS_RefColorTversky>
0.142 

> <ROCS_RefTverskyCombo>
0.330 

> <ROCS_FitTversky>
1.786 

> <ROCS_FitColorTversky>
0.669 

> <ROCS_FitTverskyCombo>
2.455 

> <ROCS_ColorScore>
-5.063

> <ROCS_Overlap>
2217.215

> <ROCS_Rank>
283                 

$$$$
untitled-dbase-1130_270
  -OEChem-02082415043D

 28 28  0     0  0  0  0  0  0999 V2000
    8.2877   12.5358   23.9843 C   0  0  0  0  0  0  0  0  0  0  0  0
   10.3659   11.1513   23.7819 C   0  0  0  0  0  0  0  0  0  0  0  0
    7.4945   11.2607   23.7353 C   0  0  0  0  0  0  0  0  0  0  0  0
    9.4617    9.9502   23.5440 C   0  0  0  0  0  0  0  0  0  0  0  0
    9.6725   12.4412   23.3508 C   0  0  0  0  0  0  0  0  0  0  0  0
   11.7483   13.5304   23.1853 C   0  0  0  0  0  0  0  0  0  0  0  0
   11.7218   14.0318   21.7546 C   0  0  0  0  0  0  0  0  0  0  0  0
   11.7362   16.1325   20.1303 N   0  0  0  0  0  0  0  0  0  0  0  0
    9.6654   15.6335   21.5724 O   0  0  0  0  0  0  0  0  0  0  0  0
   11.7754   16.4751   22.6794 O   0  0  0  0  0  0  0  0  0  0  0  0
    8.2101   10.1198   24.2104 O   0  0  0  0  0  0  0  0  0  0  0  0
   10.4442   13.5671   23.7485 O   0  0  0  0  0  0  0  0  0  0  0  0
   11.1144   15.6875   21.6539 S   0  0  0  0  0  0  0  0  0  0  0  0
    7.7506   13.4097   23.5985 H   0  0  0  0  0  0  0  0  0  0  0  0
    8.3994   12.6943   25.0648 H   0  0  0  0  0  0  0  0  0  0  0  0
   10.6152   11.2198   24.8488 H   0  0  0  0  0  0  0  0  0  0  0  0
   11.3164   11.0323   23.2497 H   0  0  0  0  0  0  0  0  0  0  0  0
    6.5417   11.3037   24.2723 H   0  0  0  0  0  0  0  0  0  0  0  0
    7.2692   11.1319   22.6702 H   0  0  0  0  0  0  0  0  0  0  0  0
    9.2855    9.7893   22.4740 H   0  0  0  0  0  0  0  0  0  0  0  0
    9.9314    9.0451   23.9417 H   0  0  0  0  0  0  0  0  0  0  0  0
    9.5771   12.4663   22.2587 H   0  0  0  0  0  0  0  0  0  0  0  0
   12.1002   12.4947   23.2208 H   0  0  0  0  0  0  0  0  0  0  0  0
   12.4078   14.1383   23.8121 H   0  0  0  0  0  0  0  0  0  0  0  0
   11.0679   13.4227   21.1238 H   0  0  0  0  0  0  0  0  0  0  0  0
   12.7292   14.0450   21.3292 H   0  0  0  0  0  0  0  0  0  0  0  0
   12.7502   16.2779   20.0512 H   0  0  0  0  0  0  0  0  0  0  0  0
   11.3131   15.7048   19.2974 H   0  0  0  0  0  0  0  0  0  0  0  0
  1  3  1  0  0  0  0
  1  5  1  0  0  0  0
  2  4  1  0  0  0  0
  2  5  1  0  0  0  0
  3 11  1  0  0  0  0
  4 11  1  0  0  0  0
  5 12  1  0  0  0  0
  6  7  1  0  0  0  0
  6 12  1  0  0  0  0
  7 13  1  0  0  0  0
  8 13  1  0  0  0  0
  9 13  2  0  0  0  0
 10 13  2  0  0  0  0
  1 14  1  0  0  0  0
  1 15  1  0  0  0  0
  2 16  1  0  0  0  0
  2 17  1  0  0  0  0
  3 18  1  0  0  0  0
  3 19  1  0  0  0  0
  4 20  1  0  0  0  0
  4 21  1  0  0  0  0
  5 22  1  0  0  0  0
  6 23  1  0  0  0  0
  6 24  1  0  0  0  0
  7 25  1  0  0  0  0
  7 26  1  0  0  0  0
  8 27  1  0  0  0  0
  8 28  1  0  0  0  0
M  END
> <Mol Weight>
209,26

> <Formula>
C7H15NO4S

> <ID>
EN300-1120849

> <name>
Sulfonamides

> <LogP>
-1,47

> <ROCS_ShapeQuery>
x0446_0A_x1080_0A_x0929_0A_x0812_0A_x0719_0A_x1140_0A_x0528_0A_x0310_0A

> <ROCS_TanimotoCombo>
0.338 

> <ROCS_ShapeTanimoto>
0.178 

> <ROCS_ColorTanimoto>
0.160 

> <ROCS_RefTversky>
0.165 

> <ROCS_RefColorTversky>
0.167 

> <ROCS_RefTverskyCombo>
0.332 

> <ROCS_FitTversky>
1.755 

> <ROCS_FitColorTversky>
0.786 

> <ROCS_FitTverskyCombo>
2.541 

> <ROCS_ColorScore>
-5.944

> <ROCS_Overlap>
1949.962

> <ROCS_Rank>
284                 

$$$$
untitled-dbase-760_1
  -OEChem-02082415043D

 20 21  0     0  0  0  0  0  0999 V2000
    9.5502   10.3495   23.6720 C   0  0  0  0  0  0  0  0  0  0  0  0
    9.5847   11.7520   23.6810 C   0  0  0  0  0  0  0  0  0  0  0  0
    8.3049   12.1227   24.0129 C   0  0  0  0  0  0  0  0  0  0  0  0
    7.6374   13.3658   24.1992 C   0  0  0  0  0  0  0  0  0  0  0  0
    6.3334   13.3762   24.5325 C   0  0  0  0  0  0  0  0  0  0  0  0
    5.5875   12.1429   24.7077 C   0  0  0  0  0  0  0  0  0  0  0  0
    6.2133   10.9684   24.5330 C   0  0  0  0  0  0  0  0  0  0  0  0
    8.3499    9.8519   23.9727 N   0  0  0  0  0  0  0  0  0  0  0  0
    7.5690   10.9455   24.1861 N   0  0  0  0  0  0  0  0  0  0  0  0
   10.7973   12.9925   21.6573 N   0  0  0  0  0  0  0  0  0  0  0  0
   10.7400   14.0619   24.0022 O   0  0  0  0  0  0  0  0  0  0  0  0
   12.1738   12.0277   23.6095 O   0  0  0  0  0  0  0  0  0  0  0  0
   10.9188   12.7528   23.3543 S   0  0  0  0  0  0  0  0  0  0  0  0
   10.3544    9.6597   23.4581 H   0  0  0  0  0  0  0  0  0  0  0  0
    8.1812   14.2959   24.0714 H   0  0  0  0  0  0  0  0  0  0  0  0
    5.8051   14.3121   24.6802 H   0  0  0  0  0  0  0  0  0  0  0  0
    4.5396   12.1973   24.9769 H   0  0  0  0  0  0  0  0  0  0  0  0
    5.7134   10.0144   24.6494 H   0  0  0  0  0  0  0  0  0  0  0  0
   11.0276   12.2086   21.0346 H   0  0  0  0  0  0  0  0  0  0  0  0
   10.0491   13.5997   21.3011 H   0  0  0  0  0  0  0  0  0  0  0  0
  1  2  1  0  0  0  0
  1  8  2  0  0  0  0
  2  3  2  0  0  0  0
  2 13  1  0  0  0  0
  3  4  1  0  0  0  0
  3  9  1  0  0  0  0
  4  5  2  0  0  0  0
  5  6  1  0  0  0  0
  6  7  2  0  0  0  0
  7  9  1  0  0  0  0
  8  9  1  0  0  0  0
 10 13  1  0  0  0  0
 11 13  2  0  0  0  0
 12 13  2  0  0  0  0
  1 14  1  0  0  0  0
  4 15  1  0  0  0  0
  5 16  1  0  0  0  0
  6 17  1  0  0  0  0
  7 18  1  0  0  0  0
 10 19  1  0  0  0  0
 10 20  1  0  0  0  0
M  END
> <Mol Weight>
197,21

> <Formula>
C7H7N3O2S

> <ID>
EN300-371995

> <name>
Sulfonamides

> <LogP>
0,11

> <ROCS_ShapeQuery>
x0446_0A_x1080_0A_x0929_0A_x0812_0A_x0719_0A_x1140_0A_x0528_0A_x0310_0A

> <ROCS_TanimotoCombo>
0.338 

> <ROCS_ShapeTanimoto>
0.197 

> <ROCS_ColorTanimoto>
0.141 

> <ROCS_RefTversky>
0.181 

> <ROCS_RefColorTversky>
0.150 

> <ROCS_RefTverskyCombo>
0.330 

> <ROCS_FitTversky>
1.825 

> <ROCS_FitColorTversky>
0.704 

> <ROCS_FitTverskyCombo>
2.529 

> <ROCS_ColorScore>
-5.341

> <ROCS_Overlap>
2129.240

> <ROCS_Rank>
285                 

$$$$
untitled-dbase-1177_8
  -OEChem-02082415043D

 27 28  0     1  0  0  0  0  0999 V2000
    9.2781    9.8487   24.8570 C   0  0  0  0  0  0  0  0  0  0  0  0
   10.1995   10.2405   23.8937 C   0  0  0  0  0  0  0  0  0  0  0  0
    8.0440   10.4890   24.9333 C   0  0  0  0  0  0  0  0  0  0  0  0
    9.8957   11.2876   23.0220 C   0  0  0  0  0  0  0  0  0  0  0  0
    7.7212   11.5331   24.0502 C   0  0  0  0  0  0  0  0  0  0  0  0
    8.6722   11.9773   23.1077 C   0  0  0  0  0  0  0  0  0  0  0  0
    6.3567   12.1669   24.1562 C   0  0  0  0  0  0  0  0  0  0  0  0
    5.9426   12.8676   22.8669 C   0  0  0  0  0  0  0  0  0  0  0  0
    7.0343   13.8351   22.4413 C   0  0  0  0  0  0  0  0  0  0  0  0
    8.3470   13.1011   22.1430 C   0  0  1  0  0  0  0  0  0  0  0  0
   10.7816   13.4825   21.1496 N   0  0  0  0  0  0  0  0  0  0  0  0
    9.2076   15.4859   21.5044 O   0  0  0  0  0  0  0  0  0  0  0  0
   10.2091   14.3235   23.5123 O   0  0  0  0  0  0  0  0  0  0  0  0
    9.6744   14.2838   22.1658 S   0  0  0  0  0  0  0  0  0  0  0  0
    9.5159    9.0414   25.5422 H   0  0  0  0  0  0  0  0  0  0  0  0
   11.1561    9.7313   23.8155 H   0  0  0  0  0  0  0  0  0  0  0  0
    7.3253   10.1659   25.6827 H   0  0  0  0  0  0  0  0  0  0  0  0
   10.6285   11.5693   22.2662 H   0  0  0  0  0  0  0  0  0  0  0  0
    5.6366   11.3792   24.3846 H   0  0  0  0  0  0  0  0  0  0  0  0
    6.3431   12.8911   24.9712 H   0  0  0  0  0  0  0  0  0  0  0  0
    5.7717   12.1242   22.0862 H   0  0  0  0  0  0  0  0  0  0  0  0
    5.0014   13.3995   23.0181 H   0  0  0  0  0  0  0  0  0  0  0  0
    6.7069   14.3649   21.5380 H   0  0  0  0  0  0  0  0  0  0  0  0
    7.1870   14.5926   23.2176 H   0  0  0  0  0  0  0  0  0  0  0  0
    8.2996   12.7265   21.1121 H   0  0  0  0  0  0  0  0  0  0  0  0
   10.9413   13.8715   20.2122 H   0  0  0  0  0  0  0  0  0  0  0  0
   11.6232   13.0797   21.5797 H   0  0  0  0  0  0  0  0  0  0  0  0
  1  2  1  0  0  0  0
  1  3  2  0  0  0  0
  2  4  2  0  0  0  0
  3  5  1  0  0  0  0
  4  6  1  0  0  0  0
  5  6  2  0  0  0  0
  5  7  1  0  0  0  0
  6 10  1  0  0  0  0
  7  8  1  0  0  0  0
  8  9  1  0  0  0  0
  9 10  1  0  0  0  0
 10 14  1  0  0  0  0
 11 14  1  0  0  0  0
 12 14  2  0  0  0  0
 13 14  2  0  0  0  0
  1 15  1  0  0  0  0
  2 16  1  0  0  0  0
  3 17  1  0  0  0  0
  4 18  1  0  0  0  0
  7 19  1  0  0  0  0
  7 20  1  0  0  0  0
  8 21  1  0  0  0  0
  8 22  1  0  0  0  0
  9 23  1  0  0  0  0
  9 24  1  0  0  0  0
 10 25  1  0  0  0  0
 11 26  1  0  0  0  0
 11 27  1  0  0  0  0
M  END
> <Mol Weight>
211,28

> <Formula>
C10H13NO2S

> <ID>
EN300-233673

> <name>
Sulfonamides

> <LogP>
1,48

> <ROCS_ShapeQuery>
x0446_0A_x1080_0A_x0929_0A_x0812_0A_x0719_0A_x1140_0A_x0528_0A_x0310_0A

> <ROCS_TanimotoCombo>
0.337 

> <ROCS_ShapeTanimoto>
0.185 

> <ROCS_ColorTanimoto>
0.153 

> <ROCS_RefTversky>
0.172 

> <ROCS_RefColorTversky>
0.157 

> <ROCS_RefTverskyCombo>
0.329 

> <ROCS_FitTversky>
1.706 

> <ROCS_FitColorTversky>
0.845 

> <ROCS_FitTverskyCombo>
2.551 

> <ROCS_ColorScore>
-5.594

> <ROCS_Overlap>
2023.201

> <ROCS_Rank>
286                 

$$$$
untitled-dbase-2108_13
  -OEChem-02082415043D

 27 27  0     0  0  0  0  0  0999 V2000
    7.7446   11.5704   24.1620 C   0  0  0  0  0  0  0  0  0  0  0  0
    8.1550   10.3698   23.5826 C   0  0  0  0  0  0  0  0  0  0  0  0
    9.7520   11.5710   22.2247 C   0  0  0  0  0  0  0  0  0  0  0  0
    8.3378   12.7713   23.7727 C   0  0  0  0  0  0  0  0  0  0  0  0
    9.1587   10.3700   22.6140 C   0  0  0  0  0  0  0  0  0  0  0  0
    9.3415   12.7716   22.8040 C   0  0  0  0  0  0  0  0  0  0  0  0
    7.8826   14.0048   24.4001 C   0  0  0  0  0  0  0  0  0  0  0  0
   10.5894    9.2702   21.0650 C   0  0  0  0  0  0  0  0  0  0  0  0
    8.5778   15.8673   25.7155 C   0  0  0  0  0  0  0  0  0  0  0  0
   11.2145   13.6632   21.1303 N   0  0  0  0  0  0  0  0  0  0  0  0
    6.7209   14.4261   24.3491 O   0  0  0  0  0  0  0  0  0  0  0  0
    9.1124   15.0748   21.6140 O   0  0  0  0  0  0  0  0  0  0  0  0
   10.8551   14.8021   23.4129 O   0  0  0  0  0  0  0  0  0  0  0  0
    9.5585    9.1983   22.0488 O   0  0  0  0  0  0  0  0  0  0  0  0
    8.9016   14.6391   25.0548 O   0  0  0  0  0  0  0  0  0  0  0  0
   10.1096   14.2582   22.2884 S   0  0  0  0  0  0  0  0  0  0  0  0
    6.9615   11.5569   24.9159 H   0  0  0  0  0  0  0  0  0  0  0  0
    7.6884    9.4377   23.8895 H   0  0  0  0  0  0  0  0  0  0  0  0
   10.5337   11.5644   21.4689 H   0  0  0  0  0  0  0  0  0  0  0  0
   10.8126    8.2662   20.6959 H   0  0  0  0  0  0  0  0  0  0  0  0
   11.4848    9.7153   21.5060 H   0  0  0  0  0  0  0  0  0  0  0  0
   10.2461    9.8929   20.2354 H   0  0  0  0  0  0  0  0  0  0  0  0
    9.4725   16.2700   26.1966 H   0  0  0  0  0  0  0  0  0  0  0  0
    7.7999   15.6867   26.4616 H   0  0  0  0  0  0  0  0  0  0  0  0
    8.2113   16.5829   24.9757 H   0  0  0  0  0  0  0  0  0  0  0  0
   11.0243   13.8574   20.1396 H   0  0  0  0  0  0  0  0  0  0  0  0
   12.2134   13.6700   21.3702 H   0  0  0  0  0  0  0  0  0  0  0  0
  1  2  2  0  0  0  0
  1  4  1  0  0  0  0
  2  5  1  0  0  0  0
  3  5  2  0  0  0  0
  3  6  1  0  0  0  0
  4  6  2  0  0  0  0
  4  7  1  0  0  0  0
  5 14  1  0  0  0  0
  6 16  1  0  0  0  0
  7 11  2  0  0  0  0
  7 15  1  0  0  0  0
  8 14  1  0  0  0  0
  9 15  1  0  0  0  0
 10 16  1  0  0  0  0
 12 16  2  0  0  0  0
 13 16  2  0  0  0  0
  1 17  1  0  0  0  0
  2 18  1  0  0  0  0
  3 19  1  0  0  0  0
  8 20  1  0  0  0  0
  8 21  1  0  0  0  0
  8 22  1  0  0  0  0
  9 23  1  0  0  0  0
  9 24  1  0  0  0  0
  9 25  1  0  0  0  0
 10 26  1  0  0  0  0
 10 27  1  0  0  0  0
M  END
> <Mol Weight>
245,25

> <Formula>
C9H11NO5S

> <ID>
EN300-1618206

> <name>
Sulfonamides

> <LogP>
0,43

> <ROCS_ShapeQuery>
x0446_0A_x1080_0A_x0929_0A_x0812_0A_x0719_0A_x1140_0A_x0528_0A_x0310_0A

> <ROCS_TanimotoCombo>
0.337 

> <ROCS_ShapeTanimoto>
0.198 

> <ROCS_ColorTanimoto>
0.140 

> <ROCS_RefTversky>
0.183 

> <ROCS_RefColorTversky>
0.149 

> <ROCS_RefTverskyCombo>
0.332 

> <ROCS_FitTversky>
1.696 

> <ROCS_FitColorTversky>
0.700 

> <ROCS_FitTverskyCombo>
2.396 

> <ROCS_ColorScore>
-5.296

> <ROCS_Overlap>
2157.733

> <ROCS_Rank>
287                 

$$$$
untitled-dbase-1431_5
  -OEChem-02082415043D

 24 24  0     0  0  0  0  0  0999 V2000
    7.1263   12.7158   22.7121 C   0  0  0  0  0  0  0  0  0  0  0  0
    7.2298   11.3884   23.1129 C   0  0  0  0  0  0  0  0  0  0  0  0
    8.1801   13.5916   22.9480 C   0  0  0  0  0  0  0  0  0  0  0  0
    8.3989   10.9897   23.7406 C   0  0  0  0  0  0  0  0  0  0  0  0
    9.3066   13.0944   23.5833 C   0  0  0  0  0  0  0  0  0  0  0  0
    9.7440    9.3291   24.7840 C   0  0  0  0  0  0  0  0  0  0  0  0
   11.3680   14.0066   22.8255 C   0  0  0  0  0  0  0  0  0  0  0  0
    9.4437   11.8114   23.9870 N   0  0  0  0  0  0  0  0  0  0  0  0
    6.4998   15.2774   21.7483 N   0  0  0  0  0  0  0  0  0  0  0  0
    8.0481   16.0972   23.6395 O   0  0  0  0  0  0  0  0  0  0  0  0
    9.0428   15.5024   21.4024 O   0  0  0  0  0  0  0  0  0  0  0  0
    8.5243    9.6865   24.1448 O   0  0  0  0  0  0  0  0  0  0  0  0
   10.3694   13.9221   23.8351 O   0  0  0  0  0  0  0  0  0  0  0  0
    8.0587   15.2583   22.4485 S   0  0  0  0  0  0  0  0  0  0  0  0
    6.2208   13.0561   22.2173 H   0  0  0  0  0  0  0  0  0  0  0  0
    6.4164   10.6933   22.9360 H   0  0  0  0  0  0  0  0  0  0  0  0
    9.7177    8.2708   25.0550 H   0  0  0  0  0  0  0  0  0  0  0  0
    9.8809    9.9420   25.6784 H   0  0  0  0  0  0  0  0  0  0  0  0
   10.5721    9.5055   24.0935 H   0  0  0  0  0  0  0  0  0  0  0  0
   12.1544   14.6941   23.1465 H   0  0  0  0  0  0  0  0  0  0  0  0
   10.9175   14.3606   21.8948 H   0  0  0  0  0  0  0  0  0  0  0  0
   11.7972   13.0146   22.6660 H   0  0  0  0  0  0  0  0  0  0  0  0
    5.7500   15.7648   22.2539 H   0  0  0  0  0  0  0  0  0  0  0  0
    6.4310   15.3567   20.7264 H   0  0  0  0  0  0  0  0  0  0  0  0
  1  2  2  0  0  0  0
  1  3  1  0  0  0  0
  2  4  1  0  0  0  0
  3  5  2  0  0  0  0
  3 14  1  0  0  0  0
  4  8  2  0  0  0  0
  4 12  1  0  0  0  0
  5  8  1  0  0  0  0
  5 13  1  0  0  0  0
  6 12  1  0  0  0  0
  7 13  1  0  0  0  0
  9 14  1  0  0  0  0
 10 14  2  0  0  0  0
 11 14  2  0  0  0  0
  1 15  1  0  0  0  0
  2 16  1  0  0  0  0
  6 17  1  0  0  0  0
  6 18  1  0  0  0  0
  6 19  1  0  0  0  0
  7 20  1  0  0  0  0
  7 21  1  0  0  0  0
  7 22  1  0  0  0  0
  9 23  1  0  0  0  0
  9 24  1  0  0  0  0
M  END
> <Mol Weight>
218,23

> <Formula>
C7H10N2O4S

> <ID>
EN300-842807

> <name>
Sulfonamides

> <LogP>
0,24

> <ROCS_ShapeQuery>
x0446_0A_x1080_0A_x0929_0A_x0812_0A_x0719_0A_x1140_0A_x0528_0A_x0310_0A

> <ROCS_TanimotoCombo>
0.337 

> <ROCS_ShapeTanimoto>
0.173 

> <ROCS_ColorTanimoto>
0.165 

> <ROCS_RefTversky>
0.162 

> <ROCS_RefColorTversky>
0.175 

> <ROCS_RefTverskyCombo>
0.337 

> <ROCS_FitTversky>
1.611 

> <ROCS_FitColorTversky>
0.732 

> <ROCS_FitTverskyCombo>
2.343 

> <ROCS_ColorScore>
-6.248

> <ROCS_Overlap>
1913.494

> <ROCS_Rank>
288                 

$$$$
untitled-dbase-1207_0
  -OEChem-02082415043D

 21 22  0     0  0  0  0  0  0999 V2000
    8.7619   12.9633   24.1851 C   0  0  0  0  0  0  0  0  0  0  0  0
    9.4583   10.7664   23.5237 C   0  0  0  0  0  0  0  0  0  0  0  0
    7.5586   12.3735   24.5893 C   0  0  0  0  0  0  0  0  0  0  0  0
    9.7320   12.1246   23.6379 C   0  0  0  0  0  0  0  0  0  0  0  0
    6.3406   12.7740   25.1664 C   0  0  0  0  0  0  0  0  0  0  0  0
    7.4120   11.0052   24.4200 C   0  0  0  0  0  0  0  0  0  0  0  0
    5.9295   14.1297   25.5675 C   0  0  0  0  0  0  0  0  0  0  0  0
    8.3122   10.1508   23.8997 N   0  0  0  0  0  0  0  0  0  0  0  0
    5.5026   11.7487   25.3439 N   0  0  0  0  0  0  0  0  0  0  0  0
   10.9142   13.1529   21.4816 N   0  0  0  0  0  0  0  0  0  0  0  0
   11.5183   14.0068   23.8378 O   0  0  0  0  0  0  0  0  0  0  0  0
   12.2526   11.7011   23.1362 O   0  0  0  0  0  0  0  0  0  0  0  0
    6.1814   10.6327   24.8719 O   0  0  0  0  0  0  0  0  0  0  0  0
   11.2625   12.7701   23.1106 S   0  0  0  0  0  0  0  0  0  0  0  0
    8.9324   14.0295   24.2946 H   0  0  0  0  0  0  0  0  0  0  0  0
   10.2000   10.0919   23.1023 H   0  0  0  0  0  0  0  0  0  0  0  0
    5.4255   14.6574   24.7395 H   0  0  0  0  0  0  0  0  0  0  0  0
    5.2341   14.1182   26.4259 H   0  0  0  0  0  0  0  0  0  0  0  0
    6.7877   14.7500   25.8831 H   0  0  0  0  0  0  0  0  0  0  0  0
   10.8328   14.1446   21.2258 H   0  0  0  0  0  0  0  0  0  0  0  0
   11.3332   12.5681   20.7483 H   0  0  0  0  0  0  0  0  0  0  0  0
  1  3  1  0  0  0  0
  1  4  2  0  0  0  0
  2  4  1  0  0  0  0
  2  8  2  0  0  0  0
  3  5  1  0  0  0  0
  3  6  2  0  0  0  0
  4 14  1  0  0  0  0
  5  7  1  0  0  0  0
  5  9  2  0  0  0  0
  6  8  1  0  0  0  0
  6 13  1  0  0  0  0
  9 13  1  0  0  0  0
 10 14  1  0  0  0  0
 11 14  2  0  0  0  0
 12 14  2  0  0  0  0
  1 15  1  0  0  0  0
  2 16  1  0  0  0  0
  7 17  1  0  0  0  0
  7 18  1  0  0  0  0
  7 19  1  0  0  0  0
 10 20  1  0  0  0  0
 10 21  1  0  0  0  0
M  END
> <Mol Weight>
213,21

> <Formula>
C7H7N3O3S

> <ID>
EN300-380909

> <name>
Sulfonamides

> <LogP>
-0,76

> <ROCS_ShapeQuery>
x0446_0A_x1080_0A_x0929_0A_x0812_0A_x0719_0A_x1140_0A_x0528_0A_x0310_0A

> <ROCS_TanimotoCombo>
0.337 

> <ROCS_ShapeTanimoto>
0.197 

> <ROCS_ColorTanimoto>
0.140 

> <ROCS_RefTversky>
0.181 

> <ROCS_RefColorTversky>
0.153 

> <ROCS_RefTverskyCombo>
0.334 

> <ROCS_FitTversky>
1.767 

> <ROCS_FitColorTversky>
0.638 

> <ROCS_FitTverskyCombo>
2.405 

> <ROCS_ColorScore>
-5.445

> <ROCS_Overlap>
2139.583

> <ROCS_Rank>
289                 

$$$$
untitled-dbase-1738_3
  -OEChem-02082415043D

 25 25  0     0  0  0  0  0  0999 V2000
    9.6682   11.4759   22.4869 C   0  0  0  0  0  0  0  0  0  0  0  0
    8.3863   12.7899   24.0577 C   0  0  0  0  0  0  0  0  0  0  0  0
    9.0779   10.3119   22.9790 C   0  0  0  0  0  0  0  0  0  0  0  0
    8.1418   10.3868   24.0103 C   0  0  0  0  0  0  0  0  0  0  0  0
    7.7960   11.6259   24.5497 C   0  0  0  0  0  0  0  0  0  0  0  0
    9.3225   12.7150   23.0263 C   0  0  0  0  0  0  0  0  0  0  0  0
    9.4669    8.9978   22.3839 C   0  0  0  0  0  0  0  0  0  0  0  0
    7.5130    9.1328   24.5328 C   0  0  0  0  0  0  0  0  0  0  0  0
   11.0875   13.5313   21.2034 N   0  0  0  0  0  0  0  0  0  0  0  0
    6.8426   11.7286   25.6005 N   0  3  0  0  0  0  0  0  0  0  0  0
    5.6319   11.8701   25.3079 O   0  5  0  0  0  0  0  0  0  0  0  0
    7.2418   11.6749   26.7876 O   0  0  0  0  0  0  0  0  0  0  0  0
    9.0278   14.9747   21.7692 O   0  0  0  0  0  0  0  0  0  0  0  0
   10.8820   14.7554   23.4609 O   0  0  0  0  0  0  0  0  0  0  0  0
   10.0606   14.1721   22.4093 S   0  0  0  0  0  0  0  0  0  0  0  0
   10.3987   11.4162   21.6837 H   0  0  0  0  0  0  0  0  0  0  0  0
    8.1188   13.7585   24.4749 H   0  0  0  0  0  0  0  0  0  0  0  0
   10.3205    8.5741   22.9252 H   0  0  0  0  0  0  0  0  0  0  0  0
    8.6361    8.2830   22.4256 H   0  0  0  0  0  0  0  0  0  0  0  0
    9.7415    9.1075   21.3276 H   0  0  0  0  0  0  0  0  0  0  0  0
    8.1100    8.7272   25.3562 H   0  0  0  0  0  0  0  0  0  0  0  0
    6.4968    9.3244   24.8953 H   0  0  0  0  0  0  0  0  0  0  0  0
    7.4365    8.3742   23.7457 H   0  0  0  0  0  0  0  0  0  0  0  0
   10.8344   13.6905   20.2205 H   0  0  0  0  0  0  0  0  0  0  0  0
   12.0998   13.5397   21.3780 H   0  0  0  0  0  0  0  0  0  0  0  0
  1  3  1  0  0  0  0
  1  6  2  0  0  0  0
  2  5  2  0  0  0  0
  2  6  1  0  0  0  0
  3  4  2  0  0  0  0
  3  7  1  0  0  0  0
  4  5  1  0  0  0  0
  4  8  1  0  0  0  0
  5 10  1  0  0  0  0
  6 15  1  0  0  0  0
  9 15  1  0  0  0  0
 10 11  1  0  0  0  0
 10 12  2  0  0  0  0
 13 15  2  0  0  0  0
 14 15  2  0  0  0  0
  1 16  1  0  0  0  0
  2 17  1  0  0  0  0
  7 18  1  0  0  0  0
  7 19  1  0  0  0  0
  7 20  1  0  0  0  0
  8 21  1  0  0  0  0
  8 22  1  0  0  0  0
  8 23  1  0  0  0  0
  9 24  1  0  0  0  0
  9 25  1  0  0  0  0
M  CHG  2  10   1  11  -1
M  END
> <Mol Weight>
230,24

> <Formula>
C8H10N2O4S

> <ID>
EN300-15260

> <name>
Sulfonamides

> <LogP>
1,55

> <ROCS_ShapeQuery>
x0446_0A_x1080_0A_x0929_0A_x0812_0A_x0719_0A_x1140_0A_x0528_0A_x0310_0A

> <ROCS_TanimotoCombo>
0.337 

> <ROCS_ShapeTanimoto>
0.200 

> <ROCS_ColorTanimoto>
0.137 

> <ROCS_RefTversky>
0.184 

> <ROCS_RefColorTversky>
0.147 

> <ROCS_RefTverskyCombo>
0.330 

> <ROCS_FitTversky>
1.768 

> <ROCS_FitColorTversky>
0.689 

> <ROCS_FitTverskyCombo>
2.457 

> <ROCS_ColorScore>
-5.223

> <ROCS_Overlap>
2168.999

> <ROCS_Rank>
290                 

$$$$
untitled-dbase-753_3
  -OEChem-02082415043D

 20 21  0     0  0  0  0  0  0999 V2000
    8.1031   10.6485   25.2426 C   0  0  0  0  0  0  0  0  0  0  0  0
    8.6283    9.7732   24.2891 C   0  0  0  0  0  0  0  0  0  0  0  0
    8.3237   12.0287   25.1539 C   0  0  0  0  0  0  0  0  0  0  0  0
    9.3910   10.2429   23.2147 C   0  0  0  0  0  0  0  0  0  0  0  0
    9.0879   12.5180   24.0811 C   0  0  0  0  0  0  0  0  0  0  0  0
    9.5979   11.6211   23.1467 C   0  0  0  0  0  0  0  0  0  0  0  0
   10.1588   13.7068   22.6671 C   0  0  0  0  0  0  0  0  0  0  0  0
    9.4465   13.8088   23.7667 N   0  0  0  0  0  0  0  0  0  0  0  0
   10.2783   12.4090   22.2540 N   0  0  0  0  0  0  0  0  0  0  0  0
   11.6369   14.2834   20.5252 N   0  0  0  0  0  0  0  0  0  0  0  0
    9.7902   15.8995   21.3146 O   0  0  0  0  0  0  0  0  0  0  0  0
   11.8864   15.6559   22.6910 O   0  0  0  0  0  0  0  0  0  0  0  0
   10.8672   15.0682   21.8331 S   0  0  0  0  0  0  0  0  0  0  0  0
    7.5144   10.2529   26.0665 H   0  0  0  0  0  0  0  0  0  0  0  0
    8.4416    8.7063   24.3834 H   0  0  0  0  0  0  0  0  0  0  0  0
    7.9104   12.7006   25.8993 H   0  0  0  0  0  0  0  0  0  0  0  0
    9.7998    9.5658   22.4731 H   0  0  0  0  0  0  0  0  0  0  0  0
   10.7787   12.0864   21.4364 H   0  0  0  0  0  0  0  0  0  0  0  0
   11.2319   14.3989   19.5882 H   0  0  0  0  0  0  0  0  0  0  0  0
   12.6629   14.2316   20.5305 H   0  0  0  0  0  0  0  0  0  0  0  0
  1  2  1  0  0  0  0
  1  3  2  0  0  0  0
  2  4  2  0  0  0  0
  3  5  1  0  0  0  0
  4  6  1  0  0  0  0
  5  6  2  0  0  0  0
  5  8  1  0  0  0  0
  6  9  1  0  0  0  0
  7  8  2  0  0  0  0
  7  9  1  0  0  0  0
  7 13  1  0  0  0  0
 10 13  1  0  0  0  0
 11 13  2  0  0  0  0
 12 13  2  0  0  0  0
  1 14  1  0  0  0  0
  2 15  1  0  0  0  0
  3 16  1  0  0  0  0
  4 17  1  0  0  0  0
  9 18  1  0  0  0  0
 10 19  1  0  0  0  0
 10 20  1  0  0  0  0
M  END
> <Mol Weight>
197,21

> <Formula>
C7H7N3O2S

> <ID>
EN300-61671

> <name>
Sulfonamides

> <LogP>
0,55

> <ROCS_ShapeQuery>
x0446_0A_x1080_0A_x0929_0A_x0812_0A_x0719_0A_x1140_0A_x0528_0A_x0310_0A

> <ROCS_TanimotoCombo>
0.337 

> <ROCS_ShapeTanimoto>
0.189 

> <ROCS_ColorTanimoto>
0.149 

> <ROCS_RefTversky>
0.174 

> <ROCS_RefColorTversky>
0.164 

> <ROCS_RefTverskyCombo>
0.338 

> <ROCS_FitTversky>
1.762 

> <ROCS_FitColorTversky>
0.617 

> <ROCS_FitTverskyCombo>
2.378 

> <ROCS_ColorScore>
-5.847

> <ROCS_Overlap>
2056.470

> <ROCS_Rank>
291                 

$$$$
untitled-dbase-903_352
  -OEChem-02082415043D

 24 24  0     0  0  0  0  0  0999 V2000
    9.6082   10.2183   23.5164 C   0  0  0  0  0  0  0  0  0  0  0  0
    8.4417    9.9301   24.2246 C   0  0  0  0  0  0  0  0  0  0  0  0
    9.9513   11.5433   23.2470 C   0  0  0  0  0  0  0  0  0  0  0  0
    7.9610   12.2918   24.3940 C   0  0  0  0  0  0  0  0  0  0  0  0
    7.6180   10.9668   24.6634 C   0  0  0  0  0  0  0  0  0  0  0  0
    9.1276   12.5800   23.6858 C   0  0  0  0  0  0  0  0  0  0  0  0
    6.3716   10.6579   25.4218 C   0  0  0  0  0  0  0  0  0  0  0  0
    9.4942   13.9967   23.3971 C   0  0  0  0  0  0  0  0  0  0  0  0
   10.5906   13.6006   21.0113 N   0  0  0  0  0  0  0  0  0  0  0  0
    8.0344   13.5124   21.2848 O   0  0  0  0  0  0  0  0  0  0  0  0
    9.2259   15.7337   21.4635 O   0  0  0  0  0  0  0  0  0  0  0  0
    5.5415   11.8123   25.4568 O   0  0  0  0  0  0  0  0  0  0  0  0
    9.1889   14.2983   21.6864 S   0  0  0  0  0  0  0  0  0  0  0  0
   10.2496    9.4110   23.1749 H   0  0  0  0  0  0  0  0  0  0  0  0
    8.1827    8.8947   24.4303 H   0  0  0  0  0  0  0  0  0  0  0  0
   10.8617   11.7585   22.6939 H   0  0  0  0  0  0  0  0  0  0  0  0
    7.3198   13.1005   24.7366 H   0  0  0  0  0  0  0  0  0  0  0  0
    5.8111    9.8367   24.9544 H   0  0  0  0  0  0  0  0  0  0  0  0
    6.5993   10.3555   26.4531 H   0  0  0  0  0  0  0  0  0  0  0  0
   10.5533   14.2002   23.5915 H   0  0  0  0  0  0  0  0  0  0  0  0
    8.8947   14.7078   23.9769 H   0  0  0  0  0  0  0  0  0  0  0  0
   11.4833   14.0893   21.1524 H   0  0  0  0  0  0  0  0  0  0  0  0
   10.6717   12.5766   21.0306 H   0  0  0  0  0  0  0  0  0  0  0  0
    5.3383   12.0379   24.5349 H   0  0  0  0  0  0  0  0  0  0  0  0
  1  2  1  0  0  0  0
  1  3  2  0  0  0  0
  2  5  2  0  0  0  0
  3  6  1  0  0  0  0
  4  5  1  0  0  0  0
  4  6  2  0  0  0  0
  5  7  1  0  0  0  0
  6  8  1  0  0  0  0
  7 12  1  0  0  0  0
  8 13  1  0  0  0  0
  9 13  1  0  0  0  0
 10 13  2  0  0  0  0
 11 13  2  0  0  0  0
  1 14  1  0  0  0  0
  2 15  1  0  0  0  0
  3 16  1  0  0  0  0
  4 17  1  0  0  0  0
  7 18  1  0  0  0  0
  7 19  1  0  0  0  0
  8 20  1  0  0  0  0
  8 21  1  0  0  0  0
  9 22  1  0  0  0  0
  9 23  1  0  0  0  0
 12 24  1  0  0  0  0
M  END
> <Mol Weight>
201,24

> <Formula>
C8H11NO3S

> <ID>
EN300-197540

> <name>
Sulfonamides

> <LogP>
-0,43

> <ROCS_ShapeQuery>
x0446_0A_x1080_0A_x0929_0A_x0812_0A_x0719_0A_x1140_0A_x0528_0A_x0310_0A

> <ROCS_TanimotoCombo>
0.337 

> <ROCS_ShapeTanimoto>
0.185 

> <ROCS_ColorTanimoto>
0.152 

> <ROCS_RefTversky>
0.171 

> <ROCS_RefColorTversky>
0.160 

> <ROCS_RefTverskyCombo>
0.331 

> <ROCS_FitTversky>
1.790 

> <ROCS_FitColorTversky>
0.753 

> <ROCS_FitTverskyCombo>
2.543 

> <ROCS_ColorScore>
-5.693

> <ROCS_Overlap>
2018.705

> <ROCS_Rank>
292                 

$$$$
untitled-dbase-779_2
  -OEChem-02082415043D

 19 20  0     0  0  0  0  0  0999 V2000
    8.2888   13.2227   24.8473 C   0  0  0  0  0  0  0  0  0  0  0  0
    8.9714   14.1542   24.0570 C   0  0  0  0  0  0  0  0  0  0  0  0
    9.8084   12.4053   22.5798 C   0  0  0  0  0  0  0  0  0  0  0  0
    9.1288   11.4616   23.3637 C   0  0  0  0  0  0  0  0  0  0  0  0
    8.3960   11.8878   24.4629 C   0  0  0  0  0  0  0  0  0  0  0  0
    9.7176   13.7552   22.9439 C   0  0  0  0  0  0  0  0  0  0  0  0
    9.0350   10.0992   23.2553 N   0  0  0  0  0  0  0  0  0  0  0  0
    8.2694    9.6589   24.2478 N   0  0  0  0  0  0  0  0  0  0  0  0
    7.8881   10.7263   24.9688 N   0  0  0  0  0  0  0  0  0  0  0  0
   11.2814   13.9770   20.7968 N   0  0  0  0  0  0  0  0  0  0  0  0
    9.5557   15.8093   21.3541 O   0  0  0  0  0  0  0  0  0  0  0  0
   11.5965   15.5540   22.8093 O   0  0  0  0  0  0  0  0  0  0  0  0
   10.5519   14.9591   21.9889 S   0  0  0  0  0  0  0  0  0  0  0  0
    7.7103   13.5279   25.7114 H   0  0  0  0  0  0  0  0  0  0  0  0
    8.9137   15.2069   24.3251 H   0  0  0  0  0  0  0  0  0  0  0  0
   10.3877   12.0936   21.7163 H   0  0  0  0  0  0  0  0  0  0  0  0
    7.2943   10.5878   25.7774 H   0  0  0  0  0  0  0  0  0  0  0  0
   10.9064   14.0209   19.8413 H   0  0  0  0  0  0  0  0  0  0  0  0
   12.2994   13.8460   20.8376 H   0  0  0  0  0  0  0  0  0  0  0  0
  1  2  2  0  0  0  0
  1  5  1  0  0  0  0
  2  6  1  0  0  0  0
  3  4  1  0  0  0  0
  3  6  2  0  0  0  0
  4  5  2  0  0  0  0
  4  7  1  0  0  0  0
  5  9  1  0  0  0  0
  6 13  1  0  0  0  0
  7  8  2  0  0  0  0
  8  9  1  0  0  0  0
 10 13  1  0  0  0  0
 11 13  2  0  0  0  0
 12 13  2  0  0  0  0
  1 14  1  0  0  0  0
  2 15  1  0  0  0  0
  3 16  1  0  0  0  0
  9 17  1  0  0  0  0
 10 18  1  0  0  0  0
 10 19  1  0  0  0  0
M  END
> <Mol Weight>
198,20

> <Formula>
C6H6N4O2S

> <ID>
EN300-211051

> <name>
Sulfonamides

> <LogP>
-0,09

> <ROCS_ShapeQuery>
x0446_0A_x1080_0A_x0929_0A_x0812_0A_x0719_0A_x1140_0A_x0528_0A_x0310_0A

> <ROCS_TanimotoCombo>
0.337 

> <ROCS_ShapeTanimoto>
0.193 

> <ROCS_ColorTanimoto>
0.144 

> <ROCS_RefTversky>
0.178 

> <ROCS_RefColorTversky>
0.161 

> <ROCS_RefTverskyCombo>
0.338 

> <ROCS_FitTversky>
1.793 

> <ROCS_FitColorTversky>
0.585 

> <ROCS_FitTverskyCombo>
2.378 

> <ROCS_ColorScore>
-5.741

> <ROCS_Overlap>
2094.866

> <ROCS_Rank>
293                 

$$$$
untitled-dbase-762_1
  -OEChem-02082415043D

 20 21  0     0  0  0  0  0  0999 V2000
    6.2651   13.3498   24.5921 C   0  0  0  0  0  0  0  0  0  0  0  0
    5.5719   12.1468   24.7480 C   0  0  0  0  0  0  0  0  0  0  0  0
    7.6210   13.3623   24.2374 C   0  0  0  0  0  0  0  0  0  0  0  0
    6.2048   10.9150   24.5560 C   0  0  0  0  0  0  0  0  0  0  0  0
    9.5816   10.3561   23.6593 C   0  0  0  0  0  0  0  0  0  0  0  0
    8.2775   12.1351   24.0391 C   0  0  0  0  0  0  0  0  0  0  0  0
    7.5526   10.9593   24.2040 C   0  0  0  0  0  0  0  0  0  0  0  0
    9.5922   11.7315   23.6861 C   0  0  0  0  0  0  0  0  0  0  0  0
   10.7917   12.9880   21.6644 N   0  0  0  0  0  0  0  0  0  0  0  0
   10.7524   14.0373   24.0187 O   0  0  0  0  0  0  0  0  0  0  0  0
   12.1810   12.0050   23.5984 O   0  0  0  0  0  0  0  0  0  0  0  0
    8.3491    9.8780   23.9722 O   0  0  0  0  0  0  0  0  0  0  0  0
   10.9279   12.7357   23.3576 S   0  0  0  0  0  0  0  0  0  0  0  0
    5.7454   14.2919   24.7478 H   0  0  0  0  0  0  0  0  0  0  0  0
    4.5203   12.1680   25.0233 H   0  0  0  0  0  0  0  0  0  0  0  0
    8.1453   14.3059   24.1200 H   0  0  0  0  0  0  0  0  0  0  0  0
    5.6737    9.9778   24.6748 H   0  0  0  0  0  0  0  0  0  0  0  0
   10.3305    9.6068   23.4470 H   0  0  0  0  0  0  0  0  0  0  0  0
   11.0151   12.2077   21.0344 H   0  0  0  0  0  0  0  0  0  0  0  0
   10.0402   13.5977   21.3198 H   0  0  0  0  0  0  0  0  0  0  0  0
  1  2  1  0  0  0  0
  1  3  2  0  0  0  0
  2  4  2  0  0  0  0
  3  6  1  0  0  0  0
  4  7  1  0  0  0  0
  5  8  2  0  0  0  0
  5 12  1  0  0  0  0
  6  7  2  0  0  0  0
  6  8  1  0  0  0  0
  7 12  1  0  0  0  0
  8 13  1  0  0  0  0
  9 13  1  0  0  0  0
 10 13  2  0  0  0  0
 11 13  2  0  0  0  0
  1 14  1  0  0  0  0
  2 15  1  0  0  0  0
  3 16  1  0  0  0  0
  4 17  1  0  0  0  0
  5 18  1  0  0  0  0
  9 19  1  0  0  0  0
  9 20  1  0  0  0  0
M  END
> <Mol Weight>
197,21

> <Formula>
C8H7NO3S

> <ID>
EN300-832832

> <name>
Sulfonamides

> <LogP>
0,74

> <ROCS_ShapeQuery>
x0446_0A_x1080_0A_x0929_0A_x0812_0A_x0719_0A_x1140_0A_x0528_0A_x0310_0A

> <ROCS_TanimotoCombo>
0.337 

> <ROCS_ShapeTanimoto>
0.196 

> <ROCS_ColorTanimoto>
0.141 

> <ROCS_RefTversky>
0.180 

> <ROCS_RefColorTversky>
0.150 

> <ROCS_RefTverskyCombo>
0.330 

> <ROCS_FitTversky>
1.822 

> <ROCS_FitColorTversky>
0.705 

> <ROCS_FitTverskyCombo>
2.527 

> <ROCS_ColorScore>
-5.346

> <ROCS_Overlap>
2121.230

> <ROCS_Rank>
294                 

$$$$
untitled-dbase-1228_6
  -OEChem-02082415043D

 25 26  0     1  0  0  0  0  0999 V2000
    9.6872   10.6905   22.3935 C   0  0  0  0  0  0  0  0  0  0  0  0
   10.1729   11.9147   21.9310 C   0  0  0  0  0  0  0  0  0  0  0  0
    8.9501   13.1025   23.6684 C   0  0  0  0  0  0  0  0  0  0  0  0
    8.4692   11.8835   24.1104 C   0  0  0  0  0  0  0  0  0  0  0  0
    8.8348   10.7049   23.4808 C   0  0  0  0  0  0  0  0  0  0  0  0
    9.8059   13.1137   22.5639 C   0  0  0  0  0  0  0  0  0  0  0  0
    7.6031   11.5795   25.2708 C   0  0  0  0  0  0  0  0  0  0  0  0
    7.3085   10.0954   24.9959 C   0  0  1  0  0  0  0  0  0  0  0  0
    5.9105    9.8672   24.4267 C   0  0  0  0  0  0  0  0  0  0  0  0
   11.3659   14.0992   20.6404 N   0  0  0  0  0  0  0  0  0  0  0  0
    9.2925   15.4049   21.4415 O   0  0  0  0  0  0  0  0  0  0  0  0
   11.2929   15.2148   22.9613 O   0  0  0  0  0  0  0  0  0  0  0  0
    8.2808    9.5854   24.0455 O   0  0  0  0  0  0  0  0  0  0  0  0
   10.4153   14.6337   21.9555 S   0  0  0  0  0  0  0  0  0  0  0  0
    9.9752    9.7621   21.9128 H   0  0  0  0  0  0  0  0  0  0  0  0
   10.8375   11.9308   21.0708 H   0  0  0  0  0  0  0  0  0  0  0  0
    8.6622   14.0233   24.1657 H   0  0  0  0  0  0  0  0  0  0  0  0
    8.1042   11.7171   26.2357 H   0  0  0  0  0  0  0  0  0  0  0  0
    6.6973   12.1978   25.2368 H   0  0  0  0  0  0  0  0  0  0  0  0
    7.4207    9.5083   25.9174 H   0  0  0  0  0  0  0  0  0  0  0  0
    5.7790   10.4431   23.5091 H   0  0  0  0  0  0  0  0  0  0  0  0
    5.1545   10.1804   25.1487 H   0  0  0  0  0  0  0  0  0  0  0  0
    5.7638    8.8096   24.2013 H   0  0  0  0  0  0  0  0  0  0  0  0
   11.0223   14.2856   19.6903 H   0  0  0  0  0  0  0  0  0  0  0  0
   12.3877   14.1546   20.7305 H   0  0  0  0  0  0  0  0  0  0  0  0
  1  2  2  0  0  0  0
  1  5  1  0  0  0  0
  2  6  1  0  0  0  0
  3  4  1  0  0  0  0
  3  6  2  0  0  0  0
  4  5  2  0  0  0  0
  4  7  1  0  0  0  0
  5 13  1  0  0  0  0
  6 14  1  0  0  0  0
  7  8  1  0  0  0  0
  8  9  1  0  0  0  0
  8 13  1  0  0  0  0
 10 14  1  0  0  0  0
 11 14  2  0  0  0  0
 12 14  2  0  0  0  0
  1 15  1  0  0  0  0
  2 16  1  0  0  0  0
  3 17  1  0  0  0  0
  7 18  1  0  0  0  0
  7 19  1  0  0  0  0
  8 20  1  0  0  0  0
  9 21  1  0  0  0  0
  9 22  1  0  0  0  0
  9 23  1  0  0  0  0
 10 24  1  0  0  0  0
 10 25  1  0  0  0  0
M  END
> <Mol Weight>
213,25

> <Formula>
C9H11NO3S

> <ID>
EN300-126148

> <name>
Sulfonamides

> <LogP>
0,88

> <ROCS_ShapeQuery>
x0446_0A_x1080_0A_x0929_0A_x0812_0A_x0719_0A_x1140_0A_x0528_0A_x0310_0A

> <ROCS_TanimotoCombo>
0.337 

> <ROCS_ShapeTanimoto>
0.193 

> <ROCS_ColorTanimoto>
0.144 

> <ROCS_RefTversky>
0.178 

> <ROCS_RefColorTversky>
0.153 

> <ROCS_RefTverskyCombo>
0.331 

> <ROCS_FitTversky>
1.753 

> <ROCS_FitColorTversky>
0.719 

> <ROCS_FitTverskyCombo>
2.473 

> <ROCS_ColorScore>
-5.452

> <ROCS_Overlap>
2097.629

> <ROCS_Rank>
295                 

$$$$
untitled-dbase-987_31
  -OEChem-02082415043D

 23 23  0     0  0  0  0  0  0999 V2000
    8.0306   10.4959   24.6235 C   0  0  0  0  0  0  0  0  0  0  0  0
    7.9421   11.8628   24.8870 C   0  0  0  0  0  0  0  0  0  0  0  0
    8.8608   10.0349   23.6017 C   0  0  0  0  0  0  0  0  0  0  0  0
    9.5137   12.3078   23.1067 C   0  0  0  0  0  0  0  0  0  0  0  0
    8.6836   12.7687   24.1286 C   0  0  0  0  0  0  0  0  0  0  0  0
    9.6023   10.9409   22.8433 C   0  0  0  0  0  0  0  0  0  0  0  0
    8.5881   14.2299   24.4113 C   0  0  0  0  0  0  0  0  0  0  0  0
    7.4872   14.9382   23.6171 C   0  0  0  0  0  0  0  0  0  0  0  0
    6.3311   15.6496   21.3349 N   0  0  0  0  0  0  0  0  0  0  0  0
    8.8934   15.4768   21.4817 O   0  0  0  0  0  0  0  0  0  0  0  0
    7.5024   13.3676   21.5288 O   0  0  0  0  0  0  0  0  0  0  0  0
   10.3991   10.4984   21.8618 F   0  0  0  0  0  0  0  0  0  0  0  0
    7.6874   14.7670   21.8714 S   0  0  0  0  0  0  0  0  0  0  0  0
    7.4536    9.7904   25.2142 H   0  0  0  0  0  0  0  0  0  0  0  0
    7.2924   12.2128   25.6850 H   0  0  0  0  0  0  0  0  0  0  0  0
    8.9291    8.9709   23.3964 H   0  0  0  0  0  0  0  0  0  0  0  0
   10.0957   13.0057   22.5110 H   0  0  0  0  0  0  0  0  0  0  0  0
    9.5493   14.7144   24.1666 H   0  0  0  0  0  0  0  0  0  0  0  0
    8.4343   14.4181   25.4881 H   0  0  0  0  0  0  0  0  0  0  0  0
    6.5086   14.5065   23.8501 H   0  0  0  0  0  0  0  0  0  0  0  0
    7.4509   16.0103   23.8331 H   0  0  0  0  0  0  0  0  0  0  0  0
    6.4985   16.5601   20.8894 H   0  0  0  0  0  0  0  0  0  0  0  0
    5.5512   15.1236   20.9217 H   0  0  0  0  0  0  0  0  0  0  0  0
  1  2  2  0  0  0  0
  1  3  1  0  0  0  0
  2  5  1  0  0  0  0
  3  6  2  0  0  0  0
  4  5  2  0  0  0  0
  4  6  1  0  0  0  0
  5  7  1  0  0  0  0
  6 12  1  0  0  0  0
  7  8  1  0  0  0  0
  8 13  1  0  0  0  0
  9 13  1  0  0  0  0
 10 13  2  0  0  0  0
 11 13  2  0  0  0  0
  1 14  1  0  0  0  0
  2 15  1  0  0  0  0
  3 16  1  0  0  0  0
  4 17  1  0  0  0  0
  7 18  1  0  0  0  0
  7 19  1  0  0  0  0
  8 20  1  0  0  0  0
  8 21  1  0  0  0  0
  9 22  1  0  0  0  0
  9 23  1  0  0  0  0
M  END
> <Mol Weight>
203,23

> <Formula>
C8H10FNO2S

> <ID>
EN300-283850

> <name>
Sulfonamides

> <LogP>
0,77

> <ROCS_ShapeQuery>
x0446_0A_x1080_0A_x0929_0A_x0812_0A_x0719_0A_x1140_0A_x0528_0A_x0310_0A

> <ROCS_TanimotoCombo>
0.337 

> <ROCS_ShapeTanimoto>
0.186 

> <ROCS_ColorTanimoto>
0.151 

> <ROCS_RefTversky>
0.171 

> <ROCS_RefColorTversky>
0.152 

> <ROCS_RefTverskyCombo>
0.324 

> <ROCS_FitTversky>
1.795 

> <ROCS_FitColorTversky>
0.956 

> <ROCS_FitTverskyCombo>
2.751 

> <ROCS_ColorScore>
-5.413

> <ROCS_Overlap>
2021.468

> <ROCS_Rank>
296                 

$$$$
untitled-dbase-360_4
  -OEChem-02082415043D

 19 19  0     0  0  0  0  0  0999 V2000
    8.3171   10.6666   23.9392 C   0  0  0  0  0  0  0  0  0  0  0  0
    7.6625   11.8134   24.3126 C   0  0  0  0  0  0  0  0  0  0  0  0
    8.4824   14.2030   24.4787 C   0  0  0  0  0  0  0  0  0  0  0  0
    7.4125   14.8853   23.6382 C   0  0  0  0  0  0  0  0  0  0  0  0
    9.6145   10.9603   23.6229 N   0  0  0  0  0  0  0  0  0  0  0  0
    9.7898   12.2665   23.7903 N   0  0  0  0  0  0  0  0  0  0  0  0
    8.6183   12.7762   24.2040 N   0  0  0  0  0  0  0  0  0  0  0  0
    6.3499   15.5758   21.3047 N   0  0  0  0  0  0  0  0  0  0  0  0
    8.9055   15.4550   21.5709 O   0  0  0  0  0  0  0  0  0  0  0  0
    7.5572   13.3180   21.5525 O   0  0  0  0  0  0  0  0  0  0  0  0
    7.6974   14.7204   21.9042 S   0  0  0  0  0  0  0  0  0  0  0  0
    7.9285    9.6612   23.8816 H   0  0  0  0  0  0  0  0  0  0  0  0
    6.6501   12.0168   24.6308 H   0  0  0  0  0  0  0  0  0  0  0  0
    9.4615   14.6549   24.2788 H   0  0  0  0  0  0  0  0  0  0  0  0
    8.2826   14.3280   25.5492 H   0  0  0  0  0  0  0  0  0  0  0  0
    6.4377   14.4262   23.8297 H   0  0  0  0  0  0  0  0  0  0  0  0
    7.3392   15.9562   23.8495 H   0  0  0  0  0  0  0  0  0  0  0  0
    5.4242   15.1416   21.4056 H   0  0  0  0  0  0  0  0  0  0  0  0
    6.3427   16.5970   21.4180 H   0  0  0  0  0  0  0  0  0  0  0  0
  1  2  2  0  0  0  0
  1  5  1  0  0  0  0
  2  7  1  0  0  0  0
  3  4  1  0  0  0  0
  3  7  1  0  0  0  0
  4 11  1  0  0  0  0
  5  6  2  0  0  0  0
  6  7  1  0  0  0  0
  8 11  1  0  0  0  0
  9 11  2  0  0  0  0
 10 11  2  0  0  0  0
  1 12  1  0  0  0  0
  2 13  1  0  0  0  0
  3 14  1  0  0  0  0
  3 15  1  0  0  0  0
  4 16  1  0  0  0  0
  4 17  1  0  0  0  0
  8 18  1  0  0  0  0
  8 19  1  0  0  0  0
M  END
> <Mol Weight>
176,19

> <Formula>
C4H8N4O2S

> <ID>
EN300-202469

> <name>
Sulfonamides

> <LogP>
-1,53

> <ROCS_ShapeQuery>
x0446_0A_x1080_0A_x0929_0A_x0812_0A_x0719_0A_x1140_0A_x0528_0A_x0310_0A

> <ROCS_TanimotoCombo>
0.337 

> <ROCS_ShapeTanimoto>
0.161 

> <ROCS_ColorTanimoto>
0.175 

> <ROCS_RefTversky>
0.151 

> <ROCS_RefColorTversky>
0.182 

> <ROCS_RefTverskyCombo>
0.334 

> <ROCS_FitTversky>
1.693 

> <ROCS_FitColorTversky>
0.823 

> <ROCS_FitTverskyCombo>
2.516 

> <ROCS_ColorScore>
-6.494

> <ROCS_Overlap>
1785.218

> <ROCS_Rank>
297                 

$$$$
untitled-dbase-2075_1104
  -OEChem-02082415043D

 29 29  0     1  0  0  0  0  0999 V2000
    8.5351    9.9635   24.3737 C   0  0  0  0  0  0  0  0  0  0  0  0
    9.3835    9.9615   23.2666 C   0  0  0  0  0  0  0  0  0  0  0  0
    8.3006   11.1488   25.0706 C   0  0  0  0  0  0  0  0  0  0  0  0
    9.9975   11.1448   22.8563 C   0  0  0  0  0  0  0  0  0  0  0  0
    8.9145   12.3322   24.6603 C   0  0  0  0  0  0  0  0  0  0  0  0
    9.7630   12.3302   23.5532 C   0  0  0  0  0  0  0  0  0  0  0  0
    9.1617   15.4728   22.3927 C   0  0  0  0  0  0  0  0  0  0  0  0
    7.8581   16.8896   23.9837 C   0  0  0  0  0  0  0  0  0  0  0  0
   10.4234   13.6035   23.1125 C   0  0  0  0  0  0  0  0  0  0  0  0
    7.8048   16.0640   22.7090 C   0  0  2  0  0  0  0  0  0  0  0  0
    5.1743   15.7127   22.6190 N   0  0  0  0  0  0  0  0  0  0  0  0
    9.7855   15.6542   21.3555 O   0  0  0  0  0  0  0  0  0  0  0  0
    6.7494   13.8832   21.7306 O   0  0  0  0  0  0  0  0  0  0  0  0
    6.6086   14.2988   24.2192 O   0  0  0  0  0  0  0  0  0  0  0  0
    9.5774   14.7084   23.4468 O   0  0  0  0  0  0  0  0  0  0  0  0
    6.5851   14.7867   22.8535 S   0  0  0  0  0  0  0  0  0  0  0  0
    8.0560    9.0422   24.6923 H   0  0  0  0  0  0  0  0  0  0  0  0
    9.5654    9.0388   22.7232 H   0  0  0  0  0  0  0  0  0  0  0  0
    7.6392   11.1510   25.9319 H   0  0  0  0  0  0  0  0  0  0  0  0
   10.6572   11.1338   21.9927 H   0  0  0  0  0  0  0  0  0  0  0  0
    8.7260   13.2510   25.2094 H   0  0  0  0  0  0  0  0  0  0  0  0
    8.1816   16.2789   24.8332 H   0  0  0  0  0  0  0  0  0  0  0  0
    8.5617   17.7240   23.8859 H   0  0  0  0  0  0  0  0  0  0  0  0
    6.8766   17.3109   24.2243 H   0  0  0  0  0  0  0  0  0  0  0  0
   11.3924   13.7335   23.6062 H   0  0  0  0  0  0  0  0  0  0  0  0
   10.5951   13.5970   22.0307 H   0  0  0  0  0  0  0  0  0  0  0  0
    7.4812   16.6751   21.8593 H   0  0  0  0  0  0  0  0  0  0  0  0
    4.8923   16.3552   23.3695 H   0  0  0  0  0  0  0  0  0  0  0  0
    4.9882   16.0720   21.6746 H   0  0  0  0  0  0  0  0  0  0  0  0
  1  2  1  0  0  0  0
  1  3  2  0  0  0  0
  2  4  2  0  0  0  0
  3  5  1  0  0  0  0
  4  6  1  0  0  0  0
  5  6  2  0  0  0  0
  6  9  1  0  0  0  0
  7 10  1  0  0  0  0
  7 12  2  0  0  0  0
  7 15  1  0  0  0  0
  8 10  1  0  0  0  0
  9 15  1  0  0  0  0
 10 16  1  0  0  0  0
 11 16  1  0  0  0  0
 13 16  2  0  0  0  0
 14 16  2  0  0  0  0
  1 17  1  0  0  0  0
  2 18  1  0  0  0  0
  3 19  1  0  0  0  0
  4 20  1  0  0  0  0
  5 21  1  0  0  0  0
  8 22  1  0  0  0  0
  8 23  1  0  0  0  0
  8 24  1  0  0  0  0
  9 25  1  0  0  0  0
  9 26  1  0  0  0  0
 10 27  1  0  0  0  0
 11 28  1  0  0  0  0
 11 29  1  0  0  0  0
M  END
> <Mol Weight>
243,28

> <Formula>
C10H13NO4S

> <ID>
EN300-131824

> <name>
Sulfonamides

> <LogP>
0,84

> <ROCS_ShapeQuery>
x0446_0A_x1080_0A_x0929_0A_x0812_0A_x0719_0A_x1140_0A_x0528_0A_x0310_0A

> <ROCS_TanimotoCombo>
0.337 

> <ROCS_ShapeTanimoto>
0.191 

> <ROCS_ColorTanimoto>
0.146 

> <ROCS_RefTversky>
0.178 

> <ROCS_RefColorTversky>
0.151 

> <ROCS_RefTverskyCombo>
0.328 

> <ROCS_FitTversky>
1.669 

> <ROCS_FitColorTversky>
0.811 

> <ROCS_FitTverskyCombo>
2.480 

> <ROCS_ColorScore>
-5.361

> <ROCS_Overlap>
2094.420

> <ROCS_Rank>
298                 

$$$$
untitled-dbase-2435_19
  -OEChem-02082415043D

 23 23  0     0  0  0  0  0  0999 V2000
    7.6498   10.6023   24.1150 C   0  0  0  0  0  0  0  0  0  0  0  0
    8.8148   10.0285   23.6058 C   0  0  0  0  0  0  0  0  0  0  0  0
    7.6012   11.9728   24.3699 C   0  0  0  0  0  0  0  0  0  0  0  0
    9.9312   10.8252   23.3517 C   0  0  0  0  0  0  0  0  0  0  0  0
    8.7176   12.7695   24.1157 C   0  0  0  0  0  0  0  0  0  0  0  0
    9.8826   12.1957   23.6066 C   0  0  0  0  0  0  0  0  0  0  0  0
    8.6186   14.2327   24.4044 C   0  0  0  0  0  0  0  0  0  0  0  0
    7.5083   14.9358   23.6213 C   0  0  0  0  0  0  0  0  0  0  0  0
    6.3276   15.6447   21.3509 N   0  0  0  0  0  0  0  0  0  0  0  0
    8.8919   15.4844   21.4737 O   0  0  0  0  0  0  0  0  0  0  0  0
    7.5119   13.3683   21.5306 O   0  0  0  0  0  0  0  0  0  0  0  0
    7.6932   14.7681   21.8736 S   0  0  0  0  0  0  0  0  0  0  0  0
   11.4268   13.2367   23.2480 Br  0  0  0  0  0  0  0  0  0  0  0  0
    6.7809    9.9819   24.3127 H   0  0  0  0  0  0  0  0  0  0  0  0
    8.8522    8.9615   23.4074 H   0  0  0  0  0  0  0  0  0  0  0  0
    6.6883   12.4091   24.7665 H   0  0  0  0  0  0  0  0  0  0  0  0
   10.8302   10.3599   22.9550 H   0  0  0  0  0  0  0  0  0  0  0  0
    9.5759   14.7185   24.1522 H   0  0  0  0  0  0  0  0  0  0  0  0
    8.4736   14.4138   25.4824 H   0  0  0  0  0  0  0  0  0  0  0  0
    6.5349   14.4970   23.8630 H   0  0  0  0  0  0  0  0  0  0  0  0
    7.4665   16.0073   23.8389 H   0  0  0  0  0  0  0  0  0  0  0  0
    5.4024   15.2246   21.5034 H   0  0  0  0  0  0  0  0  0  0  0  0
    6.3425   16.6657   21.4645 H   0  0  0  0  0  0  0  0  0  0  0  0
  1  2  1  0  0  0  0
  1  3  2  0  0  0  0
  2  4  2  0  0  0  0
  3  5  1  0  0  0  0
  4  6  1  0  0  0  0
  5  6  2  0  0  0  0
  5  7  1  0  0  0  0
  6 13  1  0  0  0  0
  7  8  1  0  0  0  0
  8 12  1  0  0  0  0
  9 12  1  0  0  0  0
 10 12  2  0  0  0  0
 11 12  2  0  0  0  0
  1 14  1  0  0  0  0
  2 15  1  0  0  0  0
  3 16  1  0  0  0  0
  4 17  1  0  0  0  0
  7 18  1  0  0  0  0
  7 19  1  0  0  0  0
  8 20  1  0  0  0  0
  8 21  1  0  0  0  0
  9 22  1  0  0  0  0
  9 23  1  0  0  0  0
M  END
> <Mol Weight>
264,14

> <Formula>
C8H10BrNO2S

> <ID>
EN300-215384

> <name>
Sulfonamides

> <LogP>
1,40

> <ROCS_ShapeQuery>
x0446_0A_x1080_0A_x0929_0A_x0812_0A_x0719_0A_x1140_0A_x0528_0A_x0310_0A

> <ROCS_TanimotoCombo>
0.337 

> <ROCS_ShapeTanimoto>
0.190 

> <ROCS_ColorTanimoto>
0.147 

> <ROCS_RefTversky>
0.174 

> <ROCS_RefColorTversky>
0.152 

> <ROCS_RefTverskyCombo>
0.326 

> <ROCS_FitTversky>
1.848 

> <ROCS_FitColorTversky>
0.818 

> <ROCS_FitTverskyCombo>
2.667 

> <ROCS_ColorScore>
-5.412

> <ROCS_Overlap>
2055.842

> <ROCS_Rank>
299                 

$$$$
untitled-dbase-2128_240
  -OEChem-02082415043D

 26 26  0     0  0  0  0  0  0999 V2000
    8.1505   10.4033   23.9513 C   0  0  0  0  0  0  0  0  0  0  0  0
    8.3883   12.8068   24.0071 C   0  0  0  0  0  0  0  0  0  0  0  0
    9.6890   11.5002   22.4457 C   0  0  0  0  0  0  0  0  0  0  0  0
    7.7963   11.6400   24.4904 C   0  0  0  0  0  0  0  0  0  0  0  0
    9.0970   10.3333   22.9290 C   0  0  0  0  0  0  0  0  0  0  0  0
    9.3347   12.7369   22.9847 C   0  0  0  0  0  0  0  0  0  0  0  0
    6.8101   11.7132   25.5566 C   0  0  0  0  0  0  0  0  0  0  0  0
    7.2807   13.7180   27.9578 C   0  0  0  0  0  0  0  0  0  0  0  0
    6.7411   12.3065   27.8665 C   0  0  0  0  0  0  0  0  0  0  0  0
   11.1184   13.5615   21.1838 N   0  0  0  0  0  0  0  0  0  0  0  0
    5.5915   11.8380   25.3761 O   0  0  0  0  0  0  0  0  0  0  0  0
    9.0516   15.0011   21.7330 O   0  0  0  0  0  0  0  0  0  0  0  0
   10.8878   14.7770   23.4435 O   0  0  0  0  0  0  0  0  0  0  0  0
    7.3954   11.6259   26.7903 O   0  0  0  0  0  0  0  0  0  0  0  0
    9.4373    9.1453   22.4122 F   0  0  0  0  0  0  0  0  0  0  0  0
   10.0781   14.1968   22.3812 S   0  0  0  0  0  0  0  0  0  0  0  0
    7.6972    9.4870   24.3206 H   0  0  0  0  0  0  0  0  0  0  0  0
    8.1119   13.7714   24.4266 H   0  0  0  0  0  0  0  0  0  0  0  0
   10.4242   11.4345   21.6481 H   0  0  0  0  0  0  0  0  0  0  0  0
    8.3570   13.7126   28.1513 H   0  0  0  0  0  0  0  0  0  0  0  0
    7.0914   14.2645   27.0280 H   0  0  0  0  0  0  0  0  0  0  0  0
    6.7804   14.2712   28.7596 H   0  0  0  0  0  0  0  0  0  0  0  0
    5.6644   12.3191   27.6729 H   0  0  0  0  0  0  0  0  0  0  0  0
    6.9319   11.7617   28.7959 H   0  0  0  0  0  0  0  0  0  0  0  0
   10.8757   13.7242   20.1989 H   0  0  0  0  0  0  0  0  0  0  0  0
   12.1288   13.5701   21.3692 H   0  0  0  0  0  0  0  0  0  0  0  0
  1  4  1  0  0  0  0
  1  5  2  0  0  0  0
  2  4  2  0  0  0  0
  2  6  1  0  0  0  0
  3  5  1  0  0  0  0
  3  6  2  0  0  0  0
  4  7  1  0  0  0  0
  5 15  1  0  0  0  0
  6 16  1  0  0  0  0
  7 11  2  0  0  0  0
  7 14  1  0  0  0  0
  8  9  1  0  0  0  0
  9 14  1  0  0  0  0
 10 16  1  0  0  0  0
 12 16  2  0  0  0  0
 13 16  2  0  0  0  0
  1 17  1  0  0  0  0
  2 18  1  0  0  0  0
  3 19  1  0  0  0  0
  8 20  1  0  0  0  0
  8 21  1  0  0  0  0
  8 22  1  0  0  0  0
  9 23  1  0  0  0  0
  9 24  1  0  0  0  0
 10 25  1  0  0  0  0
 10 26  1  0  0  0  0
M  END
> <Mol Weight>
247,24

> <Formula>
C9H10FNO4S

> <ID>
EN300-1617180

> <name>
Sulfonamides

> <LogP>
1,08

> <ROCS_ShapeQuery>
x0446_0A_x1080_0A_x0929_0A_x0812_0A_x0719_0A_x1140_0A_x0528_0A_x0310_0A

> <ROCS_TanimotoCombo>
0.337 

> <ROCS_ShapeTanimoto>
0.194 

> <ROCS_ColorTanimoto>
0.143 

> <ROCS_RefTversky>
0.180 

> <ROCS_RefColorTversky>
0.148 

> <ROCS_RefTverskyCombo>
0.328 

> <ROCS_FitTversky>
1.679 

> <ROCS_FitColorTversky>
0.796 

> <ROCS_FitTverskyCombo>
2.476 

> <ROCS_ColorScore>
-5.265

> <ROCS_Overlap>
2121.556

> <ROCS_Rank>
300                 

$$$$
untitled-dbase-1774_613
  -OEChem-02082415043D

 28 28  0     0  0  0  0  0  0999 V2000
    9.8044   10.2533   23.5608 C   0  0  0  0  0  0  0  0  0  0  0  0
   10.2427   11.5693   23.4140 C   0  0  0  0  0  0  0  0  0  0  0  0
    8.4992    9.9955   23.9799 C   0  0  0  0  0  0  0  0  0  0  0  0
    8.0706   12.3698   24.1055 C   0  0  0  0  0  0  0  0  0  0  0  0
    9.3758   12.6276   23.6864 C   0  0  0  0  0  0  0  0  0  0  0  0
    7.6323   11.0537   24.2522 C   0  0  0  0  0  0  0  0  0  0  0  0
    8.3136   15.8272   22.3713 C   0  0  0  0  0  0  0  0  0  0  0  0
   10.8039   14.1573   22.5567 C   0  0  0  0  0  0  0  0  0  0  0  0
   10.6186   15.5564   22.0017 C   0  0  0  0  0  0  0  0  0  0  0  0
    5.1837   10.6645   23.2736 N   0  0  0  0  0  0  0  0  0  0  0  0
    5.9636    9.4096   25.3861 O   0  0  0  0  0  0  0  0  0  0  0  0
    5.5132   11.8850   25.5183 O   0  0  0  0  0  0  0  0  0  0  0  0
    9.8038   13.9119   23.5441 O   0  0  0  0  0  0  0  0  0  0  0  0
    9.3337   15.6500   21.3985 O   0  0  0  0  0  0  0  0  0  0  0  0
    5.9975   10.7306   24.7744 S   0  0  0  0  0  0  0  0  0  0  0  0
   10.4795    9.4294   23.3491 H   0  0  0  0  0  0  0  0  0  0  0  0
   11.2606   11.7636   23.0875 H   0  0  0  0  0  0  0  0  0  0  0  0
    8.1676    8.9666   24.0899 H   0  0  0  0  0  0  0  0  0  0  0  0
    7.3988   13.1983   24.3168 H   0  0  0  0  0  0  0  0  0  0  0  0
    7.3428   15.8949   21.8743 H   0  0  0  0  0  0  0  0  0  0  0  0
    8.5073   16.7391   22.9418 H   0  0  0  0  0  0  0  0  0  0  0  0
    8.3148   14.9693   23.0480 H   0  0  0  0  0  0  0  0  0  0  0  0
   11.7844   14.0474   23.0300 H   0  0  0  0  0  0  0  0  0  0  0  0
   10.6920   13.4127   21.7631 H   0  0  0  0  0  0  0  0  0  0  0  0
   11.3705   15.7812   21.2387 H   0  0  0  0  0  0  0  0  0  0  0  0
   10.6751   16.2974   22.8044 H   0  0  0  0  0  0  0  0  0  0  0  0
    4.8600    9.7480   22.9409 H   0  0  0  0  0  0  0  0  0  0  0  0
    4.5546   11.4398   23.0319 H   0  0  0  0  0  0  0  0  0  0  0  0
  1  2  2  0  0  0  0
  1  3  1  0  0  0  0
  2  5  1  0  0  0  0
  3  6  2  0  0  0  0
  4  5  2  0  0  0  0
  4  6  1  0  0  0  0
  5 13  1  0  0  0  0
  6 15  1  0  0  0  0
  7 14  1  0  0  0  0
  8  9  1  0  0  0  0
  8 13  1  0  0  0  0
  9 14  1  0  0  0  0
 10 15  1  0  0  0  0
 11 15  2  0  0  0  0
 12 15  2  0  0  0  0
  1 16  1  0  0  0  0
  2 17  1  0  0  0  0
  3 18  1  0  0  0  0
  4 19  1  0  0  0  0
  7 20  1  0  0  0  0
  7 21  1  0  0  0  0
  7 22  1  0  0  0  0
  8 23  1  0  0  0  0
  8 24  1  0  0  0  0
  9 25  1  0  0  0  0
  9 26  1  0  0  0  0
 10 27  1  0  0  0  0
 10 28  1  0  0  0  0
M  END
> <Mol Weight>
231,27

> <Formula>
C9H13NO4S

> <ID>
EN300-208854

> <name>
Sulfonamides

> <LogP>
0,37

> <ROCS_ShapeQuery>
x0446_0A_x1080_0A_x0929_0A_x0812_0A_x0719_0A_x1140_0A_x0528_0A_x0310_0A

> <ROCS_TanimotoCombo>
0.336 

> <ROCS_ShapeTanimoto>
0.191 

> <ROCS_ColorTanimoto>
0.146 

> <ROCS_RefTversky>
0.176 

> <ROCS_RefColorTversky>
0.154 

> <ROCS_RefTverskyCombo>
0.331 

> <ROCS_FitTversky>
1.722 

> <ROCS_FitColorTversky>
0.727 

> <ROCS_FitTverskyCombo>
2.449 

> <ROCS_ColorScore>
-5.501

> <ROCS_Overlap>
2081.302

> <ROCS_Rank>
301                 

$$$$
untitled-dbase-810_8
  -OEChem-02082415043D

 26 26  0     1  0  0  0  0  0999 V2000
    8.7770   10.0941   23.7843 C   0  0  0  0  0  0  0  0  0  0  0  0
    9.8777   10.8800   24.1256 C   0  0  0  0  0  0  0  0  0  0  0  0
    7.5172   10.6783   23.6516 C   0  0  0  0  0  0  0  0  0  0  0  0
    9.7187   12.2499   24.3342 C   0  0  0  0  0  0  0  0  0  0  0  0
    7.3582   12.0482   23.8603 C   0  0  0  0  0  0  0  0  0  0  0  0
    8.4589   12.8341   24.2016 C   0  0  0  0  0  0  0  0  0  0  0  0
    7.9648   14.6147   25.9001 C   0  0  0  0  0  0  0  0  0  0  0  0
    7.2157   14.9472   23.5211 C   0  0  0  0  0  0  0  0  0  0  0  0
    8.2850   14.3265   24.4291 C   0  0  2  0  0  0  0  0  0  0  0  0
    6.2570   15.5780   21.1265 N   0  0  0  0  0  0  0  0  0  0  0  0
    8.7935   15.6247   21.5517 O   0  0  0  0  0  0  0  0  0  0  0  0
    7.5932   13.4034   21.4469 O   0  0  0  0  0  0  0  0  0  0  0  0
    7.6188   14.8101   21.8056 S   0  0  0  0  0  0  0  0  0  0  0  0
    8.9012    9.0276   23.6205 H   0  0  0  0  0  0  0  0  0  0  0  0
   10.8588   10.4255   24.2278 H   0  0  0  0  0  0  0  0  0  0  0  0
    6.6602   10.0669   23.3848 H   0  0  0  0  0  0  0  0  0  0  0  0
   10.5819   12.8544   24.6001 H   0  0  0  0  0  0  0  0  0  0  0  0
    6.3730   12.4946   23.7548 H   0  0  0  0  0  0  0  0  0  0  0  0
    7.0211   14.1537   26.2113 H   0  0  0  0  0  0  0  0  0  0  0  0
    7.8799   15.6934   26.0717 H   0  0  0  0  0  0  0  0  0  0  0  0
    8.7556   14.2337   26.5559 H   0  0  0  0  0  0  0  0  0  0  0  0
    7.1222   16.0210   23.7166 H   0  0  0  0  0  0  0  0  0  0  0  0
    6.2298   14.4915   23.6545 H   0  0  0  0  0  0  0  0  0  0  0  0
    9.2396   14.8239   24.2095 H   0  0  0  0  0  0  0  0  0  0  0  0
    6.3915   16.5042   20.7026 H   0  0  0  0  0  0  0  0  0  0  0  0
    5.5740   14.9914   20.6315 H   0  0  0  0  0  0  0  0  0  0  0  0
  1  2  1  0  0  0  0
  1  3  2  0  0  0  0
  2  4  2  0  0  0  0
  3  5  1  0  0  0  0
  4  6  1  0  0  0  0
  5  6  2  0  0  0  0
  6  9  1  0  0  0  0
  7  9  1  0  0  0  0
  8  9  1  0  0  0  0
  8 13  1  0  0  0  0
 10 13  1  0  0  0  0
 11 13  2  0  0  0  0
 12 13  2  0  0  0  0
  1 14  1  0  0  0  0
  2 15  1  0  0  0  0
  3 16  1  0  0  0  0
  4 17  1  0  0  0  0
  5 18  1  0  0  0  0
  7 19  1  0  0  0  0
  7 20  1  0  0  0  0
  7 21  1  0  0  0  0
  8 22  1  0  0  0  0
  8 23  1  0  0  0  0
  9 24  1  0  0  0  0
 10 25  1  0  0  0  0
 10 26  1  0  0  0  0
M  END
> <Mol Weight>
199,27

> <Formula>
C9H13NO2S

> <ID>
EN300-105700

> <name>
Sulfonamides

> <LogP>
1,00

> <ROCS_ShapeQuery>
x0446_0A_x1080_0A_x0929_0A_x0812_0A_x0719_0A_x1140_0A_x0528_0A_x0310_0A

> <ROCS_TanimotoCombo>
0.336 

> <ROCS_ShapeTanimoto>
0.166 

> <ROCS_ColorTanimoto>
0.171 

> <ROCS_RefTversky>
0.156 

> <ROCS_RefColorTversky>
0.173 

> <ROCS_RefTverskyCombo>
0.329 

> <ROCS_FitTversky>
1.637 

> <ROCS_FitColorTversky>
0.930 

> <ROCS_FitTverskyCombo>
2.567 

> <ROCS_ColorScore>
-6.150

> <ROCS_Overlap>
1836.248

> <ROCS_Rank>
302                 

$$$$
untitled-dbase-2202_256
  -OEChem-02082415043D

 34 34  0     1  0  0  0  0  0999 V2000
   10.6506   13.4925   22.6500 C   0  0  0  0  0  0  0  0  0  0  0  0
    9.3113   11.6891   24.7228 C   0  0  0  0  0  0  0  0  0  0  0  0
    8.1215   11.8050   22.9593 C   0  0  0  0  0  0  0  0  0  0  0  0
    9.5658   11.3303   23.2406 C   0  0  1  0  0  0  0  0  0  0  0  0
    7.8067   11.4844   24.4375 C   0  0  2  0  0  0  0  0  0  0  0  0
   12.0921   15.8557   23.3480 C   0  0  0  0  0  0  0  0  0  0  0  0
   13.1780   15.6360   21.0937 C   0  0  0  0  0  0  0  0  0  0  0  0
   10.6970   15.9913   21.2575 C   0  0  0  0  0  0  0  0  0  0  0  0
   11.9212   15.3551   21.9145 C   0  0  0  0  0  0  0  0  0  0  0  0
    7.4870   12.7242   26.7638 N   0  0  0  0  0  0  0  0  0  0  0  0
   10.6008   12.1208   22.5936 N   0  0  0  0  0  0  0  0  0  0  0  0
    9.8553   14.2205   23.2350 O   0  0  0  0  0  0  0  0  0  0  0  0
    6.8353   13.9061   24.5740 O   0  0  0  0  0  0  0  0  0  0  0  0
    5.4318   11.9778   25.4089 O   0  0  0  0  0  0  0  0  0  0  0  0
   11.7353   13.9356   21.9467 O   0  0  0  0  0  0  0  0  0  0  0  0
    6.7202   12.6248   25.2453 S   0  0  0  0  0  0  0  0  0  0  0  0
    9.7461   11.0001   25.4524 H   0  0  0  0  0  0  0  0  0  0  0  0
    9.5896   12.7139   24.9976 H   0  0  0  0  0  0  0  0  0  0  0  0
    8.0343   12.8654   22.6926 H   0  0  0  0  0  0  0  0  0  0  0  0
    7.5687   11.2123   22.2250 H   0  0  0  0  0  0  0  0  0  0  0  0
    9.7116   10.2567   23.0717 H   0  0  0  0  0  0  0  0  0  0  0  0
    7.4768   10.4499   24.5920 H   0  0  0  0  0  0  0  0  0  0  0  0
   11.1921   15.6560   23.9405 H   0  0  0  0  0  0  0  0  0  0  0  0
   12.9461   15.3809   23.8420 H   0  0  0  0  0  0  0  0  0  0  0  0
   12.2406   16.9415   23.3679 H   0  0  0  0  0  0  0  0  0  0  0  0
   13.0598   15.2785   20.0644 H   0  0  0  0  0  0  0  0  0  0  0  0
   14.0418   15.1037   21.5081 H   0  0  0  0  0  0  0  0  0  0  0  0
   13.4109   16.7053   21.0647 H   0  0  0  0  0  0  0  0  0  0  0  0
   10.5742   15.6324   20.2293 H   0  0  0  0  0  0  0  0  0  0  0  0
    9.7801   15.7692   21.8130 H   0  0  0  0  0  0  0  0  0  0  0  0
   10.8105   17.0796   21.1937 H   0  0  0  0  0  0  0  0  0  0  0  0
    7.4294   11.9072   27.3841 H   0  0  0  0  0  0  0  0  0  0  0  0
    8.3851   13.2206   26.8153 H   0  0  0  0  0  0  0  0  0  0  0  0
   11.3208   11.6359   22.0756 H   0  0  0  0  0  0  0  0  0  0  0  0
  1 11  1  0  0  0  0
  1 12  2  0  0  0  0
  1 15  1  0  0  0  0
  2  4  1  0  0  0  0
  2  5  1  0  0  0  0
  3  4  1  0  0  0  0
  3  5  1  0  0  0  0
  4 11  1  1  0  0  0
  5 16  1  1  0  0  0
  6  9  1  0  0  0  0
  7  9  1  0  0  0  0
  8  9  1  0  0  0  0
  9 15  1  0  0  0  0
 10 16  1  0  0  0  0
 13 16  2  0  0  0  0
 14 16  2  0  0  0  0
  2 17  1  0  0  0  0
  2 18  1  0  0  0  0
  3 19  1  0  0  0  0
  3 20  1  0  0  0  0
  4 21  1  0  0  0  0
  5 22  1  0  0  0  0
  6 23  1  0  0  0  0
  6 24  1  0  0  0  0
  6 25  1  0  0  0  0
  7 26  1  0  0  0  0
  7 27  1  0  0  0  0
  7 28  1  0  0  0  0
  8 29  1  0  0  0  0
  8 30  1  0  0  0  0
  8 31  1  0  0  0  0
 10 32  1  0  0  0  0
 10 33  1  0  0  0  0
 11 34  1  0  0  0  0
M  END
> <Mol Weight>
250,31

> <Formula>
C9H18N2O4S

> <ID>
EN300-27698910

> <name>
Sulfonamides

> <LogP>
-0,47

> <ROCS_ShapeQuery>
x0446_0A_x1080_0A_x0929_0A_x0812_0A_x0719_0A_x1140_0A_x0528_0A_x0310_0A

> <ROCS_TanimotoCombo>
0.336 

> <ROCS_ShapeTanimoto>
0.196 

> <ROCS_ColorTanimoto>
0.140 

> <ROCS_RefTversky>
0.181 

> <ROCS_RefColorTversky>
0.152 

> <ROCS_RefTverskyCombo>
0.334 

> <ROCS_FitTversky>
1.712 

> <ROCS_FitColorTversky>
0.639 

> <ROCS_FitTverskyCombo>
2.352 

> <ROCS_ColorScore>
-5.441

> <ROCS_Overlap>
2137.157

> <ROCS_Rank>
303                 

$$$$
untitled-dbase-978_2
  -OEChem-02082415043D

 22 23  0     0  0  0  0  0  0999 V2000
    7.5855   11.0669   23.6490 C   0  0  0  0  0  0  0  0  0  0  0  0
    8.2614   12.2951   23.4958 C   0  0  0  0  0  0  0  0  0  0  0  0
    9.5758   12.0077   23.7836 C   0  0  0  0  0  0  0  0  0  0  0  0
   12.0280   10.7287   24.0030 C   0  0  0  0  0  0  0  0  0  0  0  0
   10.7950    9.9217   24.3900 C   0  0  0  0  0  0  0  0  0  0  0  0
   11.8294   12.1899   24.4036 C   0  0  0  0  0  0  0  0  0  0  0  0
    8.4010   10.0665   23.9962 N   0  0  0  0  0  0  0  0  0  0  0  0
    9.6008   10.6666   24.0552 N   0  0  0  0  0  0  0  0  0  0  0  0
    8.9716   14.8281   23.0665 N   0  0  0  0  0  0  0  0  0  0  0  0
    7.0862   13.7447   21.6818 O   0  0  0  0  0  0  0  0  0  0  0  0
    6.6833   14.2735   24.1120 O   0  0  0  0  0  0  0  0  0  0  0  0
   10.6714   12.7710   23.7860 O   0  0  0  0  0  0  0  0  0  0  0  0
    7.5972   13.7968   23.0611 S   0  0  0  0  0  0  0  0  0  0  0  0
    6.5330   10.8572   23.5210 H   0  0  0  0  0  0  0  0  0  0  0  0
   12.9238   10.3107   24.4729 H   0  0  0  0  0  0  0  0  0  0  0  0
   12.1622   10.6743   22.9153 H   0  0  0  0  0  0  0  0  0  0  0  0
   10.7692    8.9634   23.8623 H   0  0  0  0  0  0  0  0  0  0  0  0
   10.7631    9.7413   25.4698 H   0  0  0  0  0  0  0  0  0  0  0  0
   11.7349   12.2909   25.4919 H   0  0  0  0  0  0  0  0  0  0  0  0
   12.6974   12.7806   24.0932 H   0  0  0  0  0  0  0  0  0  0  0  0
    9.3834   15.0902   23.9705 H   0  0  0  0  0  0  0  0  0  0  0  0
    9.6593   14.7313   22.3095 H   0  0  0  0  0  0  0  0  0  0  0  0
  1  2  1  0  0  0  0
  1  7  2  0  0  0  0
  2  3  2  0  0  0  0
  2 13  1  0  0  0  0
  3  8  1  0  0  0  0
  3 12  1  0  0  0  0
  4  5  1  0  0  0  0
  4  6  1  0  0  0  0
  5  8  1  0  0  0  0
  6 12  1  0  0  0  0
  7  8  1  0  0  0  0
  9 13  1  0  0  0  0
 10 13  2  0  0  0  0
 11 13  2  0  0  0  0
  1 14  1  0  0  0  0
  4 15  1  0  0  0  0
  4 16  1  0  0  0  0
  5 17  1  0  0  0  0
  5 18  1  0  0  0  0
  6 19  1  0  0  0  0
  6 20  1  0  0  0  0
  9 21  1  0  0  0  0
  9 22  1  0  0  0  0
M  END
> <Mol Weight>
203,22

> <Formula>
C6H9N3O3S

> <ID>
EN300-219833

> <name>
Sulfonamides

> <LogP>
-1,17

> <ROCS_ShapeQuery>
x0446_0A_x1080_0A_x0929_0A_x0812_0A_x0719_0A_x1140_0A_x0528_0A_x0310_0A

> <ROCS_TanimotoCombo>
0.336 

> <ROCS_ShapeTanimoto>
0.180 

> <ROCS_ColorTanimoto>
0.156 

> <ROCS_RefTversky>
0.168 

> <ROCS_RefColorTversky>
0.167 

> <ROCS_RefTverskyCombo>
0.335 

> <ROCS_FitTversky>
1.700 

> <ROCS_FitColorTversky>
0.699 

> <ROCS_FitTverskyCombo>
2.399 

> <ROCS_ColorScore>
-5.969

> <ROCS_Overlap>
1977.316

> <ROCS_Rank>
304                 

$$$$
untitled-dbase-1483_23
  -OEChem-02082415043D

 23 23  0     1  0  0  0  0  0999 V2000
    9.4325   11.0785   22.5267 C   0  0  0  0  0  0  0  0  0  0  0  0
    9.6429   10.0381   23.4315 C   0  0  0  0  0  0  0  0  0  0  0  0
    8.2047   11.1382   25.0310 C   0  0  0  0  0  0  0  0  0  0  0  0
    8.6083   12.1489   22.8740 C   0  0  0  0  0  0  0  0  0  0  0  0
    9.0290   10.0679   24.6836 C   0  0  0  0  0  0  0  0  0  0  0  0
    7.9944   12.1787   24.1261 C   0  0  0  0  0  0  0  0  0  0  0  0
    7.0507   13.9962   22.0429 C   0  0  0  0  0  0  0  0  0  0  0  0
    8.3856   13.2598   21.9040 C   0  0  1  0  0  0  0  0  0  0  0  0
   10.9164   13.5694   21.1623 N   0  0  0  0  0  0  0  0  0  0  0  0
    9.3819   15.6208   21.3939 O   0  0  0  0  0  0  0  0  0  0  0  0
   10.1404   14.3974   23.4708 O   0  0  0  0  0  0  0  0  0  0  0  0
    9.2305    9.0684   25.5522 F   0  0  0  0  0  0  0  0  0  0  0  0
    7.2008   13.2032   24.4690 F   0  0  0  0  0  0  0  0  0  0  0  0
    9.7409   14.3945   22.0777 S   0  0  0  0  0  0  0  0  0  0  0  0
    9.9146   11.0464   21.5532 H   0  0  0  0  0  0  0  0  0  0  0  0
   10.2841    9.2043   23.1613 H   0  0  0  0  0  0  0  0  0  0  0  0
    7.7269   11.1616   26.0058 H   0  0  0  0  0  0  0  0  0  0  0  0
    6.9276   14.3848   23.0594 H   0  0  0  0  0  0  0  0  0  0  0  0
    6.9704   14.8369   21.3457 H   0  0  0  0  0  0  0  0  0  0  0  0
    6.2094   13.3267   21.8321 H   0  0  0  0  0  0  0  0  0  0  0  0
    8.4519   12.8938   20.8658 H   0  0  0  0  0  0  0  0  0  0  0  0
   11.3145   12.7081   21.5565 H   0  0  0  0  0  0  0  0  0  0  0  0
   10.7980   13.5416   20.1421 H   0  0  0  0  0  0  0  0  0  0  0  0
  1  2  2  0  0  0  0
  1  4  1  0  0  0  0
  2  5  1  0  0  0  0
  3  5  2  0  0  0  0
  3  6  1  0  0  0  0
  4  6  2  0  0  0  0
  4  8  1  0  0  0  0
  5 12  1  0  0  0  0
  6 13  1  0  0  0  0
  7  8  1  0  0  0  0
  8 14  1  0  0  0  0
  9 14  1  0  0  0  0
 10 14  2  0  0  0  0
 11 14  2  0  0  0  0
  1 15  1  0  0  0  0
  2 16  1  0  0  0  0
  3 17  1  0  0  0  0
  7 18  1  0  0  0  0
  7 19  1  0  0  0  0
  7 20  1  0  0  0  0
  8 21  1  0  0  0  0
  9 22  1  0  0  0  0
  9 23  1  0  0  0  0
M  END
> <Mol Weight>
221,22

> <Formula>
C8H9F2NO2S

> <ID>
EN300-126371

> <name>
Sulfonamides

> <LogP>
1,20

> <ROCS_ShapeQuery>
x0446_0A_x1080_0A_x0929_0A_x0812_0A_x0719_0A_x1140_0A_x0528_0A_x0310_0A

> <ROCS_TanimotoCombo>
0.336 

> <ROCS_ShapeTanimoto>
0.190 

> <ROCS_ColorTanimoto>
0.146 

> <ROCS_RefTversky>
0.176 

> <ROCS_RefColorTversky>
0.148 

> <ROCS_RefTverskyCombo>
0.323 

> <ROCS_FitTversky>
1.756 

> <ROCS_FitColorTversky>
0.927 

> <ROCS_FitTverskyCombo>
2.682 

> <ROCS_ColorScore>
-5.248

> <ROCS_Overlap>
2070.338

> <ROCS_Rank>
305                 

$$$$
untitled-dbase-907_25
  -OEChem-02082415043D

 24 24  0     0  0  0  0  0  0999 V2000
    8.2256   10.3835   23.8892 C   0  0  0  0  0  0  0  0  0  0  0  0
    9.1498   10.3487   22.8451 C   0  0  0  0  0  0  0  0  0  0  0  0
    7.8768   11.6021   24.4716 C   0  0  0  0  0  0  0  0  0  0  0  0
    9.7253   11.5325   22.3834 C   0  0  0  0  0  0  0  0  0  0  0  0
    8.4523   12.7858   24.0099 C   0  0  0  0  0  0  0  0  0  0  0  0
    9.3766   12.7511   22.9658 C   0  0  0  0  0  0  0  0  0  0  0  0
    6.7965   15.0480   22.9297 C   0  0  0  0  0  0  0  0  0  0  0  0
    8.0585   14.0739   24.6563 C   0  0  0  0  0  0  0  0  0  0  0  0
   11.1253   13.5862   21.1357 N   0  0  0  0  0  0  0  0  0  0  0  0
    9.0826   15.0336   21.7505 O   0  0  0  0  0  0  0  0  0  0  0  0
   10.9553   14.7733   23.4157 O   0  0  0  0  0  0  0  0  0  0  0  0
    6.7587   14.4429   24.2149 O   0  0  0  0  0  0  0  0  0  0  0  0
   10.1191   14.2167   22.3632 S   0  0  0  0  0  0  0  0  0  0  0  0
    7.7783    9.4613   24.2488 H   0  0  0  0  0  0  0  0  0  0  0  0
    9.4220    9.3997   22.3925 H   0  0  0  0  0  0  0  0  0  0  0  0
    7.1557   11.6180   25.2845 H   0  0  0  0  0  0  0  0  0  0  0  0
   10.4446   11.4917   21.5694 H   0  0  0  0  0  0  0  0  0  0  0  0
    5.7830   15.3179   22.6232 H   0  0  0  0  0  0  0  0  0  0  0  0
    7.2326   14.3504   22.2102 H   0  0  0  0  0  0  0  0  0  0  0  0
    7.4119   15.9495   22.9792 H   0  0  0  0  0  0  0  0  0  0  0  0
    8.0471   13.9835   25.7502 H   0  0  0  0  0  0  0  0  0  0  0  0
    8.7619   14.8759   24.3978 H   0  0  0  0  0  0  0  0  0  0  0  0
   10.8616   13.7636   20.1588 H   0  0  0  0  0  0  0  0  0  0  0  0
   12.1396   13.5847   21.2982 H   0  0  0  0  0  0  0  0  0  0  0  0
  1  2  1  0  0  0  0
  1  3  2  0  0  0  0
  2  4  2  0  0  0  0
  3  5  1  0  0  0  0
  4  6  1  0  0  0  0
  5  6  2  0  0  0  0
  5  8  1  0  0  0  0
  6 13  1  0  0  0  0
  7 12  1  0  0  0  0
  8 12  1  0  0  0  0
  9 13  1  0  0  0  0
 10 13  2  0  0  0  0
 11 13  2  0  0  0  0
  1 14  1  0  0  0  0
  2 15  1  0  0  0  0
  3 16  1  0  0  0  0
  4 17  1  0  0  0  0
  7 18  1  0  0  0  0
  7 19  1  0  0  0  0
  7 20  1  0  0  0  0
  8 21  1  0  0  0  0
  8 22  1  0  0  0  0
  9 23  1  0  0  0  0
  9 24  1  0  0  0  0
M  END
> <Mol Weight>
201,24

> <Formula>
C8H11NO3S

> <ID>
EN300-128419

> <name>
Sulfonamides

> <LogP>
0,46

> <ROCS_ShapeQuery>
x0446_0A_x1080_0A_x0929_0A_x0812_0A_x0719_0A_x1140_0A_x0528_0A_x0310_0A

> <ROCS_TanimotoCombo>
0.336 

> <ROCS_ShapeTanimoto>
0.193 

> <ROCS_ColorTanimoto>
0.143 

> <ROCS_RefTversky>
0.177 

> <ROCS_RefColorTversky>
0.148 

> <ROCS_RefTverskyCombo>
0.326 

> <ROCS_FitTversky>
1.848 

> <ROCS_FitColorTversky>
0.797 

> <ROCS_FitTverskyCombo>
2.645 

> <ROCS_ColorScore>
-5.271

> <ROCS_Overlap>
2091.855

> <ROCS_Rank>
306                 

$$$$
untitled-dbase-1871_2
  -OEChem-02082415043D

 19 19  0     0  0  0  0  0  0999 V2000
    7.7860   11.4629   24.4155 C   0  0  0  0  0  0  0  0  0  0  0  0
    8.2016   10.2671   23.8299 C   0  0  0  0  0  0  0  0  0  0  0  0
    9.7145   11.4932   22.3999 C   0  0  0  0  0  0  0  0  0  0  0  0
    8.3345   12.6739   23.9932 C   0  0  0  0  0  0  0  0  0  0  0  0
    9.2988   12.6890   22.9855 C   0  0  0  0  0  0  0  0  0  0  0  0
    9.1659   10.2822   22.8221 C   0  0  0  0  0  0  0  0  0  0  0  0
   11.0856   13.5993   21.2295 N   0  0  0  0  0  0  0  0  0  0  0  0
    7.8904   13.8761   24.6107 N   0  3  0  0  0  0  0  0  0  0  0  0
    8.4919   14.2918   25.6289 O   0  5  0  0  0  0  0  0  0  0  0  0
    6.9106   14.4835   24.1182 O   0  0  0  0  0  0  0  0  0  0  0  0
    8.9752   14.9732   21.7808 O   0  0  0  0  0  0  0  0  0  0  0  0
   10.7925   14.7568   23.5123 O   0  0  0  0  0  0  0  0  0  0  0  0
   10.0154   14.1860   22.4236 S   0  0  0  0  0  0  0  0  0  0  0  0
    9.6786    8.8068   22.0999 Cl  0  0  0  0  0  0  0  0  0  0  0  0
    7.0335   11.4336   25.2000 H   0  0  0  0  0  0  0  0  0  0  0  0
    7.7658    9.3309   24.1696 H   0  0  0  0  0  0  0  0  0  0  0  0
   10.4665   11.5068   21.6140 H   0  0  0  0  0  0  0  0  0  0  0  0
   10.8526   13.7782   20.2451 H   0  0  0  0  0  0  0  0  0  0  0  0
   12.0928   13.6292   21.4297 H   0  0  0  0  0  0  0  0  0  0  0  0
  1  2  2  0  0  0  0
  1  4  1  0  0  0  0
  2  6  1  0  0  0  0
  3  5  1  0  0  0  0
  3  6  2  0  0  0  0
  4  5  2  0  0  0  0
  4  8  1  0  0  0  0
  5 13  1  0  0  0  0
  6 14  1  0  0  0  0
  7 13  1  0  0  0  0
  8  9  1  0  0  0  0
  8 10  2  0  0  0  0
 11 13  2  0  0  0  0
 12 13  2  0  0  0  0
  1 15  1  0  0  0  0
  2 16  1  0  0  0  0
  3 17  1  0  0  0  0
  7 18  1  0  0  0  0
  7 19  1  0  0  0  0
M  CHG  2   8   1   9  -1
M  END
> <Mol Weight>
236,63

> <Formula>
C6H5ClN2O4S

> <ID>
EN300-127410

> <name>
Sulfonamides

> <LogP>
1,12

> <ROCS_ShapeQuery>
x0446_0A_x1080_0A_x0929_0A_x0812_0A_x0719_0A_x1140_0A_x0528_0A_x0310_0A

> <ROCS_TanimotoCombo>
0.336 

> <ROCS_ShapeTanimoto>
0.199 

> <ROCS_ColorTanimoto>
0.136 

> <ROCS_RefTversky>
0.183 

> <ROCS_RefColorTversky>
0.146 

> <ROCS_RefTverskyCombo>
0.329 

> <ROCS_FitTversky>
1.822 

> <ROCS_FitColorTversky>
0.684 

> <ROCS_FitTverskyCombo>
2.507 

> <ROCS_ColorScore>
-5.186

> <ROCS_Overlap>
2158.094

> <ROCS_Rank>
307                 

$$$$
untitled-dbase-1773_8
  -OEChem-02082415043D

 28 28  0     0  0  0  0  0  0999 V2000
    9.4509   10.5569   22.8379 C   0  0  0  0  0  0  0  0  0  0  0  0
    9.9435   11.7754   22.3709 C   0  0  0  0  0  0  0  0  0  0  0  0
    7.8673   11.7320   24.2338 C   0  0  0  0  0  0  0  0  0  0  0  0
    8.4128   10.5351   23.7693 C   0  0  0  0  0  0  0  0  0  0  0  0
    8.3600   12.9506   23.7668 C   0  0  0  0  0  0  0  0  0  0  0  0
    9.3981   12.9722   22.8354 C   0  0  0  0  0  0  0  0  0  0  0  0
    6.7546   11.7064   25.2322 C   0  0  0  0  0  0  0  0  0  0  0  0
    6.8738    8.7453   23.4797 C   0  0  0  0  0  0  0  0  0  0  0  0
    8.4184   14.6919   25.3855 C   0  0  0  0  0  0  0  0  0  0  0  0
   11.2418   13.9239   21.1621 N   0  0  0  0  0  0  0  0  0  0  0  0
    8.9917   15.1455   21.4624 O   0  0  0  0  0  0  0  0  0  0  0  0
   10.6762   15.1860   23.3355 O   0  0  0  0  0  0  0  0  0  0  0  0
    7.9445    9.3352   24.2140 O   0  0  0  0  0  0  0  0  0  0  0  0
    7.8240   14.1190   24.2235 O   0  0  0  0  0  0  0  0  0  0  0  0
   10.0354   14.4859   22.2325 S   0  0  0  0  0  0  0  0  0  0  0  0
    9.8804    9.6281   22.4721 H   0  0  0  0  0  0  0  0  0  0  0  0
   10.7526   11.7795   21.6454 H   0  0  0  0  0  0  0  0  0  0  0  0
    7.1596   11.7157   26.2501 H   0  0  0  0  0  0  0  0  0  0  0  0
    6.0941   12.5727   25.1093 H   0  0  0  0  0  0  0  0  0  0  0  0
    6.1346   10.8104   25.1092 H   0  0  0  0  0  0  0  0  0  0  0  0
    6.5967    7.7935   23.9394 H   0  0  0  0  0  0  0  0  0  0  0  0
    7.1855    8.5851   22.4445 H   0  0  0  0  0  0  0  0  0  0  0  0
    6.0150    9.4205   23.4992 H   0  0  0  0  0  0  0  0  0  0  0  0
    7.8983   15.6178   25.6429 H   0  0  0  0  0  0  0  0  0  0  0  0
    9.4746   14.8963   25.1925 H   0  0  0  0  0  0  0  0  0  0  0  0
    8.3316   13.9853   26.2143 H   0  0  0  0  0  0  0  0  0  0  0  0
   11.0747   14.0237   20.1533 H   0  0  0  0  0  0  0  0  0  0  0  0
   12.2241   14.0503   21.4347 H   0  0  0  0  0  0  0  0  0  0  0  0
  1  2  2  0  0  0  0
  1  4  1  0  0  0  0
  2  6  1  0  0  0  0
  3  4  2  0  0  0  0
  3  5  1  0  0  0  0
  3  7  1  0  0  0  0
  4 13  1  0  0  0  0
  5  6  2  0  0  0  0
  5 14  1  0  0  0  0
  6 15  1  0  0  0  0
  8 13  1  0  0  0  0
  9 14  1  0  0  0  0
 10 15  1  0  0  0  0
 11 15  2  0  0  0  0
 12 15  2  0  0  0  0
  1 16  1  0  0  0  0
  2 17  1  0  0  0  0
  7 18  1  0  0  0  0
  7 19  1  0  0  0  0
  7 20  1  0  0  0  0
  8 21  1  0  0  0  0
  8 22  1  0  0  0  0
  8 23  1  0  0  0  0
  9 24  1  0  0  0  0
  9 25  1  0  0  0  0
  9 26  1  0  0  0  0
 10 27  1  0  0  0  0
 10 28  1  0  0  0  0
M  END
> <Mol Weight>
231,27

> <Formula>
C9H13NO4S

> <ID>
EN300-9442126

> <name>
Sulfonamides

> <LogP>
0,78

> <ROCS_ShapeQuery>
x0446_0A_x1080_0A_x0929_0A_x0812_0A_x0719_0A_x1140_0A_x0528_0A_x0310_0A

> <ROCS_TanimotoCombo>
0.336 

> <ROCS_ShapeTanimoto>
0.202 

> <ROCS_ColorTanimoto>
0.134 

> <ROCS_RefTversky>
0.186 

> <ROCS_RefColorTversky>
0.143 

> <ROCS_RefTverskyCombo>
0.329 

> <ROCS_FitTversky>
1.788 

> <ROCS_FitColorTversky>
0.673 

> <ROCS_FitTverskyCombo>
2.461 

> <ROCS_ColorScore>
-5.093

> <ROCS_Overlap>
2189.115

> <ROCS_Rank>
308                 

$$$$
untitled-dbase-754_2
  -OEChem-02082415043D

 20 21  0     0  0  0  0  0  0999 V2000
    9.6270   10.3238   23.6918 C   0  0  0  0  0  0  0  0  0  0  0  0
    9.6346   11.6980   23.6434 C   0  0  0  0  0  0  0  0  0  0  0  0
    7.6162   10.9080   24.1209 C   0  0  0  0  0  0  0  0  0  0  0  0
    6.2308   11.0538   24.4256 C   0  0  0  0  0  0  0  0  0  0  0  0
    5.6914   12.2856   24.5053 C   0  0  0  0  0  0  0  0  0  0  0  0
    6.4893   13.4816   24.2871 C   0  0  0  0  0  0  0  0  0  0  0  0
    7.7947   13.3524   23.9993 C   0  0  0  0  0  0  0  0  0  0  0  0
    8.3772    9.8410   23.9868 N   0  0  0  0  0  0  0  0  0  0  0  0
    8.3457   12.0766   23.9186 N   0  0  0  0  0  0  0  0  0  0  0  0
   10.7990   12.9825   21.6188 N   0  0  0  0  0  0  0  0  0  0  0  0
   10.5864   14.1032   23.9306 O   0  0  0  0  0  0  0  0  0  0  0  0
   12.1933   12.1856   23.6332 O   0  0  0  0  0  0  0  0  0  0  0  0
   10.9404   12.8407   23.3118 S   0  0  0  0  0  0  0  0  0  0  0  0
   10.4593    9.6546   23.5282 H   0  0  0  0  0  0  0  0  0  0  0  0
    5.6259   10.1693   24.5904 H   0  0  0  0  0  0  0  0  0  0  0  0
    4.6397   12.4167   24.7362 H   0  0  0  0  0  0  0  0  0  0  0  0
    6.0131   14.4516   24.3613 H   0  0  0  0  0  0  0  0  0  0  0  0
    8.4361   14.2078   23.8274 H   0  0  0  0  0  0  0  0  0  0  0  0
   11.0838   12.1787   21.0459 H   0  0  0  0  0  0  0  0  0  0  0  0
    9.9870   13.4902   21.2472 H   0  0  0  0  0  0  0  0  0  0  0  0
  1  2  2  0  0  0  0
  1  8  1  0  0  0  0
  2  9  1  0  0  0  0
  2 13  1  0  0  0  0
  3  4  1  0  0  0  0
  3  8  2  0  0  0  0
  3  9  1  0  0  0  0
  4  5  2  0  0  0  0
  5  6  1  0  0  0  0
  6  7  2  0  0  0  0
  7  9  1  0  0  0  0
 10 13  1  0  0  0  0
 11 13  2  0  0  0  0
 12 13  2  0  0  0  0
  1 14  1  0  0  0  0
  4 15  1  0  0  0  0
  5 16  1  0  0  0  0
  6 17  1  0  0  0  0
  7 18  1  0  0  0  0
 10 19  1  0  0  0  0
 10 20  1  0  0  0  0
M  END
> <Mol Weight>
197,21

> <Formula>
C7H7N3O2S

> <ID>
EN300-1272085

> <name>
Sulfonamides

> <LogP>
-0,55

> <ROCS_ShapeQuery>
x0446_0A_x1080_0A_x0929_0A_x0812_0A_x0719_0A_x1140_0A_x0528_0A_x0310_0A

> <ROCS_TanimotoCombo>
0.336 

> <ROCS_ShapeTanimoto>
0.198 

> <ROCS_ColorTanimoto>
0.138 

> <ROCS_RefTversky>
0.182 

> <ROCS_RefColorTversky>
0.150 

> <ROCS_RefTverskyCombo>
0.332 

> <ROCS_FitTversky>
1.833 

> <ROCS_FitColorTversky>
0.627 

> <ROCS_FitTverskyCombo>
2.460 

> <ROCS_ColorScore>
-5.352

> <ROCS_Overlap>
2142.280

> <ROCS_Rank>
309                 

$$$$
untitled-dbase-2550_66
  -OEChem-02082415043D

 25 25  0     0  0  0  0  0  0999 V2000
    9.5914   10.1283   24.4626 C   0  0  0  0  0  0  0  0  0  0  0  0
    8.2418   10.1421   24.1108 C   0  0  0  0  0  0  0  0  0  0  0  0
   10.3452   11.2993   24.3822 C   0  0  0  0  0  0  0  0  0  0  0  0
    7.6458   11.3268   23.6784 C   0  0  0  0  0  0  0  0  0  0  0  0
    9.7492   12.4840   23.9499 C   0  0  0  0  0  0  0  0  0  0  0  0
    8.3995   12.4978   23.5980 C   0  0  0  0  0  0  0  0  0  0  0  0
    5.3887   11.5911   24.3793 C   0  0  0  0  0  0  0  0  0  0  0  0
   11.6428   13.6107   23.0241 C   0  0  0  0  0  0  0  0  0  0  0  0
    8.9748   15.0607   23.1444 N   0  0  0  0  0  0  0  0  0  0  0  0
    7.2702   13.8196   21.6613 O   0  0  0  0  0  0  0  0  0  0  0  0
    6.6562   14.3821   24.0392 O   0  0  0  0  0  0  0  0  0  0  0  0
    6.3257   11.3150   23.3404 O   0  0  0  0  0  0  0  0  0  0  0  0
   10.5065   13.6148   23.8796 O   0  0  0  0  0  0  0  0  0  0  0  0
   11.4542   12.7901   21.9689 F   0  0  0  0  0  0  0  0  0  0  0  0
   12.7091   13.1553   23.7204 F   0  0  0  0  0  0  0  0  0  0  0  0
   11.9305   14.8566   22.5912 F   0  0  0  0  0  0  0  0  0  0  0  0
    7.6507   13.9865   23.0548 S   0  0  0  0  0  0  0  0  0  0  0  0
   10.0555    9.2059   24.7992 H   0  0  0  0  0  0  0  0  0  0  0  0
    7.6606    9.2263   24.1760 H   0  0  0  0  0  0  0  0  0  0  0  0
   11.3961   11.2812   24.6578 H   0  0  0  0  0  0  0  0  0  0  0  0
    4.3739   11.5500   23.9760 H   0  0  0  0  0  0  0  0  0  0  0  0
    5.5868   12.5818   24.7961 H   0  0  0  0  0  0  0  0  0  0  0  0
    5.4969   10.8392   25.1646 H   0  0  0  0  0  0  0  0  0  0  0  0
    9.3896   15.3871   22.2631 H   0  0  0  0  0  0  0  0  0  0  0  0
    8.9699   15.7691   23.8883 H   0  0  0  0  0  0  0  0  0  0  0  0
  1  2  2  0  0  0  0
  1  3  1  0  0  0  0
  2  4  1  0  0  0  0
  3  5  2  0  0  0  0
  4  6  2  0  0  0  0
  4 12  1  0  0  0  0
  5  6  1  0  0  0  0
  5 13  1  0  0  0  0
  6 17  1  0  0  0  0
  7 12  1  0  0  0  0
  8 13  1  0  0  0  0
  8 14  1  0  0  0  0
  8 15  1  0  0  0  0
  8 16  1  0  0  0  0
  9 17  1  0  0  0  0
 10 17  2  0  0  0  0
 11 17  2  0  0  0  0
  1 18  1  0  0  0  0
  2 19  1  0  0  0  0
  3 20  1  0  0  0  0
  7 21  1  0  0  0  0
  7 22  1  0  0  0  0
  7 23  1  0  0  0  0
  9 24  1  0  0  0  0
  9 25  1  0  0  0  0
M  END
> <Mol Weight>
271,21

> <Formula>
C8H8F3NO4S

> <ID>
EN300-322885

> <name>
Sulfonamides

> <LogP>
1,85

> <ROCS_ShapeQuery>
x0446_0A_x1080_0A_x0929_0A_x0812_0A_x0719_0A_x1140_0A_x0528_0A_x0310_0A

> <ROCS_TanimotoCombo>
0.336 

> <ROCS_ShapeTanimoto>
0.214 

> <ROCS_ColorTanimoto>
0.121 

> <ROCS_RefTversky>
0.196 

> <ROCS_RefColorTversky>
0.131 

> <ROCS_RefTverskyCombo>
0.327 

> <ROCS_FitTversky>
1.742 

> <ROCS_FitColorTversky>
0.617 

> <ROCS_FitTverskyCombo>
2.359 

> <ROCS_ColorScore>
-4.667

> <ROCS_Overlap>
2318.246

> <ROCS_Rank>
310                 

$$$$
untitled-dbase-2127_11
  -OEChem-02082415043D

 25 25  0     0  0  0  0  0  0999 V2000
    7.9253   11.7418   24.1919 C   0  0  0  0  0  0  0  0  0  0  0  0
    9.9870   11.8129   22.3139 C   0  0  0  0  0  0  0  0  0  0  0  0
    8.4729   10.5521   23.7122 C   0  0  0  0  0  0  0  0  0  0  0  0
    9.5038   10.5876   22.7732 C   0  0  0  0  0  0  0  0  0  0  0  0
    8.4084   12.9671   23.7325 C   0  0  0  0  0  0  0  0  0  0  0  0
    9.4392   13.0027   22.7936 C   0  0  0  0  0  0  0  0  0  0  0  0
    6.7424   14.6488   23.5042 C   0  0  0  0  0  0  0  0  0  0  0  0
    7.9659    9.3237   24.1934 N   0  0  0  0  0  0  0  0  0  0  0  0
   11.2642   13.9839   21.1168 N   0  0  0  0  0  0  0  0  0  0  0  0
   10.0805    9.3888   22.2676 N   0  3  0  0  0  0  0  0  0  0  0  0
   11.0646    8.8925   22.8641 O   0  5  0  0  0  0  0  0  0  0  0  0
    9.5866    8.8662   21.2410 O   0  0  0  0  0  0  0  0  0  0  0  0
    9.0087   15.1878   21.4471 O   0  0  0  0  0  0  0  0  0  0  0  0
   10.7070   15.2191   23.3078 O   0  0  0  0  0  0  0  0  0  0  0  0
    7.8588   14.1171   24.2145 O   0  0  0  0  0  0  0  0  0  0  0  0
   10.0623   14.5265   22.2023 S   0  0  0  0  0  0  0  0  0  0  0  0
    7.1213   11.7196   24.9242 H   0  0  0  0  0  0  0  0  0  0  0  0
   10.7911   11.8434   21.5815 H   0  0  0  0  0  0  0  0  0  0  0  0
    6.4014   15.5649   23.9928 H   0  0  0  0  0  0  0  0  0  0  0  0
    5.9362   13.9112   23.4858 H   0  0  0  0  0  0  0  0  0  0  0  0
    7.0483   14.8769   22.4804 H   0  0  0  0  0  0  0  0  0  0  0  0
    8.3234    8.4708   23.8170 H   0  0  0  0  0  0  0  0  0  0  0  0
    7.1963    9.3330   24.8295 H   0  0  0  0  0  0  0  0  0  0  0  0
   11.0889   14.0934   20.1105 H   0  0  0  0  0  0  0  0  0  0  0  0
   12.2477   14.1136   21.3834 H   0  0  0  0  0  0  0  0  0  0  0  0
  1  3  2  0  0  0  0
  1  5  1  0  0  0  0
  2  4  2  0  0  0  0
  2  6  1  0  0  0  0
  3  4  1  0  0  0  0
  3  8  1  0  0  0  0
  4 10  1  0  0  0  0
  5  6  2  0  0  0  0
  5 15  1  0  0  0  0
  6 16  1  0  0  0  0
  7 15  1  0  0  0  0
  9 16  1  0  0  0  0
 10 11  1  0  0  0  0
 10 12  2  0  0  0  0
 13 16  2  0  0  0  0
 14 16  2  0  0  0  0
  1 17  1  0  0  0  0
  2 18  1  0  0  0  0
  7 19  1  0  0  0  0
  7 20  1  0  0  0  0
  7 21  1  0  0  0  0
  8 22  1  0  0  0  0
  8 23  1  0  0  0  0
  9 24  1  0  0  0  0
  9 25  1  0  0  0  0
M  CHG  2  10   1  11  -1
M  END
> <Mol Weight>
247,23

> <Formula>
C7H9N3O5S

> <ID>
EN300-27082457

> <name>
Sulfonamides

> <LogP>
0,18

> <ROCS_ShapeQuery>
x0446_0A_x1080_0A_x0929_0A_x0812_0A_x0719_0A_x1140_0A_x0528_0A_x0310_0A

> <ROCS_TanimotoCombo>
0.335 

> <ROCS_ShapeTanimoto>
0.211 

> <ROCS_ColorTanimoto>
0.124 

> <ROCS_RefTversky>
0.193 

> <ROCS_RefColorTversky>
0.143 

> <ROCS_RefTverskyCombo>
0.336 

> <ROCS_FitTversky>
1.787 

> <ROCS_FitColorTversky>
0.489 

> <ROCS_FitTverskyCombo>
2.276 

> <ROCS_ColorScore>
-5.101

> <ROCS_Overlap>
2281.627

> <ROCS_Rank>
311                 

$$$$
untitled-dbase-1119_0
  -OEChem-02082415043D

 22 23  0     0  0  0  0  0  0999 V2000
   11.7824   10.8184   22.6960 C   0  0  0  0  0  0  0  0  0  0  0  0
    7.1530   11.9192   24.2945 C   0  0  0  0  0  0  0  0  0  0  0  0
    8.1906   12.6835   23.7805 C   0  0  0  0  0  0  0  0  0  0  0  0
   10.7187   10.0771   23.2164 C   0  0  0  0  0  0  0  0  0  0  0  0
   11.6575   12.1924   22.5322 C   0  0  0  0  0  0  0  0  0  0  0  0
    7.3637   10.5613   24.4233 C   0  0  0  0  0  0  0  0  0  0  0  0
    9.3986   12.0757   23.4128 C   0  0  0  0  0  0  0  0  0  0  0  0
    9.5185   10.6804   23.5820 C   0  0  0  0  0  0  0  0  0  0  0  0
   10.4684   12.8216   22.8894 C   0  0  0  0  0  0  0  0  0  0  0  0
    8.5132    9.9361   24.0806 N   0  0  0  0  0  0  0  0  0  0  0  0
   11.9476   14.8599   22.0166 N   0  0  0  0  0  0  0  0  0  0  0  0
    9.3991   14.8323   21.6296 O   0  0  0  0  0  0  0  0  0  0  0  0
   10.2885   15.1894   23.9597 O   0  0  0  0  0  0  0  0  0  0  0  0
   10.3930   14.5608   22.6540 S   0  0  0  0  0  0  0  0  0  0  0  0
   12.7066   10.3191   22.4200 H   0  0  0  0  0  0  0  0  0  0  0  0
    6.2120   12.3720   24.5843 H   0  0  0  0  0  0  0  0  0  0  0  0
    8.0272   13.7526   23.6780 H   0  0  0  0  0  0  0  0  0  0  0  0
   10.8407    9.0020   23.3354 H   0  0  0  0  0  0  0  0  0  0  0  0
   12.4916   12.7593   22.1278 H   0  0  0  0  0  0  0  0  0  0  0  0
    6.5882    9.9140   24.8195 H   0  0  0  0  0  0  0  0  0  0  0  0
   12.0196   15.1053   21.0216 H   0  0  0  0  0  0  0  0  0  0  0  0
   12.6262   15.3472   22.6145 H   0  0  0  0  0  0  0  0  0  0  0  0
  1  4  1  0  0  0  0
  1  5  2  0  0  0  0
  2  3  2  0  0  0  0
  2  6  1  0  0  0  0
  3  7  1  0  0  0  0
  4  8  2  0  0  0  0
  5  9  1  0  0  0  0
  6 10  2  0  0  0  0
  7  8  1  0  0  0  0
  7  9  2  0  0  0  0
  8 10  1  0  0  0  0
  9 14  1  0  0  0  0
 11 14  1  0  0  0  0
 12 14  2  0  0  0  0
 13 14  2  0  0  0  0
  1 15  1  0  0  0  0
  2 16  1  0  0  0  0
  3 17  1  0  0  0  0
  4 18  1  0  0  0  0
  5 19  1  0  0  0  0
  6 20  1  0  0  0  0
 11 21  1  0  0  0  0
 11 22  1  0  0  0  0
M  END
> <Mol Weight>
208,24

> <Formula>
C9H8N2O2S

> <ID>
EN300-65094

> <name>
Sulfonamides

> <LogP>
0,74

> <ROCS_ShapeQuery>
x0446_0A_x1080_0A_x0929_0A_x0812_0A_x0719_0A_x1140_0A_x0528_0A_x0310_0A

> <ROCS_TanimotoCombo>
0.335 

> <ROCS_ShapeTanimoto>
0.205 

> <ROCS_ColorTanimoto>
0.130 

> <ROCS_RefTversky>
0.187 

> <ROCS_RefColorTversky>
0.140 

> <ROCS_RefTverskyCombo>
0.327 

> <ROCS_FitTversky>
1.832 

> <ROCS_FitColorTversky>
0.659 

> <ROCS_FitTverskyCombo>
2.491 

> <ROCS_ColorScore>
-4.986

> <ROCS_Overlap>
2211.329

> <ROCS_Rank>
312                 

$$$$
untitled-dbase-2205_3
  -OEChem-02082415043D

 22 22  0     0  0  0  0  0  0999 V2000
    8.3854   12.7883   24.0564 C   0  0  0  0  0  0  0  0  0  0  0  0
    9.6664   11.4750   22.4844 C   0  0  0  0  0  0  0  0  0  0  0  0
    8.1391   10.3855   24.0066 C   0  0  0  0  0  0  0  0  0  0  0  0
    7.7942   11.6243   24.5472 C   0  0  0  0  0  0  0  0  0  0  0  0
    9.3216   12.7137   23.0250 C   0  0  0  0  0  0  0  0  0  0  0  0
    9.0752   10.3109   22.9752 C   0  0  0  0  0  0  0  0  0  0  0  0
    7.4989    9.1394   24.5386 C   0  0  0  0  0  0  0  0  0  0  0  0
   11.0881   13.5311   21.2039 N   0  0  0  0  0  0  0  0  0  0  0  0
    6.8428   11.7280   25.5998 N   0  3  0  0  0  0  0  0  0  0  0  0
    5.6317   11.8703   25.3095 O   0  5  0  0  0  0  0  0  0  0  0  0
    7.2444   11.6745   26.7861 O   0  0  0  0  0  0  0  0  0  0  0  0
    9.0282   14.9743   21.7691 O   0  0  0  0  0  0  0  0  0  0  0  0
   10.8810   14.7537   23.4620 O   0  0  0  0  0  0  0  0  0  0  0  0
   10.0604   14.1713   22.4094 S   0  0  0  0  0  0  0  0  0  0  0  0
    9.5302    8.7979   22.2785 Cl  0  0  0  0  0  0  0  0  0  0  0  0
    8.1176   13.7564   24.4747 H   0  0  0  0  0  0  0  0  0  0  0  0
   10.3970   11.4231   21.6803 H   0  0  0  0  0  0  0  0  0  0  0  0
    6.5842    8.9198   23.9793 H   0  0  0  0  0  0  0  0  0  0  0  0
    8.1782    8.2844   24.4556 H   0  0  0  0  0  0  0  0  0  0  0  0
    7.2473    9.2508   25.5988 H   0  0  0  0  0  0  0  0  0  0  0  0
   10.8358   13.6909   20.2210 H   0  0  0  0  0  0  0  0  0  0  0  0
   12.1003   13.5392   21.3794 H   0  0  0  0  0  0  0  0  0  0  0  0
  1  4  1  0  0  0  0
  1  5  2  0  0  0  0
  2  5  1  0  0  0  0
  2  6  2  0  0  0  0
  3  4  2  0  0  0  0
  3  6  1  0  0  0  0
  3  7  1  0  0  0  0
  4  9  1  0  0  0  0
  5 14  1  0  0  0  0
  6 15  1  0  0  0  0
  8 14  1  0  0  0  0
  9 10  1  0  0  0  0
  9 11  2  0  0  0  0
 12 14  2  0  0  0  0
 13 14  2  0  0  0  0
  1 16  1  0  0  0  0
  2 17  1  0  0  0  0
  7 18  1  0  0  0  0
  7 19  1  0  0  0  0
  7 20  1  0  0  0  0
  8 21  1  0  0  0  0
  8 22  1  0  0  0  0
M  CHG  2   9   1  10  -1
M  END
> <Mol Weight>
250,65

> <Formula>
C7H7ClN2O4S

> <ID>
EN300-39744

> <name>
Sulfonamides

> <LogP>
1,64

> <ROCS_ShapeQuery>
x0446_0A_x1080_0A_x0929_0A_x0812_0A_x0719_0A_x1140_0A_x0528_0A_x0310_0A

> <ROCS_TanimotoCombo>
0.335 

> <ROCS_ShapeTanimoto>
0.198 

> <ROCS_ColorTanimoto>
0.137 

> <ROCS_RefTversky>
0.182 

> <ROCS_RefColorTversky>
0.147 

> <ROCS_RefTverskyCombo>
0.329 

> <ROCS_FitTversky>
1.762 

> <ROCS_FitColorTversky>
0.689 

> <ROCS_FitTverskyCombo>
2.451 

> <ROCS_ColorScore>
-5.223

> <ROCS_Overlap>
2150.088

> <ROCS_Rank>
313                 

$$$$
untitled-dbase-811_35
  -OEChem-02082415043D

 26 26  0     0  0  0  0  0  0999 V2000
    8.0312   10.4950   24.6225 C   0  0  0  0  0  0  0  0  0  0  0  0
    8.8609   10.0348   23.6002 C   0  0  0  0  0  0  0  0  0  0  0  0
    7.9424   11.8618   24.8867 C   0  0  0  0  0  0  0  0  0  0  0  0
    9.5132   12.3080   23.1062 C   0  0  0  0  0  0  0  0  0  0  0  0
    9.6020   10.9413   22.8420 C   0  0  0  0  0  0  0  0  0  0  0  0
    8.6834   12.7683   24.1286 C   0  0  0  0  0  0  0  0  0  0  0  0
   10.4878   10.4485   21.7480 C   0  0  0  0  0  0  0  0  0  0  0  0
    8.5889   14.2297   24.4117 C   0  0  0  0  0  0  0  0  0  0  0  0
    7.4882   14.9385   23.6178 C   0  0  0  0  0  0  0  0  0  0  0  0
    6.3316   15.6506   21.3361 N   0  0  0  0  0  0  0  0  0  0  0  0
    8.8938   15.4765   21.4820 O   0  0  0  0  0  0  0  0  0  0  0  0
    7.5018   13.3681   21.5295 O   0  0  0  0  0  0  0  0  0  0  0  0
    7.6877   14.7673   21.8721 S   0  0  0  0  0  0  0  0  0  0  0  0
    7.4541    9.7891   25.2128 H   0  0  0  0  0  0  0  0  0  0  0  0
    8.9233    8.9680   23.4012 H   0  0  0  0  0  0  0  0  0  0  0  0
    7.2939   12.2113   25.6858 H   0  0  0  0  0  0  0  0  0  0  0  0
   10.0899   13.0153   22.5149 H   0  0  0  0  0  0  0  0  0  0  0  0
    9.9357   10.4016   20.8014 H   0  0  0  0  0  0  0  0  0  0  0  0
   11.3564   11.1057   21.6121 H   0  0  0  0  0  0  0  0  0  0  0  0
   10.8791    9.4476   21.9726 H   0  0  0  0  0  0  0  0  0  0  0  0
    9.5503   14.7134   24.1667 H   0  0  0  0  0  0  0  0  0  0  0  0
    8.4355   14.4176   25.4885 H   0  0  0  0  0  0  0  0  0  0  0  0
    6.5094   14.5072   23.8512 H   0  0  0  0  0  0  0  0  0  0  0  0
    7.4523   16.0106   23.8339 H   0  0  0  0  0  0  0  0  0  0  0  0
    6.4994   16.5611   20.8906 H   0  0  0  0  0  0  0  0  0  0  0  0
    5.5513   15.1251   20.9231 H   0  0  0  0  0  0  0  0  0  0  0  0
  1  2  2  0  0  0  0
  1  3  1  0  0  0  0
  2  5  1  0  0  0  0
  3  6  2  0  0  0  0
  4  5  2  0  0  0  0
  4  6  1  0  0  0  0
  5  7  1  0  0  0  0
  6  8  1  0  0  0  0
  8  9  1  0  0  0  0
  9 13  1  0  0  0  0
 10 13  1  0  0  0  0
 11 13  2  0  0  0  0
 12 13  2  0  0  0  0
  1 14  1  0  0  0  0
  2 15  1  0  0  0  0
  3 16  1  0  0  0  0
  4 17  1  0  0  0  0
  7 18  1  0  0  0  0
  7 19  1  0  0  0  0
  7 20  1  0  0  0  0
  8 21  1  0  0  0  0
  8 22  1  0  0  0  0
  9 23  1  0  0  0  0
  9 24  1  0  0  0  0
 10 25  1  0  0  0  0
 10 26  1  0  0  0  0
M  END
> <Mol Weight>
199,27

> <Formula>
C9H13NO2S

> <ID>
EN300-283874

> <name>
Sulfonamides

> <LogP>
1,14

> <ROCS_ShapeQuery>
x0446_0A_x1080_0A_x0929_0A_x0812_0A_x0719_0A_x1140_0A_x0528_0A_x0310_0A

> <ROCS_TanimotoCombo>
0.335 

> <ROCS_ShapeTanimoto>
0.184 

> <ROCS_ColorTanimoto>
0.151 

> <ROCS_RefTversky>
0.170 

> <ROCS_RefColorTversky>
0.152 

> <ROCS_RefTverskyCombo>
0.323 

> <ROCS_FitTversky>
1.789 

> <ROCS_FitColorTversky>
0.956 

> <ROCS_FitTverskyCombo>
2.745 

> <ROCS_ColorScore>
-5.413

> <ROCS_Overlap>
2006.544

> <ROCS_Rank>
314                 

$$$$
untitled-dbase-1180_9
  -OEChem-02082415043D

 27 28  0     1  0  0  0  0  0999 V2000
    6.4756   11.8527   26.0234 C   0  0  0  0  0  0  0  0  0  0  0  0
    5.5829   12.4532   25.1412 C   0  0  0  0  0  0  0  0  0  0  0  0
    7.7490   11.4908   25.5856 C   0  0  0  0  0  0  0  0  0  0  0  0
    5.9650   12.6959   23.8224 C   0  0  0  0  0  0  0  0  0  0  0  0
    8.1426   11.7209   24.2581 C   0  0  0  0  0  0  0  0  0  0  0  0
    7.2475   12.3458   23.3719 C   0  0  0  0  0  0  0  0  0  0  0  0
    9.5409   11.3461   23.8390 C   0  0  0  0  0  0  0  0  0  0  0  0
    7.6053   12.5964   21.9270 C   0  0  0  0  0  0  0  0  0  0  0  0
    9.7412   11.3212   22.3239 C   0  0  0  0  0  0  0  0  0  0  0  0
    9.1042   12.5221   21.6315 C   0  0  2  0  0  0  0  0  0  0  0  0
   11.3363   13.8621   21.1089 N   0  0  0  0  0  0  0  0  0  0  0  0
    9.1368   15.1322   21.5160 O   0  0  0  0  0  0  0  0  0  0  0  0
   10.2816   13.9805   23.4521 O   0  0  0  0  0  0  0  0  0  0  0  0
    9.9262   14.0388   22.0479 S   0  0  0  0  0  0  0  0  0  0  0  0
    6.1818   11.6655   27.0520 H   0  0  0  0  0  0  0  0  0  0  0  0
    4.5896   12.7333   25.4795 H   0  0  0  0  0  0  0  0  0  0  0  0
    8.4380   11.0270   26.2876 H   0  0  0  0  0  0  0  0  0  0  0  0
    5.2546   13.1614   23.1433 H   0  0  0  0  0  0  0  0  0  0  0  0
   10.2378   12.0629   24.2902 H   0  0  0  0  0  0  0  0  0  0  0  0
    9.7927   10.3559   24.2384 H   0  0  0  0  0  0  0  0  0  0  0  0
    7.0924   11.8302   21.3308 H   0  0  0  0  0  0  0  0  0  0  0  0
    7.2117   13.5713   21.6139 H   0  0  0  0  0  0  0  0  0  0  0  0
   10.8135   11.2679   22.1011 H   0  0  0  0  0  0  0  0  0  0  0  0
    9.2907   10.4047   21.9202 H   0  0  0  0  0  0  0  0  0  0  0  0
    9.2467   12.4295   20.5479 H   0  0  0  0  0  0  0  0  0  0  0  0
   11.4401   14.4621   20.2813 H   0  0  0  0  0  0  0  0  0  0  0  0
   12.2197   13.6775   21.5999 H   0  0  0  0  0  0  0  0  0  0  0  0
  1  2  1  0  0  0  0
  1  3  2  0  0  0  0
  2  4  2  0  0  0  0
  3  5  1  0  0  0  0
  4  6  1  0  0  0  0
  5  6  2  0  0  0  0
  5  7  1  0  0  0  0
  6  8  1  0  0  0  0
  7  9  1  0  0  0  0
  8 10  1  0  0  0  0
  9 10  1  0  0  0  0
 10 14  1  0  0  0  0
 11 14  1  0  0  0  0
 12 14  2  0  0  0  0
 13 14  2  0  0  0  0
  1 15  1  0  0  0  0
  2 16  1  0  0  0  0
  3 17  1  0  0  0  0
  4 18  1  0  0  0  0
  7 19  1  0  0  0  0
  7 20  1  0  0  0  0
  8 21  1  0  0  0  0
  8 22  1  0  0  0  0
  9 23  1  0  0  0  0
  9 24  1  0  0  0  0
 10 25  1  0  0  0  0
 11 26  1  0  0  0  0
 11 27  1  0  0  0  0
M  END
> <Mol Weight>
211,28

> <Formula>
C10H13NO2S

> <ID>
EN300-274043

> <name>
Sulfonamides

> <LogP>
1,33

> <ROCS_ShapeQuery>
x0446_0A_x1080_0A_x0929_0A_x0812_0A_x0719_0A_x1140_0A_x0528_0A_x0310_0A

> <ROCS_TanimotoCombo>
0.335 

> <ROCS_ShapeTanimoto>
0.174 

> <ROCS_ColorTanimoto>
0.162 

> <ROCS_RefTversky>
0.163 

> <ROCS_RefColorTversky>
0.165 

> <ROCS_RefTverskyCombo>
0.328 

> <ROCS_FitTversky>
1.623 

> <ROCS_FitColorTversky>
0.887 

> <ROCS_FitTverskyCombo>
2.510 

> <ROCS_ColorScore>
-5.871

> <ROCS_Overlap>
1919.013

> <ROCS_Rank>
315                 

$$$$
untitled-dbase-1851_46
  -OEChem-02082415043D

 24 24  0     0  0  0  0  0  0999 V2000
    8.4787   12.9419   24.1113 C   0  0  0  0  0  0  0  0  0  0  0  0
    8.1526   10.5482   24.1371 C   0  0  0  0  0  0  0  0  0  0  0  0
    9.6448   11.5468   22.5205 C   0  0  0  0  0  0  0  0  0  0  0  0
    7.8726   11.8112   24.6588 C   0  0  0  0  0  0  0  0  0  0  0  0
    9.3647   12.8097   23.0421 C   0  0  0  0  0  0  0  0  0  0  0  0
    9.0387   10.4160   23.0679 C   0  0  0  0  0  0  0  0  0  0  0  0
    5.1000   12.9663   24.7258 C   0  0  0  0  0  0  0  0  0  0  0  0
    6.9264   11.9529   25.8029 C   0  0  0  0  0  0  0  0  0  0  0  0
   11.0750   13.5216   21.1256 N   0  0  0  0  0  0  0  0  0  0  0  0
    9.0925   15.0489   21.7439 O   0  0  0  0  0  0  0  0  0  0  0  0
   11.0104   14.8037   23.3592 O   0  0  0  0  0  0  0  0  0  0  0  0
    5.5933   11.7825   25.3372 O   0  0  0  0  0  0  0  0  0  0  0  0
   10.1243   14.2254   22.3586 S   0  0  0  0  0  0  0  0  0  0  0  0
    9.3862    8.8576   22.4260 Cl  0  0  0  0  0  0  0  0  0  0  0  0
    8.2594   13.9258   24.5197 H   0  0  0  0  0  0  0  0  0  0  0  0
    7.6781    9.6698   24.5683 H   0  0  0  0  0  0  0  0  0  0  0  0
   10.3352   11.4475   21.6860 H   0  0  0  0  0  0  0  0  0  0  0  0
    4.0766   12.7999   24.3808 H   0  0  0  0  0  0  0  0  0  0  0  0
    5.7408   13.2361   23.8825 H   0  0  0  0  0  0  0  0  0  0  0  0
    5.1076   13.7753   25.4600 H   0  0  0  0  0  0  0  0  0  0  0  0
    7.1244   11.2040   26.5819 H   0  0  0  0  0  0  0  0  0  0  0  0
    7.0134   12.9437   26.2693 H   0  0  0  0  0  0  0  0  0  0  0  0
   10.7847   13.6669   20.1509 H   0  0  0  0  0  0  0  0  0  0  0  0
   12.0937   13.4985   21.2563 H   0  0  0  0  0  0  0  0  0  0  0  0
  1  4  2  0  0  0  0
  1  5  1  0  0  0  0
  2  4  1  0  0  0  0
  2  6  2  0  0  0  0
  3  5  2  0  0  0  0
  3  6  1  0  0  0  0
  4  8  1  0  0  0  0
  5 13  1  0  0  0  0
  6 14  1  0  0  0  0
  7 12  1  0  0  0  0
  8 12  1  0  0  0  0
  9 13  1  0  0  0  0
 10 13  2  0  0  0  0
 11 13  2  0  0  0  0
  1 15  1  0  0  0  0
  2 16  1  0  0  0  0
  3 17  1  0  0  0  0
  7 18  1  0  0  0  0
  7 19  1  0  0  0  0
  7 20  1  0  0  0  0
  8 21  1  0  0  0  0
  8 22  1  0  0  0  0
  9 23  1  0  0  0  0
  9 24  1  0  0  0  0
M  END
> <Mol Weight>
235,68

> <Formula>
C8H10ClNO3S

> <ID>
EN300-218023

> <name>
Sulfonamides

> <LogP>
1,06

> <ROCS_ShapeQuery>
x0446_0A_x1080_0A_x0929_0A_x0812_0A_x0719_0A_x1140_0A_x0528_0A_x0310_0A

> <ROCS_TanimotoCombo>
0.335 

> <ROCS_ShapeTanimoto>
0.194 

> <ROCS_ColorTanimoto>
0.141 

> <ROCS_RefTversky>
0.178 

> <ROCS_RefColorTversky>
0.147 

> <ROCS_RefTverskyCombo>
0.325 

> <ROCS_FitTversky>
1.810 

> <ROCS_FitColorTversky>
0.790 

> <ROCS_FitTverskyCombo>
2.600 

> <ROCS_ColorScore>
-5.223

> <ROCS_Overlap>
2103.044

> <ROCS_Rank>
316                 

$$$$
untitled-dbase-2642_30
  -OEChem-02082415043D

 27 27  0     0  0  0  0  0  0999 V2000
    7.5502   12.6082   24.1843 C   0  0  0  0  0  0  0  0  0  0  0  0
    8.3377   10.3274   24.0618 C   0  0  0  0  0  0  0  0  0  0  0  0
    9.6190   12.1042   23.0428 C   0  0  0  0  0  0  0  0  0  0  0  0
    7.3856   11.2557   24.4831 C   0  0  0  0  0  0  0  0  0  0  0  0
    8.6669   13.0324   23.4641 C   0  0  0  0  0  0  0  0  0  0  0  0
    9.4544   10.7517   23.3416 C   0  0  0  0  0  0  0  0  0  0  0  0
   10.7636   12.6233   20.8873 C   0  0  0  0  0  0  0  0  0  0  0  0
   11.5226   14.9692   23.6462 C   0  0  0  0  0  0  0  0  0  0  0  0
   10.7502   12.5404   22.3123 N   0  0  0  0  0  0  0  0  0  0  0  0
   10.1434   15.1930   24.1028 N   0  0  0  0  0  0  0  0  0  0  0  0
    6.2483   10.8239   25.2158 N   0  3  0  0  0  0  0  0  0  0  0  0
    5.4037   11.6753   25.5849 O   0  5  0  0  0  0  0  0  0  0  0  0
    6.1194    9.6029   25.4744 O   0  0  0  0  0  0  0  0  0  0  0  0
    9.2267   14.8864   21.7149 O   0  0  0  0  0  0  0  0  0  0  0  0
    7.6293   15.4055   23.5866 O   0  0  0  0  0  0  0  0  0  0  0  0
    8.8313   14.7398   23.1080 S   0  0  0  0  0  0  0  0  0  0  0  0
   10.6070    9.5656   22.8401 Cl  0  0  0  0  0  0  0  0  0  0  0  0
    6.8068   13.3321   24.5117 H   0  0  0  0  0  0  0  0  0  0  0  0
    8.2073    9.2728   24.2967 H   0  0  0  0  0  0  0  0  0  0  0  0
    9.7878   12.3048   20.4918 H   0  0  0  0  0  0  0  0  0  0  0  0
   10.9616   13.6614   20.5824 H   0  0  0  0  0  0  0  0  0  0  0  0
   11.5521   11.9675   20.4895 H   0  0  0  0  0  0  0  0  0  0  0  0
   11.5478   14.9567   22.5466 H   0  0  0  0  0  0  0  0  0  0  0  0
   12.1678   15.7786   24.0185 H   0  0  0  0  0  0  0  0  0  0  0  0
   11.8846   14.0048   24.0322 H   0  0  0  0  0  0  0  0  0  0  0  0
   11.5586   12.7931   22.8444 H   0  0  0  0  0  0  0  0  0  0  0  0
   10.0049   15.2229   25.1203 H   0  0  0  0  0  0  0  0  0  0  0  0
  1  4  2  0  0  0  0
  1  5  1  0  0  0  0
  2  4  1  0  0  0  0
  2  6  2  0  0  0  0
  3  5  2  0  0  0  0
  3  6  1  0  0  0  0
  3  9  1  0  0  0  0
  4 11  1  0  0  0  0
  5 16  1  0  0  0  0
  6 17  1  0  0  0  0
  7  9  1  0  0  0  0
  8 10  1  0  0  0  0
 10 16  1  0  0  0  0
 11 12  1  0  0  0  0
 11 13  2  0  0  0  0
 14 16  2  0  0  0  0
 15 16  2  0  0  0  0
  1 18  1  0  0  0  0
  2 19  1  0  0  0  0
  7 20  1  0  0  0  0
  7 21  1  0  0  0  0
  7 22  1  0  0  0  0
  8 23  1  0  0  0  0
  8 24  1  0  0  0  0
  8 25  1  0  0  0  0
  9 26  1  0  0  0  0
 10 27  1  0  0  0  0
M  CHG  2  11   1  12  -1
M  END
> <Mol Weight>
279,70

> <Formula>
C8H10ClN3O4S

> <ID>
EN300-199277

> <name>
Sulfonamides

> <LogP>
0,82

> <ROCS_ShapeQuery>
x0446_0A_x1080_0A_x0929_0A_x0812_0A_x0719_0A_x1140_0A_x0528_0A_x0310_0A

> <ROCS_TanimotoCombo>
0.335 

> <ROCS_ShapeTanimoto>
0.213 

> <ROCS_ColorTanimoto>
0.122 

> <ROCS_RefTversky>
0.195 

> <ROCS_RefColorTversky>
0.135 

> <ROCS_RefTverskyCombo>
0.330 

> <ROCS_FitTversky>
1.765 

> <ROCS_FitColorTversky>
0.565 

> <ROCS_FitTverskyCombo>
2.330 

> <ROCS_ColorScore>
-4.815

> <ROCS_Overlap>
2299.306

> <ROCS_Rank>
317                 

$$$$
untitled-dbase-2721_1917
  -OEChem-02082415043D

 40 40  0     0  0  0  0  0  0999 V2000
    9.7860   11.7005   23.1444 C   0  0  0  0  0  0  0  0  0  0  0  0
    8.9352   10.6093   23.3202 C   0  0  0  0  0  0  0  0  0  0  0  0
    7.5891   11.9054   24.8516 C   0  0  0  0  0  0  0  0  0  0  0  0
    8.4399   12.9967   24.6758 C   0  0  0  0  0  0  0  0  0  0  0  0
    9.5384   12.8943   23.8223 C   0  0  0  0  0  0  0  0  0  0  0  0
    7.8368   10.7117   24.1737 C   0  0  0  0  0  0  0  0  0  0  0  0
    7.3342   14.6524   20.2072 C   0  0  0  0  0  0  0  0  0  0  0  0
    8.2277   14.0894   26.9373 C   0  0  0  0  0  0  0  0  0  0  0  0
    6.8074   14.8874   25.0135 C   0  0  0  0  0  0  0  0  0  0  0  0
    8.8401   14.6172   20.3582 C   0  0  0  0  0  0  0  0  0  0  0  0
   11.0256   14.0519   22.3718 C   0  0  0  0  0  0  0  0  0  0  0  0
   10.6156   15.3535   21.7102 C   0  0  0  0  0  0  0  0  0  0  0  0
    8.1598   14.2667   25.4093 C   0  0  0  0  0  0  0  0  0  0  0  0
    5.6387    9.9901   25.4975 N   0  0  0  0  0  0  0  0  0  0  0  0
    6.0985    9.0801   23.1298 O   0  0  0  0  0  0  0  0  0  0  0  0
    7.5151    8.2816   25.0542 O   0  0  0  0  0  0  0  0  0  0  0  0
   10.3796   13.9504   23.6391 O   0  0  0  0  0  0  0  0  0  0  0  0
    9.2062   15.3524   21.5174 O   0  0  0  0  0  0  0  0  0  0  0  0
    6.7721    9.3454   24.3933 S   0  0  0  0  0  0  0  0  0  0  0  0
   10.6399   11.6141   22.4780 H   0  0  0  0  0  0  0  0  0  0  0  0
    9.1374    9.6841   22.7872 H   0  0  0  0  0  0  0  0  0  0  0  0
    6.7330   11.9864   25.5172 H   0  0  0  0  0  0  0  0  0  0  0  0
    6.8444   14.2022   21.0750 H   0  0  0  0  0  0  0  0  0  0  0  0
    6.9813   15.6830   20.0971 H   0  0  0  0  0  0  0  0  0  0  0  0
    7.0240   14.1119   19.3066 H   0  0  0  0  0  0  0  0  0  0  0  0
    7.4974   13.3535   27.2911 H   0  0  0  0  0  0  0  0  0  0  0  0
    8.0283   15.0322   27.4583 H   0  0  0  0  0  0  0  0  0  0  0  0
    9.2228   13.7437   27.2389 H   0  0  0  0  0  0  0  0  0  0  0  0
    5.9883   14.1944   25.2357 H   0  0  0  0  0  0  0  0  0  0  0  0
    6.7712   15.1170   23.9430 H   0  0  0  0  0  0  0  0  0  0  0  0
    6.6151   15.8177   25.5592 H   0  0  0  0  0  0  0  0  0  0  0  0
    9.3238   15.0689   19.4869 H   0  0  0  0  0  0  0  0  0  0  0  0
    9.1909   13.5868   20.4688 H   0  0  0  0  0  0  0  0  0  0  0  0
   12.1068   14.0166   22.5366 H   0  0  0  0  0  0  0  0  0  0  0  0
   10.7176   13.1984   21.7608 H   0  0  0  0  0  0  0  0  0  0  0  0
   11.0933   15.4667   20.7320 H   0  0  0  0  0  0  0  0  0  0  0  0
   10.8736   16.2046   22.3472 H   0  0  0  0  0  0  0  0  0  0  0  0
    8.9274   15.0216   25.1556 H   0  0  0  0  0  0  0  0  0  0  0  0
    4.6928   10.1949   25.1528 H   0  0  0  0  0  0  0  0  0  0  0  0
    5.6627    9.6502   26.4666 H   0  0  0  0  0  0  0  0  0  0  0  0
  1  2  2  0  0  0  0
  1  5  1  0  0  0  0
  2  6  1  0  0  0  0
  3  4  1  0  0  0  0
  3  6  2  0  0  0  0
  4  5  2  0  0  0  0
  4 13  1  0  0  0  0
  5 17  1  0  0  0  0
  6 19  1  0  0  0  0
  7 10  1  0  0  0  0
  8 13  1  0  0  0  0
  9 13  1  0  0  0  0
 10 18  1  0  0  0  0
 11 12  1  0  0  0  0
 11 17  1  0  0  0  0
 12 18  1  0  0  0  0
 14 19  1  0  0  0  0
 15 19  2  0  0  0  0
 16 19  2  0  0  0  0
  1 20  1  0  0  0  0
  2 21  1  0  0  0  0
  3 22  1  0  0  0  0
  7 23  1  0  0  0  0
  7 24  1  0  0  0  0
  7 25  1  0  0  0  0
  8 26  1  0  0  0  0
  8 27  1  0  0  0  0
  8 28  1  0  0  0  0
  9 29  1  0  0  0  0
  9 30  1  0  0  0  0
  9 31  1  0  0  0  0
 10 32  1  0  0  0  0
 10 33  1  0  0  0  0
 11 34  1  0  0  0  0
 11 35  1  0  0  0  0
 12 36  1  0  0  0  0
 12 37  1  0  0  0  0
 13 38  1  0  0  0  0
 14 39  1  0  0  0  0
 14 40  1  0  0  0  0
M  END
> <Mol Weight>
287,37

> <Formula>
C13H21NO4S

> <ID>
EN300-1086862

> <name>
Sulfonamides

> <LogP>
1,98

> <ROCS_ShapeQuery>
x0446_0A_x1080_0A_x0929_0A_x0812_0A_x0719_0A_x1140_0A_x0528_0A_x0310_0A

> <ROCS_TanimotoCombo>
0.335 

> <ROCS_ShapeTanimoto>
0.198 

> <ROCS_ColorTanimoto>
0.137 

> <ROCS_RefTversky>
0.184 

> <ROCS_RefColorTversky>
0.149 

> <ROCS_RefTverskyCombo>
0.333 

> <ROCS_FitTversky>
1.594 

> <ROCS_FitColorTversky>
0.625 

> <ROCS_FitTverskyCombo>
2.219 

> <ROCS_ColorScore>
-5.320

> <ROCS_Overlap>
2176.075

> <ROCS_Rank>
318                 

$$$$
untitled-dbase-1912_25
  -OEChem-02082415043D

 27 28  0     0  0  0  0  0  0999 V2000
    4.9560   14.7241   24.1547 C   0  0  0  0  0  0  0  0  0  0  0  0
    5.2189   15.2874   22.9061 C   0  0  0  0  0  0  0  0  0  0  0  0
    5.9734   14.0772   24.8562 C   0  0  0  0  0  0  0  0  0  0  0  0
    6.4992   15.2037   22.3588 C   0  0  0  0  0  0  0  0  0  0  0  0
    9.5830   10.2159   23.6955 C   0  0  0  0  0  0  0  0  0  0  0  0
    9.8187   11.5049   24.1120 C   0  0  0  0  0  0  0  0  0  0  0  0
    7.7019   10.9488   24.3699 C   0  0  0  0  0  0  0  0  0  0  0  0
    7.2537   13.9935   24.3090 C   0  0  0  0  0  0  0  0  0  0  0  0
    7.5167   14.5568   23.0603 C   0  0  0  0  0  0  0  0  0  0  0  0
    8.3205   13.2925   25.0852 C   0  0  0  0  0  0  0  0  0  0  0  0
    8.2634    9.8759   23.8584 N   0  0  0  0  0  0  0  0  0  0  0  0
    8.6044   11.9616   24.5409 N   0  0  0  0  0  0  0  0  0  0  0  0
    8.9915   13.0038   21.4735 N   0  0  0  0  0  0  0  0  0  0  0  0
    9.2473   15.5679   21.4003 O   0  0  0  0  0  0  0  0  0  0  0  0
   10.0850   14.3023   23.4113 O   0  0  0  0  0  0  0  0  0  0  0  0
    9.1107   14.4686   22.3435 S   0  0  0  0  0  0  0  0  0  0  0  0
    3.9586   14.7889   24.5800 H   0  0  0  0  0  0  0  0  0  0  0  0
    4.4264   15.7901   22.3595 H   0  0  0  0  0  0  0  0  0  0  0  0
    5.7579   13.6418   25.8283 H   0  0  0  0  0  0  0  0  0  0  0  0
    6.6909   15.6463   21.3847 H   0  0  0  0  0  0  0  0  0  0  0  0
   10.2965    9.5154   23.2866 H   0  0  0  0  0  0  0  0  0  0  0  0
   10.7120   12.1132   24.1389 H   0  0  0  0  0  0  0  0  0  0  0  0
    6.6581   11.0505   24.6337 H   0  0  0  0  0  0  0  0  0  0  0  0
    9.2627   13.8617   25.0875 H   0  0  0  0  0  0  0  0  0  0  0  0
    8.0400   13.1689   26.1425 H   0  0  0  0  0  0  0  0  0  0  0  0
    8.9432   13.0554   20.4486 H   0  0  0  0  0  0  0  0  0  0  0  0
    9.5141   12.1918   21.8241 H   0  0  0  0  0  0  0  0  0  0  0  0
  1  2  1  0  0  0  0
  1  3  2  0  0  0  0
  2  4  2  0  0  0  0
  3  8  1  0  0  0  0
  4  9  1  0  0  0  0
  5  6  2  0  0  0  0
  5 11  1  0  0  0  0
  6 12  1  0  0  0  0
  7 11  2  0  0  0  0
  7 12  1  0  0  0  0
  8  9  2  0  0  0  0
  8 10  1  0  0  0  0
  9 16  1  0  0  0  0
 10 12  1  0  0  0  0
 13 16  1  0  0  0  0
 14 16  2  0  0  0  0
 15 16  2  0  0  0  0
  1 17  1  0  0  0  0
  2 18  1  0  0  0  0
  3 19  1  0  0  0  0
  4 20  1  0  0  0  0
  5 21  1  0  0  0  0
  6 22  1  0  0  0  0
  7 23  1  0  0  0  0
 10 24  1  0  0  0  0
 10 25  1  0  0  0  0
 13 26  1  0  0  0  0
 13 27  1  0  0  0  0
M  END
> <Mol Weight>
237,28

> <Formula>
C10H11N3O2S

> <ID>
EN300-125404

> <name>
Sulfonamides

> <LogP>
0,41

> <ROCS_ShapeQuery>
x0446_0A_x1080_0A_x0929_0A_x0812_0A_x0719_0A_x1140_0A_x0528_0A_x0310_0A

> <ROCS_TanimotoCombo>
0.335 

> <ROCS_ShapeTanimoto>
0.199 

> <ROCS_ColorTanimoto>
0.136 

> <ROCS_RefTversky>
0.184 

> <ROCS_RefColorTversky>
0.148 

> <ROCS_RefTverskyCombo>
0.332 

> <ROCS_FitTversky>
1.687 

> <ROCS_FitColorTversky>
0.621 

> <ROCS_FitTverskyCombo>
2.309 

> <ROCS_ColorScore>
-5.290

> <ROCS_Overlap>
2170.317

> <ROCS_Rank>
319                 

$$$$
untitled-dbase-2169_6
  -OEChem-02082415043D

 23 23  0     0  0  0  0  0  0999 V2000
    7.7428   11.5619   24.1452 C   0  0  0  0  0  0  0  0  0  0  0  0
    8.1517   10.3637   23.5599 C   0  0  0  0  0  0  0  0  0  0  0  0
    9.7488   11.5698   22.2065 C   0  0  0  0  0  0  0  0  0  0  0  0
    8.3369   12.7642   23.7612 C   0  0  0  0  0  0  0  0  0  0  0  0
    9.3399   12.7681   22.7919 C   0  0  0  0  0  0  0  0  0  0  0  0
    9.1547   10.3676   22.5905 C   0  0  0  0  0  0  0  0  0  0  0  0
    7.8831   13.9951   24.3945 C   0  0  0  0  0  0  0  0  0  0  0  0
    8.5805   15.8510   25.7180 C   0  0  0  0  0  0  0  0  0  0  0  0
   11.2153   13.6653   21.1237 N   0  0  0  0  0  0  0  0  0  0  0  0
    6.7217   14.4177   24.3459 O   0  0  0  0  0  0  0  0  0  0  0  0
    9.1151   15.0777   21.6135 O   0  0  0  0  0  0  0  0  0  0  0  0
   10.8564   14.7930   23.4120 O   0  0  0  0  0  0  0  0  0  0  0  0
    8.9029   14.6256   25.0516 O   0  0  0  0  0  0  0  0  0  0  0  0
   10.1106   14.2560   22.2843 S   0  0  0  0  0  0  0  0  0  0  0  0
    9.6586    8.8889   21.8687 Cl  0  0  0  0  0  0  0  0  0  0  0  0
    6.9599   11.5457   24.8994 H   0  0  0  0  0  0  0  0  0  0  0  0
    7.6799    9.4346   23.8693 H   0  0  0  0  0  0  0  0  0  0  0  0
   10.5311   11.5749   21.4510 H   0  0  0  0  0  0  0  0  0  0  0  0
    9.4758   16.2507   26.2006 H   0  0  0  0  0  0  0  0  0  0  0  0
    7.8028   15.6677   26.4636 H   0  0  0  0  0  0  0  0  0  0  0  0
    8.2143   16.5704   24.9817 H   0  0  0  0  0  0  0  0  0  0  0  0
   11.0258   13.8649   20.1339 H   0  0  0  0  0  0  0  0  0  0  0  0
   12.2140   13.6692   21.3642 H   0  0  0  0  0  0  0  0  0  0  0  0
  1  2  2  0  0  0  0
  1  4  1  0  0  0  0
  2  6  1  0  0  0  0
  3  5  1  0  0  0  0
  3  6  2  0  0  0  0
  4  5  2  0  0  0  0
  4  7  1  0  0  0  0
  5 14  1  0  0  0  0
  6 15  1  0  0  0  0
  7 10  2  0  0  0  0
  7 13  1  0  0  0  0
  8 13  1  0  0  0  0
  9 14  1  0  0  0  0
 11 14  2  0  0  0  0
 12 14  2  0  0  0  0
  1 16  1  0  0  0  0
  2 17  1  0  0  0  0
  3 18  1  0  0  0  0
  8 19  1  0  0  0  0
  8 20  1  0  0  0  0
  8 21  1  0  0  0  0
  9 22  1  0  0  0  0
  9 23  1  0  0  0  0
M  END
> <Mol Weight>
249,67

> <Formula>
C8H8ClNO4S

> <ID>
EN300-201099

> <name>
Sulfonamides

> <LogP>
1,19

> <ROCS_ShapeQuery>
x0446_0A_x1080_0A_x0929_0A_x0812_0A_x0719_0A_x1140_0A_x0528_0A_x0310_0A

> <ROCS_TanimotoCombo>
0.335 

> <ROCS_ShapeTanimoto>
0.191 

> <ROCS_ColorTanimoto>
0.143 

> <ROCS_RefTversky>
0.177 

> <ROCS_RefColorTversky>
0.149 

> <ROCS_RefTverskyCombo>
0.326 

> <ROCS_FitTversky>
1.713 

> <ROCS_FitColorTversky>
0.800 

> <ROCS_FitTverskyCombo>
2.513 

> <ROCS_ColorScore>
-5.290

> <ROCS_Overlap>
2091.710

> <ROCS_Rank>
320                 

$$$$
untitled-dbase-1667_2
  -OEChem-02082415043D

 23 24  0     0  0  0  0  0  0999 V2000
    8.8823    9.7196   23.6360 C   0  0  0  0  0  0  0  0  0  0  0  0
    7.6022    9.9443   24.1437 C   0  0  0  0  0  0  0  0  0  0  0  0
    9.7187   10.7977   23.3442 C   0  0  0  0  0  0  0  0  0  0  0  0
    8.0001   12.3250   24.0773 C   0  0  0  0  0  0  0  0  0  0  0  0
    7.1648   11.2491   24.3734 C   0  0  0  0  0  0  0  0  0  0  0  0
    9.2772   12.1037   23.5582 C   0  0  0  0  0  0  0  0  0  0  0  0
    6.3227   13.8945   24.8433 C   0  0  0  0  0  0  0  0  0  0  0  0
    5.6372   12.6692   25.4232 C   0  0  0  0  0  0  0  0  0  0  0  0
    7.5408   13.6334   24.2600 N   0  0  0  0  0  0  0  0  0  0  0  0
   11.7173   12.5353   22.5761 N   0  0  0  0  0  0  0  0  0  0  0  0
    5.8487   15.0223   24.9640 O   0  0  0  0  0  0  0  0  0  0  0  0
    9.7865   14.1584   22.0441 O   0  0  0  0  0  0  0  0  0  0  0  0
   10.7396   14.0982   24.3755 O   0  0  0  0  0  0  0  0  0  0  0  0
    5.8861   11.4108   24.8269 O   0  0  0  0  0  0  0  0  0  0  0  0
   10.3685   13.4121   23.1482 S   0  0  0  0  0  0  0  0  0  0  0  0
    9.2307    8.7037   23.4736 H   0  0  0  0  0  0  0  0  0  0  0  0
    6.9535    9.0991   24.3573 H   0  0  0  0  0  0  0  0  0  0  0  0
   10.7151   10.6052   22.9549 H   0  0  0  0  0  0  0  0  0  0  0  0
    5.9404   12.5906   26.4733 H   0  0  0  0  0  0  0  0  0  0  0  0
    4.5556   12.8529   25.4088 H   0  0  0  0  0  0  0  0  0  0  0  0
    8.1225   14.4150   23.9766 H   0  0  0  0  0  0  0  0  0  0  0  0
   11.9121   12.5565   21.5676 H   0  0  0  0  0  0  0  0  0  0  0  0
   12.5611   12.5148   23.1615 H   0  0  0  0  0  0  0  0  0  0  0  0
  1  2  1  0  0  0  0
  1  3  2  0  0  0  0
  2  5  2  0  0  0  0
  3  6  1  0  0  0  0
  4  5  1  0  0  0  0
  4  6  2  0  0  0  0
  4  9  1  0  0  0  0
  5 14  1  0  0  0  0
  6 15  1  0  0  0  0
  7  8  1  0  0  0  0
  7  9  1  0  0  0  0
  7 11  2  0  0  0  0
  8 14  1  0  0  0  0
 10 15  1  0  0  0  0
 12 15  2  0  0  0  0
 13 15  2  0  0  0  0
  1 16  1  0  0  0  0
  2 17  1  0  0  0  0
  3 18  1  0  0  0  0
  8 19  1  0  0  0  0
  8 20  1  0  0  0  0
  9 21  1  0  0  0  0
 10 22  1  0  0  0  0
 10 23  1  0  0  0  0
M  END
> <Mol Weight>
228,22

> <Formula>
C8H8N2O4S

> <ID>
EN300-122163

> <name>
Sulfonamides

> <LogP>
-0,64

> <ROCS_ShapeQuery>
x0446_0A_x1080_0A_x0929_0A_x0812_0A_x0719_0A_x1140_0A_x0528_0A_x0310_0A

> <ROCS_TanimotoCombo>
0.335 

> <ROCS_ShapeTanimoto>
0.212 

> <ROCS_ColorTanimoto>
0.123 

> <ROCS_RefTversky>
0.193 

> <ROCS_RefColorTversky>
0.139 

> <ROCS_RefTverskyCombo>
0.332 

> <ROCS_FitTversky>
1.824 

> <ROCS_FitColorTversky>
0.523 

> <ROCS_FitTverskyCombo>
2.346 

> <ROCS_ColorScore>
-4.950

> <ROCS_Overlap>
2280.820

> <ROCS_Rank>
321                 

$$$$
untitled-dbase-913_2
  -OEChem-02082415043D

 24 25  0     0  0  0  0  0  0999 V2000
    9.6268   10.3265   23.6767 C   0  0  0  0  0  0  0  0  0  0  0  0
    9.6379   11.7013   23.6249 C   0  0  0  0  0  0  0  0  0  0  0  0
    7.6247   10.9217   24.1294 C   0  0  0  0  0  0  0  0  0  0  0  0
    6.1677   10.9711   24.4344 C   0  0  0  0  0  0  0  0  0  0  0  0
    5.7319   12.3574   24.9161 C   0  0  0  0  0  0  0  0  0  0  0  0
    6.3152   13.4547   24.0233 C   0  0  0  0  0  0  0  0  0  0  0  0
    7.8432   13.4112   24.0381 C   0  0  0  0  0  0  0  0  0  0  0  0
    8.3769    9.8488   23.9884 N   0  0  0  0  0  0  0  0  0  0  0  0
    8.3566   12.0626   23.9131 N   0  0  0  0  0  0  0  0  0  0  0  0
   10.7919   12.9966   21.6013 N   0  0  0  0  0  0  0  0  0  0  0  0
   10.5673   14.1151   23.9130 O   0  0  0  0  0  0  0  0  0  0  0  0
   12.1919   12.2123   23.6166 O   0  0  0  0  0  0  0  0  0  0  0  0
   10.9308   12.8536   23.2951 S   0  0  0  0  0  0  0  0  0  0  0  0
   10.4554    9.6540   23.5077 H   0  0  0  0  0  0  0  0  0  0  0  0
    5.6137   10.7088   23.5249 H   0  0  0  0  0  0  0  0  0  0  0  0
    5.9187   10.2221   25.1939 H   0  0  0  0  0  0  0  0  0  0  0  0
    4.6376   12.4183   24.9226 H   0  0  0  0  0  0  0  0  0  0  0  0
    6.0693   12.5137   25.9487 H   0  0  0  0  0  0  0  0  0  0  0  0
    5.9520   13.3159   22.9970 H   0  0  0  0  0  0  0  0  0  0  0  0
    5.9700   14.4393   24.3564 H   0  0  0  0  0  0  0  0  0  0  0  0
    8.2417   14.0131   23.2151 H   0  0  0  0  0  0  0  0  0  0  0  0
    8.2281   13.8057   24.9855 H   0  0  0  0  0  0  0  0  0  0  0  0
   11.0858   12.1969   21.0273 H   0  0  0  0  0  0  0  0  0  0  0  0
    9.9770   13.4984   21.2279 H   0  0  0  0  0  0  0  0  0  0  0  0
  1  2  2  0  0  0  0
  1  8  1  0  0  0  0
  2  9  1  0  0  0  0
  2 13  1  0  0  0  0
  3  4  1  0  0  0  0
  3  8  2  0  0  0  0
  3  9  1  0  0  0  0
  4  5  1  0  0  0  0
  5  6  1  0  0  0  0
  6  7  1  0  0  0  0
  7  9  1  0  0  0  0
 10 13  1  0  0  0  0
 11 13  2  0  0  0  0
 12 13  2  0  0  0  0
  1 14  1  0  0  0  0
  4 15  1  0  0  0  0
  4 16  1  0  0  0  0
  5 17  1  0  0  0  0
  5 18  1  0  0  0  0
  6 19  1  0  0  0  0
  6 20  1  0  0  0  0
  7 21  1  0  0  0  0
  7 22  1  0  0  0  0
 10 23  1  0  0  0  0
 10 24  1  0  0  0  0
M  END
> <Mol Weight>
201,24

> <Formula>
C7H11N3O2S

> <ID>
EN300-197934

> <name>
Sulfonamides

> <LogP>
-0,43

> <ROCS_ShapeQuery>
x0446_0A_x1080_0A_x0929_0A_x0812_0A_x0719_0A_x1140_0A_x0528_0A_x0310_0A

> <ROCS_TanimotoCombo>
0.335 

> <ROCS_ShapeTanimoto>
0.197 

> <ROCS_ColorTanimoto>
0.138 

> <ROCS_RefTversky>
0.181 

> <ROCS_RefColorTversky>
0.150 

> <ROCS_RefTverskyCombo>
0.331 

> <ROCS_FitTversky>
1.846 

> <ROCS_FitColorTversky>
0.627 

> <ROCS_FitTverskyCombo>
2.473 

> <ROCS_ColorScore>
-5.349

> <ROCS_Overlap>
2130.931

> <ROCS_Rank>
322                 

$$$$
untitled-dbase-1247_4
  -OEChem-02082415043D

 20 21  0     0  0  0  0  0  0999 V2000
    6.0429   12.7440   24.8191 C   0  0  0  0  0  0  0  0  0  0  0  0
    6.4302   11.3988   24.7353 C   0  0  0  0  0  0  0  0  0  0  0  0
    6.8601   13.7675   24.3236 C   0  0  0  0  0  0  0  0  0  0  0  0
    7.6644   11.1046   24.1383 C   0  0  0  0  0  0  0  0  0  0  0  0
    8.4434   12.1479   23.6602 C   0  0  0  0  0  0  0  0  0  0  0  0
    8.0942   13.4911   23.7253 C   0  0  0  0  0  0  0  0  0  0  0  0
    9.4216   10.2707   23.3227 C   0  0  0  0  0  0  0  0  0  0  0  0
    8.3044    9.9096   23.9147 N   0  0  0  0  0  0  0  0  0  0  0  0
    8.0914   16.1474   23.5043 N   0  0  0  0  0  0  0  0  0  0  0  0
   10.2926   14.8707   23.9174 O   0  0  0  0  0  0  0  0  0  0  0  0
    9.1631   14.6865   21.6728 O   0  0  0  0  0  0  0  0  0  0  0  0
    9.5818   11.6101   23.1317 O   0  0  0  0  0  0  0  0  0  0  0  0
   10.3952    9.4885   22.8958 O   0  0  0  0  0  0  0  0  0  0  0  0
    9.0750   14.8037   23.1216 S   0  0  0  0  0  0  0  0  0  0  0  0
    5.0893   12.9947   25.2776 H   0  0  0  0  0  0  0  0  0  0  0  0
    5.7884   10.6138   25.1220 H   0  0  0  0  0  0  0  0  0  0  0  0
    6.5167   14.7964   24.4105 H   0  0  0  0  0  0  0  0  0  0  0  0
    8.3961   16.7663   24.2656 H   0  0  0  0  0  0  0  0  0  0  0  0
    7.6241   16.6380   22.7322 H   0  0  0  0  0  0  0  0  0  0  0  0
   10.2144    8.5344   23.0643 H   0  0  0  0  0  0  0  0  0  0  0  0
  1  2  1  0  0  0  0
  1  3  2  0  0  0  0
  2  4  2  0  0  0  0
  3  6  1  0  0  0  0
  4  5  1  0  0  0  0
  4  8  1  0  0  0  0
  5  6  2  0  0  0  0
  5 12  1  0  0  0  0
  6 14  1  0  0  0  0
  7  8  2  0  0  0  0
  7 12  1  0  0  0  0
  7 13  1  0  0  0  0
  9 14  1  0  0  0  0
 10 14  2  0  0  0  0
 11 14  2  0  0  0  0
  1 15  1  0  0  0  0
  2 16  1  0  0  0  0
  3 17  1  0  0  0  0
  9 18  1  0  0  0  0
  9 19  1  0  0  0  0
 13 20  1  0  0  0  0
M  END
> <Mol Weight>
214,20

> <Formula>
C7H6N2O4S

> <ID>
EN300-20952249

> <name>
Sulfonamides

> <LogP>
0,31

> <ROCS_ShapeQuery>
x0446_0A_x1080_0A_x0929_0A_x0812_0A_x0719_0A_x1140_0A_x0528_0A_x0310_0A

> <ROCS_TanimotoCombo>
0.335 

> <ROCS_ShapeTanimoto>
0.201 

> <ROCS_ColorTanimoto>
0.133 

> <ROCS_RefTversky>
0.185 

> <ROCS_RefColorTversky>
0.149 

> <ROCS_RefTverskyCombo>
0.334 

> <ROCS_FitTversky>
1.793 

> <ROCS_FitColorTversky>
0.560 

> <ROCS_FitTverskyCombo>
2.353 

> <ROCS_ColorScore>
-5.319

> <ROCS_Overlap>
2181.033

> <ROCS_Rank>
323                 

$$$$
untitled-dbase-1829_3
  -OEChem-02082415043D

 22 22  0     0  0  0  0  0  0999 V2000
    9.0710   10.3080   22.9782 C   0  0  0  0  0  0  0  0  0  0  0  0
    8.3845   12.7881   24.0554 C   0  0  0  0  0  0  0  0  0  0  0  0
    8.1352   10.3854   24.0096 C   0  0  0  0  0  0  0  0  0  0  0  0
    7.7919   11.6255   24.5482 C   0  0  0  0  0  0  0  0  0  0  0  0
    9.6637   11.4706   22.4854 C   0  0  0  0  0  0  0  0  0  0  0  0
    9.3204   12.7106   23.0240 C   0  0  0  0  0  0  0  0  0  0  0  0
    7.5195    9.1204   24.5147 C   0  0  0  0  0  0  0  0  0  0  0  0
   11.0880   13.5288   21.2044 N   0  0  0  0  0  0  0  0  0  0  0  0
    6.8408   11.7273   25.6007 N   0  3  0  0  0  0  0  0  0  0  0  0
    5.6292   11.8684   25.3109 O   0  5  0  0  0  0  0  0  0  0  0  0
    7.2422   11.6732   26.7872 O   0  0  0  0  0  0  0  0  0  0  0  0
    9.0290   14.9729   21.7708 O   0  0  0  0  0  0  0  0  0  0  0  0
   10.8813   14.7489   23.4639 O   0  0  0  0  0  0  0  0  0  0  0  0
   10.5618   11.3833   21.4945 F   0  0  0  0  0  0  0  0  0  0  0  0
   10.0607   14.1687   22.4103 S   0  0  0  0  0  0  0  0  0  0  0  0
    9.3459    9.3464   22.5525 H   0  0  0  0  0  0  0  0  0  0  0  0
    8.1195   13.7570   24.4733 H   0  0  0  0  0  0  0  0  0  0  0  0
    8.1186    8.7088   25.3345 H   0  0  0  0  0  0  0  0  0  0  0  0
    6.5000    9.2951   24.8787 H   0  0  0  0  0  0  0  0  0  0  0  0
    7.4511    8.3692   23.7187 H   0  0  0  0  0  0  0  0  0  0  0  0
   10.8360   13.6901   20.2215 H   0  0  0  0  0  0  0  0  0  0  0  0
   12.1001   13.5360   21.3800 H   0  0  0  0  0  0  0  0  0  0  0  0
  1  3  1  0  0  0  0
  1  5  2  0  0  0  0
  2  4  1  0  0  0  0
  2  6  2  0  0  0  0
  3  4  2  0  0  0  0
  3  7  1  0  0  0  0
  4  9  1  0  0  0  0
  5  6  1  0  0  0  0
  5 14  1  0  0  0  0
  6 15  1  0  0  0  0
  8 15  1  0  0  0  0
  9 10  1  0  0  0  0
  9 11  2  0  0  0  0
 12 15  2  0  0  0  0
 13 15  2  0  0  0  0
  1 16  1  0  0  0  0
  2 17  1  0  0  0  0
  7 18  1  0  0  0  0
  7 19  1  0  0  0  0
  7 20  1  0  0  0  0
  8 21  1  0  0  0  0
  8 22  1  0  0  0  0
M  CHG  2   9   1  10  -1
M  END
> <Mol Weight>
234,20

> <Formula>
C7H7FN2O4S

> <ID>
EN300-82169

> <name>
Sulfonamides

> <LogP>
1,18

> <ROCS_ShapeQuery>
x0446_0A_x1080_0A_x0929_0A_x0812_0A_x0719_0A_x1140_0A_x0528_0A_x0310_0A

> <ROCS_TanimotoCombo>
0.335 

> <ROCS_ShapeTanimoto>
0.197 

> <ROCS_ColorTanimoto>
0.138 

> <ROCS_RefTversky>
0.182 

> <ROCS_RefColorTversky>
0.147 

> <ROCS_RefTverskyCombo>
0.328 

> <ROCS_FitTversky>
1.738 

> <ROCS_FitColorTversky>
0.690 

> <ROCS_FitTverskyCombo>
2.427 

> <ROCS_ColorScore>
-5.226

> <ROCS_Overlap>
2144.596

> <ROCS_Rank>
324                 

$$$$
untitled-dbase-2080_821
  -OEChem-02082415043D

 29 29  0     0  0  0  0  0  0999 V2000
    8.3003   10.2280   24.3535 C   0  0  0  0  0  0  0  0  0  0  0  0
    8.8063   10.0655   23.0639 C   0  0  0  0  0  0  0  0  0  0  0  0
    8.6707   11.3375   25.1135 C   0  0  0  0  0  0  0  0  0  0  0  0
    9.6829   11.0125   22.5343 C   0  0  0  0  0  0  0  0  0  0  0  0
    9.5472   12.2845   24.5838 C   0  0  0  0  0  0  0  0  0  0  0  0
   10.0533   12.1220   23.2942 C   0  0  0  0  0  0  0  0  0  0  0  0
    9.7834   15.1694   22.6087 C   0  0  0  0  0  0  0  0  0  0  0  0
   10.9964   13.1409   22.7251 C   0  0  0  0  0  0  0  0  0  0  0  0
    9.0603   16.0718   23.5845 C   0  0  0  0  0  0  0  0  0  0  0  0
    7.6411   16.4019   23.1511 C   0  0  0  0  0  0  0  0  0  0  0  0
    5.1578   15.6803   22.5478 N   0  0  0  0  0  0  0  0  0  0  0  0
    9.5915   15.1384   21.4009 O   0  0  0  0  0  0  0  0  0  0  0  0
    7.1276   14.1341   21.9592 O   0  0  0  0  0  0  0  0  0  0  0  0
    6.4560   14.4226   24.3781 O   0  0  0  0  0  0  0  0  0  0  0  0
   10.6992   14.4208   23.2926 O   0  0  0  0  0  0  0  0  0  0  0  0
    6.6234   14.9624   23.0404 S   0  0  0  0  0  0  0  0  0  0  0  0
    7.6167    9.4912   24.7653 H   0  0  0  0  0  0  0  0  0  0  0  0
    8.5172    9.2022   22.4717 H   0  0  0  0  0  0  0  0  0  0  0  0
    8.2760   11.4649   26.1171 H   0  0  0  0  0  0  0  0  0  0  0  0
   10.0724   10.8775   21.5286 H   0  0  0  0  0  0  0  0  0  0  0  0
    9.8303   13.1457   25.1832 H   0  0  0  0  0  0  0  0  0  0  0  0
   12.0363   12.8823   22.9523 H   0  0  0  0  0  0  0  0  0  0  0  0
   10.8942   13.1983   21.6361 H   0  0  0  0  0  0  0  0  0  0  0  0
    9.6399   16.9987   23.6571 H   0  0  0  0  0  0  0  0  0  0  0  0
    9.0459   15.5872   24.5672 H   0  0  0  0  0  0  0  0  0  0  0  0
    7.1632   17.0548   23.8882 H   0  0  0  0  0  0  0  0  0  0  0  0
    7.6090   16.8954   22.1754 H   0  0  0  0  0  0  0  0  0  0  0  0
    4.6458   16.2443   23.2373 H   0  0  0  0  0  0  0  0  0  0  0  0
    5.1033   16.0476   21.5898 H   0  0  0  0  0  0  0  0  0  0  0  0
  1  2  1  0  0  0  0
  1  3  2  0  0  0  0
  2  4  2  0  0  0  0
  3  5  1  0  0  0  0
  4  6  1  0  0  0  0
  5  6  2  0  0  0  0
  6  8  1  0  0  0  0
  7  9  1  0  0  0  0
  7 12  2  0  0  0  0
  7 15  1  0  0  0  0
  8 15  1  0  0  0  0
  9 10  1  0  0  0  0
 10 16  1  0  0  0  0
 11 16  1  0  0  0  0
 13 16  2  0  0  0  0
 14 16  2  0  0  0  0
  1 17  1  0  0  0  0
  2 18  1  0  0  0  0
  3 19  1  0  0  0  0
  4 20  1  0  0  0  0
  5 21  1  0  0  0  0
  8 22  1  0  0  0  0
  8 23  1  0  0  0  0
  9 24  1  0  0  0  0
  9 25  1  0  0  0  0
 10 26  1  0  0  0  0
 10 27  1  0  0  0  0
 11 28  1  0  0  0  0
 11 29  1  0  0  0  0
M  END
> <Mol Weight>
243,28

> <Formula>
C10H13NO4S

> <ID>
EN300-111200

> <name>
Sulfonamides

> <LogP>
0,20

> <ROCS_ShapeQuery>
x0446_0A_x1080_0A_x0929_0A_x0812_0A_x0719_0A_x1140_0A_x0528_0A_x0310_0A

> <ROCS_TanimotoCombo>
0.334 

> <ROCS_ShapeTanimoto>
0.190 

> <ROCS_ColorTanimoto>
0.145 

> <ROCS_RefTversky>
0.176 

> <ROCS_RefColorTversky>
0.150 

> <ROCS_RefTverskyCombo>
0.326 

> <ROCS_FitTversky>
1.663 

> <ROCS_FitColorTversky>
0.806 

> <ROCS_FitTverskyCombo>
2.469 

> <ROCS_ColorScore>
-5.333

> <ROCS_Overlap>
2081.501

> <ROCS_Rank>
325                 

$$$$
untitled-dbase-2484_60
  -OEChem-02082415043D

 32 33  0     1  0  0  0  0  0999 V2000
    6.1498   10.8797   24.3608 C   0  0  0  0  0  0  0  0  0  0  0  0
    5.2870   11.9306   24.0544 C   0  0  0  0  0  0  0  0  0  0  0  0
    7.1634   13.3023   23.3320 C   0  0  0  0  0  0  0  0  0  0  0  0
    7.5106   11.0523   24.1445 C   0  0  0  0  0  0  0  0  0  0  0  0
    8.0227   12.2636   23.6602 C   0  0  0  0  0  0  0  0  0  0  0  0
    5.7902   13.1304   23.5373 C   0  0  0  0  0  0  0  0  0  0  0  0
   12.4376   13.5927   22.0160 C   0  0  0  0  0  0  0  0  0  0  0  0
   11.5135   12.6893   22.3496 C   0  0  0  0  0  0  0  0  0  0  0  0
   10.3785   13.1093   23.1904 C   0  0  0  0  0  0  0  0  0  0  0  0
    9.8038   10.7585   23.7400 C   0  0  0  0  0  0  0  0  0  0  0  0
    8.6121   10.0670   24.4198 C   0  0  2  0  0  0  0  0  0  0  0  0
    8.3660    8.6697   23.8715 C   0  0  0  0  0  0  0  0  0  0  0  0
    9.4258   12.1676   23.5313 N   0  0  0  0  0  0  0  0  0  0  0  0
    5.7767   15.6157   22.5730 N   0  0  0  0  0  0  0  0  0  0  0  0
   10.3052   14.2999   23.5024 O   0  0  0  0  0  0  0  0  0  0  0  0
    3.8436   13.9954   22.0409 O   0  0  0  0  0  0  0  0  0  0  0  0
    4.0805   14.9068   24.3778 O   0  0  0  0  0  0  0  0  0  0  0  0
    4.6881   14.4295   23.1441 S   0  0  0  0  0  0  0  0  0  0  0  0
    5.7595    9.9520   24.7651 H   0  0  0  0  0  0  0  0  0  0  0  0
    4.2204   11.8098   24.2251 H   0  0  0  0  0  0  0  0  0  0  0  0
    7.5221   14.2387   22.9187 H   0  0  0  0  0  0  0  0  0  0  0  0
   13.2953   13.3440   21.4000 H   0  0  0  0  0  0  0  0  0  0  0  0
   12.3472   14.6169   22.3621 H   0  0  0  0  0  0  0  0  0  0  0  0
   11.5687   11.6589   22.0236 H   0  0  0  0  0  0  0  0  0  0  0  0
   10.6946   10.7146   24.3737 H   0  0  0  0  0  0  0  0  0  0  0  0
   10.0476   10.3182   22.7682 H   0  0  0  0  0  0  0  0  0  0  0  0
    8.7848   10.0260   25.5038 H   0  0  0  0  0  0  0  0  0  0  0  0
    8.1950    8.7148   22.7954 H   0  0  0  0  0  0  0  0  0  0  0  0
    7.4905    8.2292   24.3495 H   0  0  0  0  0  0  0  0  0  0  0  0
    9.2308    8.0342   24.0649 H   0  0  0  0  0  0  0  0  0  0  0  0
    5.7831   15.8186   21.5660 H   0  0  0  0  0  0  0  0  0  0  0  0
    5.9449   16.4394   23.1635 H   0  0  0  0  0  0  0  0  0  0  0  0
  1  2  2  0  0  0  0
  1  4  1  0  0  0  0
  2  6  1  0  0  0  0
  3  5  1  0  0  0  0
  3  6  2  0  0  0  0
  4  5  2  0  0  0  0
  4 11  1  0  0  0  0
  5 13  1  0  0  0  0
  6 18  1  0  0  0  0
  7  8  2  0  0  0  0
  8  9  1  0  0  0  0
  9 13  1  0  0  0  0
  9 15  2  0  0  0  0
 10 11  1  0  0  0  0
 10 13  1  0  0  0  0
 11 12  1  0  0  0  0
 14 18  1  0  0  0  0
 16 18  2  0  0  0  0
 17 18  2  0  0  0  0
  1 19  1  0  0  0  0
  2 20  1  0  0  0  0
  3 21  1  0  0  0  0
  7 22  1  0  0  0  0
  7 23  1  0  0  0  0
  8 24  1  0  0  0  0
 10 25  1  0  0  0  0
 10 26  1  0  0  0  0
 11 27  1  0  0  0  0
 12 28  1  0  0  0  0
 12 29  1  0  0  0  0
 12 30  1  0  0  0  0
 14 31  1  0  0  0  0
 14 32  1  0  0  0  0
M  END
> <Mol Weight>
266,32

> <Formula>
C12H14N2O3S

> <ID>
EN300-26606575

> <name>
Sulfonamides

> <LogP>
0,84

> <ROCS_ShapeQuery>
x0446_0A_x1080_0A_x0929_0A_x0812_0A_x0719_0A_x1140_0A_x0528_0A_x0310_0A

> <ROCS_TanimotoCombo>
0.334 

> <ROCS_ShapeTanimoto>
0.201 

> <ROCS_ColorTanimoto>
0.133 

> <ROCS_RefTversky>
0.187 

> <ROCS_RefColorTversky>
0.146 

> <ROCS_RefTverskyCombo>
0.332 

> <ROCS_FitTversky>
1.616 

> <ROCS_FitColorTversky>
0.610 

> <ROCS_FitTverskyCombo>
2.225 

> <ROCS_ColorScore>
-5.201

> <ROCS_Overlap>
2203.398

> <ROCS_Rank>
326                 

$$$$
untitled-dbase-2743_2
  -OEChem-02082415043D

 23 24  0     0  0  0  0  0  0999 V2000
    6.4778   10.8884   25.2483 C   0  0  0  0  0  0  0  0  0  0  0  0
    5.7896   12.0941   25.5070 C   0  0  0  0  0  0  0  0  0  0  0  0
    7.3120   13.5577   24.1575 C   0  0  0  0  0  0  0  0  0  0  0  0
    7.9667   12.3555   23.9219 C   0  0  0  0  0  0  0  0  0  0  0  0
    7.6054   11.0507   24.4224 C   0  0  0  0  0  0  0  0  0  0  0  0
    6.1888   13.3654   24.9861 C   0  0  0  0  0  0  0  0  0  0  0  0
    9.0895   12.1958   23.1603 C   0  0  0  0  0  0  0  0  0  0  0  0
   10.4506   10.1658   22.5820 C   0  0  0  0  0  0  0  0  0  0  0  0
    8.4904   10.1456   23.9686 N   0  0  0  0  0  0  0  0  0  0  0  0
    9.3568   10.8593   23.2236 N   0  0  0  0  0  0  0  0  0  0  0  0
   11.2271   13.7635   23.4390 N   0  0  0  0  0  0  0  0  0  0  0  0
   10.7700   12.5584   21.2064 O   0  0  0  0  0  0  0  0  0  0  0  0
    9.2826   14.4689   21.9033 O   0  0  0  0  0  0  0  0  0  0  0  0
   10.0972   13.3180   22.2424 S   0  0  0  0  0  0  0  0  0  0  0  0
    5.1411   14.8867   25.4361 Br  0  0  0  0  0  0  0  0  0  0  0  0
    6.1592    9.9364   25.6518 H   0  0  0  0  0  0  0  0  0  0  0  0
    4.9046   12.0368   26.1413 H   0  0  0  0  0  0  0  0  0  0  0  0
    7.6131   14.5191   23.7641 H   0  0  0  0  0  0  0  0  0  0  0  0
   11.2986   10.1623   23.2718 H   0  0  0  0  0  0  0  0  0  0  0  0
   10.1449    9.1426   22.3467 H   0  0  0  0  0  0  0  0  0  0  0  0
   10.7125   10.6835   21.6550 H   0  0  0  0  0  0  0  0  0  0  0  0
   10.9009   14.3658   24.2047 H   0  0  0  0  0  0  0  0  0  0  0  0
   11.9193   13.0619   23.7287 H   0  0  0  0  0  0  0  0  0  0  0  0
  1  2  2  0  0  0  0
  1  5  1  0  0  0  0
  2  6  1  0  0  0  0
  3  4  1  0  0  0  0
  3  6  2  0  0  0  0
  4  5  1  0  0  0  0
  4  7  2  0  0  0  0
  5  9  2  0  0  0  0
  6 15  1  0  0  0  0
  7 10  1  0  0  0  0
  7 14  1  0  0  0  0
  8 10  1  0  0  0  0
  9 10  1  0  0  0  0
 11 14  1  0  0  0  0
 12 14  2  0  0  0  0
 13 14  2  0  0  0  0
  1 16  1  0  0  0  0
  2 17  1  0  0  0  0
  3 18  1  0  0  0  0
  8 19  1  0  0  0  0
  8 20  1  0  0  0  0
  8 21  1  0  0  0  0
 11 22  1  0  0  0  0
 11 23  1  0  0  0  0
M  END
> <Mol Weight>
290,14

> <Formula>
C8H8BrN3O2S

> <ID>
EN300-39875126

> <name>
Sulfonamides

> <LogP>
1,24

> <ROCS_ShapeQuery>
x0446_0A_x1080_0A_x0929_0A_x0812_0A_x0719_0A_x1140_0A_x0528_0A_x0310_0A

> <ROCS_TanimotoCombo>
0.334 

> <ROCS_ShapeTanimoto>
0.216 

> <ROCS_ColorTanimoto>
0.118 

> <ROCS_RefTversky>
0.197 

> <ROCS_RefColorTversky>
0.131 

> <ROCS_RefTverskyCombo>
0.327 

> <ROCS_FitTversky>
1.873 

> <ROCS_FitColorTversky>
0.546 

> <ROCS_FitTverskyCombo>
2.419 

> <ROCS_ColorScore>
-4.661

> <ROCS_Overlap>
2319.480

> <ROCS_Rank>
327                 

$$$$
untitled-dbase-1514_2809
  -OEChem-02082415043D

 28 28  0     0  0  0  0  0  0999 V2000
    7.9777   12.3694   23.6870 C   0  0  0  0  0  0  0  0  0  0  0  0
    9.4367   10.6011   23.3548 C   0  0  0  0  0  0  0  0  0  0  0  0
    9.2863   10.8869   24.8283 C   0  0  0  0  0  0  0  0  0  0  0  0
   11.6219   16.0114   22.4299 C   0  0  0  0  0  0  0  0  0  0  0  0
   10.1111   11.5762   20.6940 C   0  0  0  0  0  0  0  0  0  0  0  0
    8.7743   11.9463   21.3332 C   0  0  0  0  0  0  0  0  0  0  0  0
   11.2936   12.3818   21.2277 C   0  0  0  0  0  0  0  0  0  0  0  0
    8.7576   11.7123   22.7607 N   0  0  0  0  0  0  0  0  0  0  0  0
   11.1527   13.7922   20.9897 N   0  0  0  0  0  0  0  0  0  0  0  0
    7.1963   13.2898   23.4902 O   0  0  0  0  0  0  0  0  0  0  0  0
   10.1732   14.0473   23.3753 O   0  0  0  0  0  0  0  0  0  0  0  0
    9.2392   15.4708   21.5158 O   0  0  0  0  0  0  0  0  0  0  0  0
    8.1931   11.8147   24.9254 O   0  0  0  0  0  0  0  0  0  0  0  0
   10.3565   14.7947   22.1466 S   0  0  0  0  0  0  0  0  0  0  0  0
   10.4813   10.5519   23.0382 H   0  0  0  0  0  0  0  0  0  0  0  0
    8.9169    9.6823   23.0670 H   0  0  0  0  0  0  0  0  0  0  0  0
    9.0482    9.9860   25.4009 H   0  0  0  0  0  0  0  0  0  0  0  0
   10.1771   11.3611   25.2529 H   0  0  0  0  0  0  0  0  0  0  0  0
   11.2499   16.7314   23.1604 H   0  0  0  0  0  0  0  0  0  0  0  0
   12.5089   15.5033   22.8112 H   0  0  0  0  0  0  0  0  0  0  0  0
   11.8419   16.5063   21.4828 H   0  0  0  0  0  0  0  0  0  0  0  0
   10.0326   11.7227   19.6097 H   0  0  0  0  0  0  0  0  0  0  0  0
   10.3100   10.5105   20.8614 H   0  0  0  0  0  0  0  0  0  0  0  0
    8.5264   12.9985   21.1637 H   0  0  0  0  0  0  0  0  0  0  0  0
    7.9738   11.3367   20.9021 H   0  0  0  0  0  0  0  0  0  0  0  0
   12.2150   12.0661   20.7283 H   0  0  0  0  0  0  0  0  0  0  0  0
   11.4253   12.2356   22.3042 H   0  0  0  0  0  0  0  0  0  0  0  0
   10.9993   14.0718   19.9960 H   0  0  0  0  0  0  0  0  0  0  0  0
  1  8  1  0  0  0  0
  1 10  2  0  0  0  0
  1 13  1  0  0  0  0
  2  3  1  0  0  0  0
  2  8  1  0  0  0  0
  3 13  1  0  0  0  0
  4 14  1  0  0  0  0
  5  6  1  0  0  0  0
  5  7  1  0  0  0  0
  6  8  1  0  0  0  0
  7  9  1  0  0  0  0
  9 14  1  0  0  0  0
 11 14  2  0  0  0  0
 12 14  2  0  0  0  0
  2 15  1  0  0  0  0
  2 16  1  0  0  0  0
  3 17  1  0  0  0  0
  3 18  1  0  0  0  0
  4 19  1  0  0  0  0
  4 20  1  0  0  0  0
  4 21  1  0  0  0  0
  5 22  1  0  0  0  0
  5 23  1  0  0  0  0
  6 24  1  0  0  0  0
  6 25  1  0  0  0  0
  7 26  1  0  0  0  0
  7 27  1  0  0  0  0
  9 28  1  0  0  0  0
M  END
> <Mol Weight>
222,26

> <Formula>
C7H14N2O4S

> <ID>
EN300-7434014

> <name>
Sulfonamides

> <LogP>
-1,56

> <ROCS_ShapeQuery>
x0446_0A_x1080_0A_x0929_0A_x0812_0A_x0719_0A_x1140_0A_x0528_0A_x0310_0A

> <ROCS_TanimotoCombo>
0.334 

> <ROCS_ShapeTanimoto>
0.176 

> <ROCS_ColorTanimoto>
0.159 

> <ROCS_RefTversky>
0.164 

> <ROCS_RefColorTversky>
0.162 

> <ROCS_RefTverskyCombo>
0.326 

> <ROCS_FitTversky>
1.663 

> <ROCS_FitColorTversky>
0.873 

> <ROCS_FitTverskyCombo>
2.536 

> <ROCS_ColorScore>
-5.774

> <ROCS_Overlap>
1935.338

> <ROCS_Rank>
328                 

$$$$
untitled-dbase-1906_7
  -OEChem-02082415043D

 24 24  0     0  0  0  0  0  0999 V2000
    9.4609   10.5496   22.7220 C   0  0  0  0  0  0  0  0  0  0  0  0
    9.9730   11.7547   22.2412 C   0  0  0  0  0  0  0  0  0  0  0  0
    8.1254   11.7593   24.3314 C   0  0  0  0  0  0  0  0  0  0  0  0
    8.6375   12.9644   23.8507 C   0  0  0  0  0  0  0  0  0  0  0  0
    8.5370   10.5519   23.7671 C   0  0  0  0  0  0  0  0  0  0  0  0
    9.5614   12.9620   22.8056 C   0  0  0  0  0  0  0  0  0  0  0  0
    7.0972    9.4505   25.3064 C   0  0  0  0  0  0  0  0  0  0  0  0
    8.1763   14.2397   24.4769 C   0  0  0  0  0  0  0  0  0  0  0  0
   11.2561   13.8591   20.9541 N   0  0  0  0  0  0  0  0  0  0  0  0
    9.1411   15.2051   21.5545 O   0  0  0  0  0  0  0  0  0  0  0  0
   11.0312   15.0730   23.2152 O   0  0  0  0  0  0  0  0  0  0  0  0
    8.0380    9.3758   24.2363 O   0  0  0  0  0  0  0  0  0  0  0  0
    7.2649   13.9943   25.4535 F   0  0  0  0  0  0  0  0  0  0  0  0
    7.5585   15.0291   23.5605 F   0  0  0  0  0  0  0  0  0  0  0  0
   10.2221   14.4552   22.1757 S   0  0  0  0  0  0  0  0  0  0  0  0
    9.7854    9.6124   22.2783 H   0  0  0  0  0  0  0  0  0  0  0  0
   10.6910   11.7403   21.4256 H   0  0  0  0  0  0  0  0  0  0  0  0
    7.4052   11.7565   25.1462 H   0  0  0  0  0  0  0  0  0  0  0  0
    6.7794    8.4425   25.5842 H   0  0  0  0  0  0  0  0  0  0  0  0
    6.2338   10.0428   24.9930 H   0  0  0  0  0  0  0  0  0  0  0  0
    7.5730    9.9298   26.1653 H   0  0  0  0  0  0  0  0  0  0  0  0
    8.9965   14.8094   24.9155 H   0  0  0  0  0  0  0  0  0  0  0  0
   10.9796   14.0060   19.9756 H   0  0  0  0  0  0  0  0  0  0  0  0
   12.2696   13.9146   21.1119 H   0  0  0  0  0  0  0  0  0  0  0  0
  1  2  2  0  0  0  0
  1  5  1  0  0  0  0
  2  6  1  0  0  0  0
  3  4  1  0  0  0  0
  3  5  2  0  0  0  0
  4  6  2  0  0  0  0
  4  8  1  0  0  0  0
  5 12  1  0  0  0  0
  6 15  1  0  0  0  0
  7 12  1  0  0  0  0
  8 13  1  0  0  0  0
  8 14  1  0  0  0  0
  9 15  1  0  0  0  0
 10 15  2  0  0  0  0
 11 15  2  0  0  0  0
  1 16  1  0  0  0  0
  2 17  1  0  0  0  0
  3 18  1  0  0  0  0
  7 19  1  0  0  0  0
  7 20  1  0  0  0  0
  7 21  1  0  0  0  0
  8 22  1  0  0  0  0
  9 23  1  0  0  0  0
  9 24  1  0  0  0  0
M  END
> <Mol Weight>
237,22

> <Formula>
C8H9F2NO3S

> <ID>
EN300-1611850

> <name>
Sulfonamides

> <LogP>
0,81

> <ROCS_ShapeQuery>
x0446_0A_x1080_0A_x0929_0A_x0812_0A_x0719_0A_x1140_0A_x0528_0A_x0310_0A

> <ROCS_TanimotoCombo>
0.334 

> <ROCS_ShapeTanimoto>
0.202 

> <ROCS_ColorTanimoto>
0.132 

> <ROCS_RefTversky>
0.186 

> <ROCS_RefColorTversky>
0.138 

> <ROCS_RefTverskyCombo>
0.324 

> <ROCS_FitTversky>
1.781 

> <ROCS_FitColorTversky>
0.743 

> <ROCS_FitTverskyCombo>
2.524 

> <ROCS_ColorScore>
-4.914

> <ROCS_Overlap>
2191.800

> <ROCS_Rank>
329                 

$$$$
untitled-dbase-1715_5
  -OEChem-02082415043D

 26 27  0     0  0  0  0  0  0999 V2000
    6.2930   11.1439   24.1454 C   0  0  0  0  0  0  0  0  0  0  0  0
    5.6569   12.3835   24.2133 C   0  0  0  0  0  0  0  0  0  0  0  0
    7.8049   13.4913   24.2076 C   0  0  0  0  0  0  0  0  0  0  0  0
    7.6861   11.0790   24.0819 C   0  0  0  0  0  0  0  0  0  0  0  0
    8.4420   12.2527   24.1127 C   0  0  0  0  0  0  0  0  0  0  0  0
    6.4120   13.5558   24.2446 C   0  0  0  0  0  0  0  0  0  0  0  0
   10.4144   10.1806   22.9912 C   0  0  0  0  0  0  0  0  0  0  0  0
    9.0149    9.5845   22.9063 C   0  0  0  0  0  0  0  0  0  0  0  0
   10.3800   11.7034   22.9616 C   0  0  0  0  0  0  0  0  0  0  0  0
    5.4072   15.4745   22.6896 N   0  0  0  0  0  0  0  0  0  0  0  0
    4.3011   14.9066   24.9479 O   0  0  0  0  0  0  0  0  0  0  0  0
    6.5377   16.0663   24.9275 O   0  0  0  0  0  0  0  0  0  0  0  0
    8.2585    9.8365   24.0927 O   0  0  0  0  0  0  0  0  0  0  0  0
    9.8095   12.2444   24.1555 O   0  0  0  0  0  0  0  0  0  0  0  0
    5.6119   15.1047   24.3452 S   0  0  0  0  0  0  0  0  0  0  0  0
    5.6957   10.2394   24.1209 H   0  0  0  0  0  0  0  0  0  0  0  0
    4.5708   12.4253   24.2324 H   0  0  0  0  0  0  0  0  0  0  0  0
    8.3924   14.4009   24.2739 H   0  0  0  0  0  0  0  0  0  0  0  0
   10.9061    9.8630   23.9143 H   0  0  0  0  0  0  0  0  0  0  0  0
   11.0052    9.7987   22.1546 H   0  0  0  0  0  0  0  0  0  0  0  0
    8.4769    9.9373   22.0128 H   0  0  0  0  0  0  0  0  0  0  0  0
    9.0957    8.4953   22.7941 H   0  0  0  0  0  0  0  0  0  0  0  0
   11.3781   12.1287   22.7735 H   0  0  0  0  0  0  0  0  0  0  0  0
    9.7540   12.0316   22.1214 H   0  0  0  0  0  0  0  0  0  0  0  0
    4.4577   15.4302   22.2998 H   0  0  0  0  0  0  0  0  0  0  0  0
    5.9868   16.2210   22.2871 H   0  0  0  0  0  0  0  0  0  0  0  0
  1  2  2  0  0  0  0
  1  4  1  0  0  0  0
  2  6  1  0  0  0  0
  3  5  1  0  0  0  0
  3  6  2  0  0  0  0
  4  5  2  0  0  0  0
  4 13  1  0  0  0  0
  5 14  1  0  0  0  0
  6 15  1  0  0  0  0
  7  8  1  0  0  0  0
  7  9  1  0  0  0  0
  8 13  1  0  0  0  0
  9 14  1  0  0  0  0
 10 15  1  0  0  0  0
 11 15  2  0  0  0  0
 12 15  2  0  0  0  0
  1 16  1  0  0  0  0
  2 17  1  0  0  0  0
  3 18  1  0  0  0  0
  7 19  1  0  0  0  0
  7 20  1  0  0  0  0
  8 21  1  0  0  0  0
  8 22  1  0  0  0  0
  9 23  1  0  0  0  0
  9 24  1  0  0  0  0
 10 25  1  0  0  0  0
 10 26  1  0  0  0  0
M  END
> <Mol Weight>
229,25

> <Formula>
C9H11NO4S

> <ID>
EN300-27012

> <name>
Sulfonamides

> <LogP>
0,15

> <ROCS_ShapeQuery>
x0446_0A_x1080_0A_x0929_0A_x0812_0A_x0719_0A_x1140_0A_x0528_0A_x0310_0A

> <ROCS_TanimotoCombo>
0.334 

> <ROCS_ShapeTanimoto>
0.189 

> <ROCS_ColorTanimoto>
0.145 

> <ROCS_RefTversky>
0.176 

> <ROCS_RefColorTversky>
0.157 

> <ROCS_RefTverskyCombo>
0.333 

> <ROCS_FitTversky>
1.673 

> <ROCS_FitColorTversky>
0.657 

> <ROCS_FitTverskyCombo>
2.330 

> <ROCS_ColorScore>
-5.596

> <ROCS_Overlap>
2073.241

> <ROCS_Rank>
330                 

$$$$
untitled-dbase-1652_7
  -OEChem-02082415043D

 28 29  0     0  0  0  0  0  0999 V2000
    9.6818   10.6899   22.3934 C   0  0  0  0  0  0  0  0  0  0  0  0
   10.1674   11.9138   21.9303 C   0  0  0  0  0  0  0  0  0  0  0  0
    8.9448   13.1008   23.6676 C   0  0  0  0  0  0  0  0  0  0  0  0
    8.4653   11.8814   24.1112 C   0  0  0  0  0  0  0  0  0  0  0  0
    8.8302   10.7037   23.4816 C   0  0  0  0  0  0  0  0  0  0  0  0
    9.8002   13.1126   22.5629 C   0  0  0  0  0  0  0  0  0  0  0  0
    7.5935   11.5821   25.2695 C   0  0  0  0  0  0  0  0  0  0  0  0
    7.3150   10.0818   25.0171 C   0  0  0  0  0  0  0  0  0  0  0  0
    7.4877    9.2643   26.2981 C   0  0  0  0  0  0  0  0  0  0  0  0
    5.9117    9.8574   24.4395 C   0  0  0  0  0  0  0  0  0  0  0  0
   11.3651   14.0980   20.6432 N   0  0  0  0  0  0  0  0  0  0  0  0
    9.2911   15.4050   21.4408 O   0  0  0  0  0  0  0  0  0  0  0  0
   11.2882   15.2124   22.9647 O   0  0  0  0  0  0  0  0  0  0  0  0
    8.2783    9.5832   24.0442 O   0  0  0  0  0  0  0  0  0  0  0  0
   10.4122   14.6325   21.9566 S   0  0  0  0  0  0  0  0  0  0  0  0
    9.9694    9.7616   21.9126 H   0  0  0  0  0  0  0  0  0  0  0  0
   10.8332   11.9294   21.0708 H   0  0  0  0  0  0  0  0  0  0  0  0
    8.6574   14.0215   24.1650 H   0  0  0  0  0  0  0  0  0  0  0  0
    8.0881   11.7637   26.2285 H   0  0  0  0  0  0  0  0  0  0  0  0
    6.6824   12.1877   25.2118 H   0  0  0  0  0  0  0  0  0  0  0  0
    7.2861    8.2170   26.0901 H   0  0  0  0  0  0  0  0  0  0  0  0
    6.7940    9.6230   27.0536 H   0  0  0  0  0  0  0  0  0  0  0  0
    8.5060    9.3712   26.6621 H   0  0  0  0  0  0  0  0  0  0  0  0
    5.7488    8.7944   24.2742 H   0  0  0  0  0  0  0  0  0  0  0  0
    5.8157   10.3860   23.4934 H   0  0  0  0  0  0  0  0  0  0  0  0
    5.1642   10.2306   25.1364 H   0  0  0  0  0  0  0  0  0  0  0  0
   12.2440   13.6093   20.8531 H   0  0  0  0  0  0  0  0  0  0  0  0
   10.8809   13.7420   19.8101 H   0  0  0  0  0  0  0  0  0  0  0  0
  1  2  2  0  0  0  0
  1  5  1  0  0  0  0
  2  6  1  0  0  0  0
  3  4  1  0  0  0  0
  3  6  2  0  0  0  0
  4  5  2  0  0  0  0
  4  7  1  0  0  0  0
  5 14  1  0  0  0  0
  6 15  1  0  0  0  0
  7  8  1  0  0  0  0
  8  9  1  0  0  0  0
  8 10  1  0  0  0  0
  8 14  1  0  0  0  0
 11 15  1  0  0  0  0
 12 15  2  0  0  0  0
 13 15  2  0  0  0  0
  1 16  1  0  0  0  0
  2 17  1  0  0  0  0
  3 18  1  0  0  0  0
  7 19  1  0  0  0  0
  7 20  1  0  0  0  0
  9 21  1  0  0  0  0
  9 22  1  0  0  0  0
  9 23  1  0  0  0  0
 10 24  1  0  0  0  0
 10 25  1  0  0  0  0
 10 26  1  0  0  0  0
 11 27  1  0  0  0  0
 11 28  1  0  0  0  0
M  END
> <Mol Weight>
227,28

> <Formula>
C10H13NO3S

> <ID>
EN300-226389

> <name>
Sulfonamides

> <LogP>
1,16

> <ROCS_ShapeQuery>
x0446_0A_x1080_0A_x0929_0A_x0812_0A_x0719_0A_x1140_0A_x0528_0A_x0310_0A

> <ROCS_TanimotoCombo>
0.334 

> <ROCS_ShapeTanimoto>
0.193 

> <ROCS_ColorTanimoto>
0.141 

> <ROCS_RefTversky>
0.179 

> <ROCS_RefColorTversky>
0.153 

> <ROCS_RefTverskyCombo>
0.332 

> <ROCS_FitTversky>
1.706 

> <ROCS_FitColorTversky>
0.639 

> <ROCS_FitTverskyCombo>
2.344 

> <ROCS_ColorScore>
-5.449

> <ROCS_Overlap>
2113.237

> <ROCS_Rank>
331                 

$$$$
untitled-dbase-892_3
  -OEChem-02082415043D

 20 21  0     0  0  0  0  0  0999 V2000
    9.6826   10.6758   22.3615 C   0  0  0  0  0  0  0  0  0  0  0  0
   10.1619   11.9067   21.9072 C   0  0  0  0  0  0  0  0  0  0  0  0
    8.9244   13.0787   23.6460 C   0  0  0  0  0  0  0  0  0  0  0  0
    8.8342   10.6810   23.4496 C   0  0  0  0  0  0  0  0  0  0  0  0
    8.4653   11.8502   24.0747 C   0  0  0  0  0  0  0  0  0  0  0  0
    9.7850   13.1013   22.5458 C   0  0  0  0  0  0  0  0  0  0  0  0
    7.5071   10.1961   25.0884 C   0  0  0  0  0  0  0  0  0  0  0  0
   11.3666   14.1048   20.6494 N   0  0  0  0  0  0  0  0  0  0  0  0
    9.2817   15.4009   21.4359 O   0  0  0  0  0  0  0  0  0  0  0  0
   11.2638   15.2015   22.9783 O   0  0  0  0  0  0  0  0  0  0  0  0
    8.2720    9.5855   24.0290 O   0  0  0  0  0  0  0  0  0  0  0  0
    7.6258   11.6331   25.1235 O   0  0  0  0  0  0  0  0  0  0  0  0
   10.3994   14.6273   21.9571 S   0  0  0  0  0  0  0  0  0  0  0  0
    9.9710    9.7524   21.8722 H   0  0  0  0  0  0  0  0  0  0  0  0
   10.8322   11.9316   21.0516 H   0  0  0  0  0  0  0  0  0  0  0  0
    8.6251   13.9921   24.1486 H   0  0  0  0  0  0  0  0  0  0  0  0
    6.4512    9.9343   24.9548 H   0  0  0  0  0  0  0  0  0  0  0  0
    7.8513    9.7922   26.0474 H   0  0  0  0  0  0  0  0  0  0  0  0
   11.0342   14.2984   19.6968 H   0  0  0  0  0  0  0  0  0  0  0  0
   12.3872   14.1610   20.7524 H   0  0  0  0  0  0  0  0  0  0  0  0
  1  2  2  0  0  0  0
  1  4  1  0  0  0  0
  2  6  1  0  0  0  0
  3  5  1  0  0  0  0
  3  6  2  0  0  0  0
  4  5  2  0  0  0  0
  4 11  1  0  0  0  0
  5 12  1  0  0  0  0
  6 13  1  0  0  0  0
  7 11  1  0  0  0  0
  7 12  1  0  0  0  0
  8 13  1  0  0  0  0
  9 13  2  0  0  0  0
 10 13  2  0  0  0  0
  1 14  1  0  0  0  0
  2 15  1  0  0  0  0
  3 16  1  0  0  0  0
  7 17  1  0  0  0  0
  7 18  1  0  0  0  0
  8 19  1  0  0  0  0
  8 20  1  0  0  0  0
M  END
> <Mol Weight>
201,20

> <Formula>
C7H7NO4S

> <ID>
EN300-125966

> <name>
Sulfonamides

> <LogP>
0,20

> <ROCS_ShapeQuery>
x0446_0A_x1080_0A_x0929_0A_x0812_0A_x0719_0A_x1140_0A_x0528_0A_x0310_0A

> <ROCS_TanimotoCombo>
0.334 

> <ROCS_ShapeTanimoto>
0.191 

> <ROCS_ColorTanimoto>
0.144 

> <ROCS_RefTversky>
0.176 

> <ROCS_RefColorTversky>
0.156 

> <ROCS_RefTverskyCombo>
0.331 

> <ROCS_FitTversky>
1.780 

> <ROCS_FitColorTversky>
0.650 

> <ROCS_FitTverskyCombo>
2.430 

> <ROCS_ColorScore>
-5.551

> <ROCS_Overlap>
2073.642

> <ROCS_Rank>
332                 

$$$$
untitled-dbase-990_15
  -OEChem-02082415043D

 23 23  0     0  0  0  0  0  0999 V2000
    7.9459   11.8604   24.8839 C   0  0  0  0  0  0  0  0  0  0  0  0
    9.5158   12.3110   23.1037 C   0  0  0  0  0  0  0  0  0  0  0  0
    8.0368   10.4941   24.6183 C   0  0  0  0  0  0  0  0  0  0  0  0
    9.6068   10.9447   22.8381 C   0  0  0  0  0  0  0  0  0  0  0  0
    8.6853   12.7689   24.1266 C   0  0  0  0  0  0  0  0  0  0  0  0
    8.8673   10.0362   23.5954 C   0  0  0  0  0  0  0  0  0  0  0  0
    8.5891   14.2297   24.4106 C   0  0  0  0  0  0  0  0  0  0  0  0
    7.4876   14.9381   23.6173 C   0  0  0  0  0  0  0  0  0  0  0  0
    6.3302   15.6507   21.3361 N   0  0  0  0  0  0  0  0  0  0  0  0
    8.8927   15.4792   21.4819 O   0  0  0  0  0  0  0  0  0  0  0  0
    7.5029   13.3692   21.5278 O   0  0  0  0  0  0  0  0  0  0  0  0
    8.9568    8.7240   23.3420 F   0  0  0  0  0  0  0  0  0  0  0  0
    7.6873   14.7684   21.8714 S   0  0  0  0  0  0  0  0  0  0  0  0
    7.2955   12.2077   25.6825 H   0  0  0  0  0  0  0  0  0  0  0  0
   10.0960   13.0114   22.5087 H   0  0  0  0  0  0  0  0  0  0  0  0
    7.4617    9.7867   25.2082 H   0  0  0  0  0  0  0  0  0  0  0  0
   10.2530   10.5879   22.0416 H   0  0  0  0  0  0  0  0  0  0  0  0
    9.5499   14.7150   24.1660 H   0  0  0  0  0  0  0  0  0  0  0  0
    8.4356   14.4170   25.4876 H   0  0  0  0  0  0  0  0  0  0  0  0
    6.5092   14.5056   23.8503 H   0  0  0  0  0  0  0  0  0  0  0  0
    7.4507   16.0100   23.8342 H   0  0  0  0  0  0  0  0  0  0  0  0
    6.4970   16.5617   20.8913 H   0  0  0  0  0  0  0  0  0  0  0  0
    5.5505   15.1246   20.9227 H   0  0  0  0  0  0  0  0  0  0  0  0
  1  3  2  0  0  0  0
  1  5  1  0  0  0  0
  2  4  1  0  0  0  0
  2  5  2  0  0  0  0
  3  6  1  0  0  0  0
  4  6  2  0  0  0  0
  5  7  1  0  0  0  0
  6 12  1  0  0  0  0
  7  8  1  0  0  0  0
  8 13  1  0  0  0  0
  9 13  1  0  0  0  0
 10 13  2  0  0  0  0
 11 13  2  0  0  0  0
  1 14  1  0  0  0  0
  2 15  1  0  0  0  0
  3 16  1  0  0  0  0
  4 17  1  0  0  0  0
  7 18  1  0  0  0  0
  7 19  1  0  0  0  0
  8 20  1  0  0  0  0
  8 21  1  0  0  0  0
  9 22  1  0  0  0  0
  9 23  1  0  0  0  0
M  END
> <Mol Weight>
203,23

> <Formula>
C8H10FNO2S

> <ID>
EN300-278361

> <name>
Sulfonamides

> <LogP>
0,77

> <ROCS_ShapeQuery>
x0446_0A_x1080_0A_x0929_0A_x0812_0A_x0719_0A_x1140_0A_x0528_0A_x0310_0A

> <ROCS_TanimotoCombo>
0.334 

> <ROCS_ShapeTanimoto>
0.183 

> <ROCS_ColorTanimoto>
0.151 

> <ROCS_RefTversky>
0.169 

> <ROCS_RefColorTversky>
0.152 

> <ROCS_RefTverskyCombo>
0.322 

> <ROCS_FitTversky>
1.772 

> <ROCS_FitColorTversky>
0.956 

> <ROCS_FitTverskyCombo>
2.728 

> <ROCS_ColorScore>
-5.413

> <ROCS_Overlap>
1995.477

> <ROCS_Rank>
333                 

$$$$
untitled-dbase-2463_12
  -OEChem-02082415043D

 25 25  0     0  0  0  0  0  0999 V2000
   10.2412   10.8645   22.9712 C   0  0  0  0  0  0  0  0  0  0  0  0
    8.1861   10.7903   24.2394 C   0  0  0  0  0  0  0  0  0  0  0  0
   10.2151   12.2585   23.0104 C   0  0  0  0  0  0  0  0  0  0  0  0
    9.1745   12.9185   23.6641 C   0  0  0  0  0  0  0  0  0  0  0  0
    8.1600   12.1844   24.2786 C   0  0  0  0  0  0  0  0  0  0  0  0
    9.2266   10.1304   23.5856 C   0  0  0  0  0  0  0  0  0  0  0  0
   11.2853   13.0043   22.3622 C   0  0  0  0  0  0  0  0  0  0  0  0
    8.4730   14.9460   22.6380 C   0  0  0  0  0  0  0  0  0  0  0  0
   11.1123   13.3520   21.0267 N   0  0  0  0  0  0  0  0  0  0  0  0
    7.4819   13.1102   26.6844 N   0  0  0  0  0  0  0  0  0  0  0  0
   12.3243   13.3058   22.9729 O   0  0  0  0  0  0  0  0  0  0  0  0
    6.7012   14.3229   24.5477 O   0  0  0  0  0  0  0  0  0  0  0  0
    5.7007   12.0854   25.1308 O   0  0  0  0  0  0  0  0  0  0  0  0
    9.1515   14.2822   23.7012 O   0  0  0  0  0  0  0  0  0  0  0  0
    6.8431   12.9863   25.1053 S   0  0  0  0  0  0  0  0  0  0  0  0
    9.2586    8.4103   23.5373 Cl  0  0  0  0  0  0  0  0  0  0  0  0
   11.0540   10.3518   22.4610 H   0  0  0  0  0  0  0  0  0  0  0  0
    7.3939   10.2201   24.7192 H   0  0  0  0  0  0  0  0  0  0  0  0
    8.5289   16.0270   22.7877 H   0  0  0  0  0  0  0  0  0  0  0  0
    7.4288   14.6243   22.6139 H   0  0  0  0  0  0  0  0  0  0  0  0
    8.9542   14.6861   21.6922 H   0  0  0  0  0  0  0  0  0  0  0  0
   11.8417   13.8715   20.5504 H   0  0  0  0  0  0  0  0  0  0  0  0
   10.2715   13.0968   20.5189 H   0  0  0  0  0  0  0  0  0  0  0  0
    7.7623   14.0404   27.0186 H   0  0  0  0  0  0  0  0  0  0  0  0
    7.0795   12.5106   27.4150 H   0  0  0  0  0  0  0  0  0  0  0  0
  1  3  2  0  0  0  0
  1  6  1  0  0  0  0
  2  5  1  0  0  0  0
  2  6  2  0  0  0  0
  3  4  1  0  0  0  0
  3  7  1  0  0  0  0
  4  5  2  0  0  0  0
  4 14  1  0  0  0  0
  5 15  1  0  0  0  0
  6 16  1  0  0  0  0
  7  9  1  0  0  0  0
  7 11  2  0  0  0  0
  8 14  1  0  0  0  0
 10 15  1  0  0  0  0
 12 15  2  0  0  0  0
 13 15  2  0  0  0  0
  1 17  1  0  0  0  0
  2 18  1  0  0  0  0
  8 19  1  0  0  0  0
  8 20  1  0  0  0  0
  8 21  1  0  0  0  0
  9 22  1  0  0  0  0
  9 23  1  0  0  0  0
 10 24  1  0  0  0  0
 10 25  1  0  0  0  0
M  END
> <Mol Weight>
264,68

> <Formula>
C8H9ClN2O4S

> <ID>
EN300-210219

> <name>
Sulfonamides

> <LogP>
-0,12

> <ROCS_ShapeQuery>
x0446_0A_x1080_0A_x0929_0A_x0812_0A_x0719_0A_x1140_0A_x0528_0A_x0310_0A

> <ROCS_TanimotoCombo>
0.334 

> <ROCS_ShapeTanimoto>
0.218 

> <ROCS_ColorTanimoto>
0.116 

> <ROCS_RefTversky>
0.198 

> <ROCS_RefColorTversky>
0.129 

> <ROCS_RefTverskyCombo>
0.327 

> <ROCS_FitTversky>
1.852 

> <ROCS_FitColorTversky>
0.539 

> <ROCS_FitTverskyCombo>
2.391 

> <ROCS_ColorScore>
-4.589

> <ROCS_Overlap>
2338.595

> <ROCS_Rank>
334                 

$$$$
untitled-dbase-2158_2
  -OEChem-02082415043D

 26 27  0     1  0  0  0  0  0999 V2000
    8.4045   13.3668   24.8557 C   0  0  0  0  0  0  0  0  0  0  0  0
    9.0728   14.2951   24.0559 C   0  0  0  0  0  0  0  0  0  0  0  0
    9.8423   12.5255   22.5719 C   0  0  0  0  0  0  0  0  0  0  0  0
    8.4621   12.0314   24.4931 C   0  0  0  0  0  0  0  0  0  0  0  0
    9.1534   11.6136   23.3526 C   0  0  0  0  0  0  0  0  0  0  0  0
    9.7901   13.8769   22.9240 C   0  0  0  0  0  0  0  0  0  0  0  0
    8.1216    9.7258   24.1317 C   0  0  0  0  0  0  0  0  0  0  0  0
    7.8797   10.8362   25.1889 C   0  0  1  0  0  0  0  0  0  0  0  0
    8.5874   10.5409   26.5063 C   0  0  0  0  0  0  0  0  0  0  0  0
    9.1261   10.2287   23.2013 N   0  0  0  0  0  0  0  0  0  0  0  0
   11.3165   14.0577   20.7463 N   0  0  0  0  0  0  0  0  0  0  0  0
    9.6486   15.9331   21.3350 O   0  0  0  0  0  0  0  0  0  0  0  0
   11.7105   15.6281   22.7503 O   0  0  0  0  0  0  0  0  0  0  0  0
   10.6348   15.0580   21.9519 S   0  0  0  0  0  0  0  0  0  0  0  0
    7.8629   13.6870   25.7390 H   0  0  0  0  0  0  0  0  0  0  0  0
    9.0398   15.3479   24.3249 H   0  0  0  0  0  0  0  0  0  0  0  0
   10.4055   12.1963   21.7038 H   0  0  0  0  0  0  0  0  0  0  0  0
    8.4380    8.7777   24.5791 H   0  0  0  0  0  0  0  0  0  0  0  0
    7.1936    9.5375   23.5770 H   0  0  0  0  0  0  0  0  0  0  0  0
    6.8071   10.9724   25.3523 H   0  0  0  0  0  0  0  0  0  0  0  0
    9.6555   10.4066   26.3341 H   0  0  0  0  0  0  0  0  0  0  0  0
    8.1839    9.6310   26.9507 H   0  0  0  0  0  0  0  0  0  0  0  0
    8.4426   11.3683   27.2012 H   0  0  0  0  0  0  0  0  0  0  0  0
    9.9492    9.7042   22.9403 H   0  0  0  0  0  0  0  0  0  0  0  0
   10.9241   14.1102   19.7984 H   0  0  0  0  0  0  0  0  0  0  0  0
   12.3316   13.9013   20.7674 H   0  0  0  0  0  0  0  0  0  0  0  0
  1  2  2  0  0  0  0
  1  4  1  0  0  0  0
  2  6  1  0  0  0  0
  3  5  1  0  0  0  0
  3  6  2  0  0  0  0
  4  5  2  0  0  0  0
  4  8  1  0  0  0  0
  5 10  1  0  0  0  0
  6 14  1  0  0  0  0
  7  8  1  0  0  0  0
  7 10  1  0  0  0  0
  8  9  1  0  0  0  0
 11 14  1  0  0  0  0
 12 14  2  0  0  0  0
 13 14  2  0  0  0  0
  1 15  1  0  0  0  0
  2 16  1  0  0  0  0
  3 17  1  0  0  0  0
  7 18  1  0  0  0  0
  7 19  1  0  0  0  0
  8 20  1  0  0  0  0
  9 21  1  0  0  0  0
  9 22  1  0  0  0  0
  9 23  1  0  0  0  0
 10 24  1  0  0  0  0
 11 25  1  0  0  0  0
 11 26  1  0  0  0  0
M  END
> <Mol Weight>
248,73

> <Formula>
C9H13ClN2O2S

> <ID>
EN300-1273021

> <name>
Sulfonamides

> <LogP>
0,46

> <ROCS_ShapeQuery>
x0446_0A_x1080_0A_x0929_0A_x0812_0A_x0719_0A_x1140_0A_x0528_0A_x0310_0A

> <ROCS_TanimotoCombo>
0.334 

> <ROCS_ShapeTanimoto>
0.191 

> <ROCS_ColorTanimoto>
0.143 

> <ROCS_RefTversky>
0.176 

> <ROCS_RefColorTversky>
0.152 

> <ROCS_RefTverskyCombo>
0.328 

> <ROCS_FitTversky>
1.743 

> <ROCS_FitColorTversky>
0.715 

> <ROCS_FitTverskyCombo>
2.458 

> <ROCS_ColorScore>
-5.416

> <ROCS_Overlap>
2079.419

> <ROCS_Rank>
335                 

$$$$
untitled-dbase-756_3
  -OEChem-02082415043D

 20 21  0     0  0  0  0  0  0999 V2000
    9.6876   10.6737   22.3565 C   0  0  0  0  0  0  0  0  0  0  0  0
   10.1579   11.9134   21.9131 C   0  0  0  0  0  0  0  0  0  0  0  0
    7.5852   11.4244   25.1697 C   0  0  0  0  0  0  0  0  0  0  0  0
    8.9263   13.0869   23.6576 C   0  0  0  0  0  0  0  0  0  0  0  0
    7.5152   10.0534   25.0796 C   0  0  0  0  0  0  0  0  0  0  0  0
    8.4415   11.8513   24.1206 C   0  0  0  0  0  0  0  0  0  0  0  0
    8.8354   10.6926   23.4591 C   0  0  0  0  0  0  0  0  0  0  0  0
    9.7856   13.0998   22.5503 C   0  0  0  0  0  0  0  0  0  0  0  0
   11.3617   14.1012   20.6483 N   0  0  0  0  0  0  0  0  0  0  0  0
    9.2809   15.3997   21.4418 O   0  0  0  0  0  0  0  0  0  0  0  0
   11.2682   15.1983   22.9773 O   0  0  0  0  0  0  0  0  0  0  0  0
    8.2699    9.5998   24.0450 O   0  0  0  0  0  0  0  0  0  0  0  0
   10.4000   14.6261   21.9589 S   0  0  0  0  0  0  0  0  0  0  0  0
    9.9718    9.7494   21.8676 H   0  0  0  0  0  0  0  0  0  0  0  0
   10.8257   11.9420   21.0549 H   0  0  0  0  0  0  0  0  0  0  0  0
    7.0816   12.0404   25.9012 H   0  0  0  0  0  0  0  0  0  0  0  0
    8.6390   14.0112   24.1506 H   0  0  0  0  0  0  0  0  0  0  0  0
    6.9980    9.2939   25.6474 H   0  0  0  0  0  0  0  0  0  0  0  0
   11.0261   14.2951   19.6968 H   0  0  0  0  0  0  0  0  0  0  0  0
   12.3827   14.1563   20.7477 H   0  0  0  0  0  0  0  0  0  0  0  0
  1  2  2  0  0  0  0
  1  7  1  0  0  0  0
  2  8  1  0  0  0  0
  3  5  2  0  0  0  0
  3  6  1  0  0  0  0
  4  6  1  0  0  0  0
  4  8  2  0  0  0  0
  5 12  1  0  0  0  0
  6  7  2  0  0  0  0
  7 12  1  0  0  0  0
  8 13  1  0  0  0  0
  9 13  1  0  0  0  0
 10 13  2  0  0  0  0
 11 13  2  0  0  0  0
  1 14  1  0  0  0  0
  2 15  1  0  0  0  0
  3 16  1  0  0  0  0
  4 17  1  0  0  0  0
  5 18  1  0  0  0  0
  9 19  1  0  0  0  0
  9 20  1  0  0  0  0
M  END
> <Mol Weight>
197,21

> <Formula>
C8H7NO3S

> <ID>
EN300-1987404

> <name>
Sulfonamides

> <LogP>
0,74

> <ROCS_ShapeQuery>
x0446_0A_x1080_0A_x0929_0A_x0812_0A_x0719_0A_x1140_0A_x0528_0A_x0310_0A

> <ROCS_TanimotoCombo>
0.334 

> <ROCS_ShapeTanimoto>
0.189 

> <ROCS_ColorTanimoto>
0.145 

> <ROCS_RefTversky>
0.174 

> <ROCS_RefColorTversky>
0.154 

> <ROCS_RefTverskyCombo>
0.328 

> <ROCS_FitTversky>
1.766 

> <ROCS_FitColorTversky>
0.722 

> <ROCS_FitTverskyCombo>
2.488 

> <ROCS_ColorScore>
-5.473

> <ROCS_Overlap>
2056.547

> <ROCS_Rank>
336                 

$$$$
untitled-dbase-1591_9
  -OEChem-02082415043D

 22 23  0     0  0  0  0  0  0999 V2000
    9.7733   10.3488   23.5602 C   0  0  0  0  0  0  0  0  0  0  0  0
    9.8729   11.5606   22.8767 C   0  0  0  0  0  0  0  0  0  0  0  0
    8.7476   10.1518   24.4849 C   0  0  0  0  0  0  0  0  0  0  0  0
    7.9213   12.3786   24.0425 C   0  0  0  0  0  0  0  0  0  0  0  0
   10.0841   14.6541   22.4475 C   0  0  0  0  0  0  0  0  0  0  0  0
    8.9470   12.5755   23.1178 C   0  0  0  0  0  0  0  0  0  0  0  0
    7.8216   11.1668   24.7260 C   0  0  0  0  0  0  0  0  0  0  0  0
    9.7781   15.6680   21.6712 N   0  0  0  0  0  0  0  0  0  0  0  0
    8.5207   15.3949   21.1821 N   0  0  0  0  0  0  0  0  0  0  0  0
    8.0681   14.2377   21.6491 N   0  0  0  0  0  0  0  0  0  0  0  0
    9.0470   13.7766   22.4399 N   0  0  0  0  0  0  0  0  0  0  0  0
    7.2794   11.4803   27.3168 N   0  0  0  0  0  0  0  0  0  0  0  0
    5.4368   11.8116   25.5446 O   0  0  0  0  0  0  0  0  0  0  0  0
    6.2971    9.4896   26.0095 O   0  0  0  0  0  0  0  0  0  0  0  0
    6.5377   10.9204   25.8830 S   0  0  0  0  0  0  0  0  0  0  0  0
   10.4942    9.5585   23.3720 H   0  0  0  0  0  0  0  0  0  0  0  0
   10.6776   11.7003   22.1587 H   0  0  0  0  0  0  0  0  0  0  0  0
    8.6799    9.2037   25.0116 H   0  0  0  0  0  0  0  0  0  0  0  0
    7.1971   13.1681   24.2317 H   0  0  0  0  0  0  0  0  0  0  0  0
   10.9987   14.5158   23.0063 H   0  0  0  0  0  0  0  0  0  0  0  0
    6.9555   12.3723   27.7104 H   0  0  0  0  0  0  0  0  0  0  0  0
    7.5440   10.7855   28.0257 H   0  0  0  0  0  0  0  0  0  0  0  0
  1  2  1  0  0  0  0
  1  3  2  0  0  0  0
  2  6  2  0  0  0  0
  3  7  1  0  0  0  0
  4  6  1  0  0  0  0
  4  7  2  0  0  0  0
  5  8  2  0  0  0  0
  5 11  1  0  0  0  0
  6 11  1  0  0  0  0
  7 15  1  0  0  0  0
  8  9  1  0  0  0  0
  9 10  2  0  0  0  0
 10 11  1  0  0  0  0
 12 15  1  0  0  0  0
 13 15  2  0  0  0  0
 14 15  2  0  0  0  0
  1 16  1  0  0  0  0
  2 17  1  0  0  0  0
  3 18  1  0  0  0  0
  4 19  1  0  0  0  0
  5 20  1  0  0  0  0
 12 21  1  0  0  0  0
 12 22  1  0  0  0  0
M  END
> <Mol Weight>
225,23

> <Formula>
C7H7N5O2S

> <ID>
EN300-08564

> <name>
Sulfonamides

> <LogP>
-0,38

> <ROCS_ShapeQuery>
x0446_0A_x1080_0A_x0929_0A_x0812_0A_x0719_0A_x1140_0A_x0528_0A_x0310_0A

> <ROCS_TanimotoCombo>
0.334 

> <ROCS_ShapeTanimoto>
0.186 

> <ROCS_ColorTanimoto>
0.148 

> <ROCS_RefTversky>
0.174 

> <ROCS_RefColorTversky>
0.165 

> <ROCS_RefTverskyCombo>
0.338 

> <ROCS_FitTversky>
1.632 

> <ROCS_FitColorTversky>
0.585 

> <ROCS_FitTverskyCombo>
2.216 

> <ROCS_ColorScore>
-5.897

> <ROCS_Overlap>
2047.078

> <ROCS_Rank>
337                 

$$$$
untitled-dbase-2733_31
  -OEChem-02082415043D

 31 32  0     1  0  0  0  0  0999 V2000
   10.6739   12.6508   23.2275 C   0  0  0  0  0  0  0  0  0  0  0  0
   11.7859   11.8236   23.0248 C   0  0  0  0  0  0  0  0  0  0  0  0
   10.4623    9.8500   23.4827 C   0  0  0  0  0  0  0  0  0  0  0  0
    9.3692   10.6794   23.6894 C   0  0  0  0  0  0  0  0  0  0  0  0
    9.4581   12.0713   23.5568 C   0  0  0  0  0  0  0  0  0  0  0  0
   11.6818   10.4332   23.1502 C   0  0  0  0  0  0  0  0  0  0  0  0
    7.7292   13.9472   23.6673 C   0  0  0  0  0  0  0  0  0  0  0  0
    7.9718   10.2452   23.9979 C   0  0  0  0  0  0  0  0  0  0  0  0
    7.3082   11.5838   24.3612 C   0  0  1  0  0  0  0  0  0  0  0  0
    7.1342   11.7239   25.8771 C   0  0  0  0  0  0  0  0  0  0  0  0
    8.2839   14.7975   22.5588 C   0  0  0  0  0  0  0  0  0  0  0  0
    8.1949   12.6514   23.8248 N   0  0  0  0  0  0  0  0  0  0  0  0
   12.4267    7.8747   23.1490 N   0  0  0  0  0  0  0  0  0  0  0  0
    6.8537   14.4327   24.3937 O   0  0  0  0  0  0  0  0  0  0  0  0
   13.4589    9.5396   21.4732 O   0  0  0  0  0  0  0  0  0  0  0  0
   14.0644    9.7108   23.9128 O   0  0  0  0  0  0  0  0  0  0  0  0
   13.0826    9.4284   22.8753 S   0  0  0  0  0  0  0  0  0  0  0  0
    6.9294   15.2026   21.5116 Cl  0  0  0  0  0  0  0  0  0  0  0  0
   10.8040   13.7250   23.1340 H   0  0  0  0  0  0  0  0  0  0  0  0
   12.7396   12.2800   22.7658 H   0  0  0  0  0  0  0  0  0  0  0  0
   10.3594    8.7728   23.5697 H   0  0  0  0  0  0  0  0  0  0  0  0
    7.5177    9.8174   23.0975 H   0  0  0  0  0  0  0  0  0  0  0  0
    7.9443    9.5140   24.8112 H   0  0  0  0  0  0  0  0  0  0  0  0
    6.3139   11.6555   23.8871 H   0  0  0  0  0  0  0  0  0  0  0  0
    8.1045   11.6557   26.3619 H   0  0  0  0  0  0  0  0  0  0  0  0
    6.4905   10.9287   26.2438 H   0  0  0  0  0  0  0  0  0  0  0  0
    6.6840   12.6868   26.1035 H   0  0  0  0  0  0  0  0  0  0  0  0
    9.0198   14.2210   22.0112 H   0  0  0  0  0  0  0  0  0  0  0  0
    8.7070   15.6978   22.9876 H   0  0  0  0  0  0  0  0  0  0  0  0
   12.2910    7.2592   22.3376 H   0  0  0  0  0  0  0  0  0  0  0  0
   12.7038    7.3785   24.0047 H   0  0  0  0  0  0  0  0  0  0  0  0
  1  2  2  0  0  0  0
  1  5  1  0  0  0  0
  2  6  1  0  0  0  0
  3  4  1  0  0  0  0
  3  6  2  0  0  0  0
  4  5  2  0  0  0  0
  4  8  1  0  0  0  0
  5 12  1  0  0  0  0
  6 17  1  0  0  0  0
  7 11  1  0  0  0  0
  7 12  1  0  0  0  0
  7 14  2  0  0  0  0
  8  9  1  0  0  0  0
  9 10  1  0  0  0  0
  9 12  1  0  0  0  0
 11 18  1  0  0  0  0
 13 17  1  0  0  0  0
 15 17  2  0  0  0  0
 16 17  2  0  0  0  0
  1 19  1  0  0  0  0
  2 20  1  0  0  0  0
  3 21  1  0  0  0  0
  8 22  1  0  0  0  0
  8 23  1  0  0  0  0
  9 24  1  0  0  0  0
 10 25  1  0  0  0  0
 10 26  1  0  0  0  0
 10 27  1  0  0  0  0
 11 28  1  0  0  0  0
 11 29  1  0  0  0  0
 13 30  1  0  0  0  0
 13 31  1  0  0  0  0
M  END
> <Mol Weight>
288,75

> <Formula>
C11H13ClN2O3S

> <ID>
EN300-23819

> <name>
Sulfonamides

> <LogP>
0,67

> <ROCS_ShapeQuery>
x0446_0A_x1080_0A_x0929_0A_x0812_0A_x0719_0A_x1140_0A_x0528_0A_x0310_0A

> <ROCS_TanimotoCombo>
0.334 

> <ROCS_ShapeTanimoto>
0.216 

> <ROCS_ColorTanimoto>
0.118 

> <ROCS_RefTversky>
0.198 

> <ROCS_RefColorTversky>
0.128 

> <ROCS_RefTverskyCombo>
0.326 

> <ROCS_FitTversky>
1.724 

> <ROCS_FitColorTversky>
0.601 

> <ROCS_FitTverskyCombo>
2.325 

> <ROCS_ColorScore>
-4.557

> <ROCS_Overlap>
2334.209

> <ROCS_Rank>
338                 

$$$$
untitled-dbase-1644_7
  -OEChem-02082415043D

 24 25  0     0  0  0  0  0  0999 V2000
    6.2139   10.8351   23.9254 C   0  0  0  0  0  0  0  0  0  0  0  0
    5.2964   11.8562   23.6752 C   0  0  0  0  0  0  0  0  0  0  0  0
    7.1109   13.4291   23.3808 C   0  0  0  0  0  0  0  0  0  0  0  0
    8.0277   12.4055   23.6327 C   0  0  0  0  0  0  0  0  0  0  0  0
    7.5825   11.1048   23.8883 C   0  0  0  0  0  0  0  0  0  0  0  0
    5.7441   13.1486   23.3990 C   0  0  0  0  0  0  0  0  0  0  0  0
    9.4770   12.6903   23.6788 C   0  0  0  0  0  0  0  0  0  0  0  0
   10.3644   11.5301   24.0461 C   0  0  0  0  0  0  0  0  0  0  0  0
    9.7226   10.2420   23.5650 C   0  0  0  0  0  0  0  0  0  0  0  0
    5.6326   15.7438   22.8013 N   0  0  0  0  0  0  0  0  0  0  0  0
    9.9138   13.8185   23.4859 O   0  0  0  0  0  0  0  0  0  0  0  0
    3.9135   14.0977   21.8111 O   0  0  0  0  0  0  0  0  0  0  0  0
    3.8088   14.6620   24.2643 O   0  0  0  0  0  0  0  0  0  0  0  0
    8.4272   10.0545   24.1416 O   0  0  0  0  0  0  0  0  0  0  0  0
    4.5902   14.4152   23.0606 S   0  0  0  0  0  0  0  0  0  0  0  0
    5.8545    9.8362   24.1576 H   0  0  0  0  0  0  0  0  0  0  0  0
    4.2330   11.6331   23.6980 H   0  0  0  0  0  0  0  0  0  0  0  0
    7.4503   14.4379   23.1610 H   0  0  0  0  0  0  0  0  0  0  0  0
   11.3383   11.6888   23.5711 H   0  0  0  0  0  0  0  0  0  0  0  0
   10.4887   11.5014   25.1329 H   0  0  0  0  0  0  0  0  0  0  0  0
    9.5946   10.2777   22.4780 H   0  0  0  0  0  0  0  0  0  0  0  0
   10.3478    9.3677   23.7900 H   0  0  0  0  0  0  0  0  0  0  0  0
    6.1179   16.1414   23.6149 H   0  0  0  0  0  0  0  0  0  0  0  0
    6.1892   15.7584   21.9380 H   0  0  0  0  0  0  0  0  0  0  0  0
  1  2  2  0  0  0  0
  1  5  1  0  0  0  0
  2  6  1  0  0  0  0
  3  4  1  0  0  0  0
  3  6  2  0  0  0  0
  4  5  2  0  0  0  0
  4  7  1  0  0  0  0
  5 14  1  0  0  0  0
  6 15  1  0  0  0  0
  7  8  1  0  0  0  0
  7 11  2  0  0  0  0
  8  9  1  0  0  0  0
  9 14  1  0  0  0  0
 10 15  1  0  0  0  0
 12 15  2  0  0  0  0
 13 15  2  0  0  0  0
  1 16  1  0  0  0  0
  2 17  1  0  0  0  0
  3 18  1  0  0  0  0
  8 19  1  0  0  0  0
  8 20  1  0  0  0  0
  9 21  1  0  0  0  0
  9 22  1  0  0  0  0
 10 23  1  0  0  0  0
 10 24  1  0  0  0  0
M  END
> <Mol Weight>
227,23

> <Formula>
C9H9NO4S

> <ID>
EN300-127834

> <name>
Sulfonamides

> <LogP>
-0,08

> <ROCS_ShapeQuery>
x0446_0A_x1080_0A_x0929_0A_x0812_0A_x0719_0A_x1140_0A_x0528_0A_x0310_0A

> <ROCS_TanimotoCombo>
0.334 

> <ROCS_ShapeTanimoto>
0.173 

> <ROCS_ColorTanimoto>
0.161 

> <ROCS_RefTversky>
0.163 

> <ROCS_RefColorTversky>
0.171 

> <ROCS_RefTverskyCombo>
0.334 

> <ROCS_FitTversky>
1.547 

> <ROCS_FitColorTversky>
0.718 

> <ROCS_FitTverskyCombo>
2.265 

> <ROCS_ColorScore>
-6.117

> <ROCS_Overlap>
1922.235

> <ROCS_Rank>
339                 

$$$$
untitled-dbase-2212_146
  -OEChem-02082415043D

 28 28  0     0  0  0  0  0  0999 V2000
    9.6581   10.3208   23.8028 C   0  0  0  0  0  0  0  0  0  0  0  0
    8.3047   10.4781   24.1013 C   0  0  0  0  0  0  0  0  0  0  0  0
   10.4216   11.4249   23.4236 C   0  0  0  0  0  0  0  0  0  0  0  0
    7.7147   11.7394   24.0205 C   0  0  0  0  0  0  0  0  0  0  0  0
    9.8316   12.6862   23.3427 C   0  0  0  0  0  0  0  0  0  0  0  0
    8.4781   12.8435   23.6411 C   0  0  0  0  0  0  0  0  0  0  0  0
    4.9906   15.3610   22.0162 C   0  0  0  0  0  0  0  0  0  0  0  0
   10.6688   13.8542   22.9356 C   0  0  0  0  0  0  0  0  0  0  0  0
    7.8225   14.1876   23.5607 C   0  0  0  0  0  0  0  0  0  0  0  0
   11.2474   13.6814   21.6282 N   0  0  0  0  0  0  0  0  0  0  0  0
    6.4014   15.7806   21.9382 N   0  0  0  0  0  0  0  0  0  0  0  0
    8.8559   15.1878   21.3740 O   0  0  0  0  0  0  0  0  0  0  0  0
    7.0689   13.4195   21.1843 O   0  0  0  0  0  0  0  0  0  0  0  0
    7.6205   14.5894   21.8403 S   0  0  0  0  0  0  0  0  0  0  0  0
   10.1168    9.3385   23.8651 H   0  0  0  0  0  0  0  0  0  0  0  0
    7.7107    9.6179   24.3963 H   0  0  0  0  0  0  0  0  0  0  0  0
   11.4750   11.2914   23.1915 H   0  0  0  0  0  0  0  0  0  0  0  0
    6.6595   11.8519   24.2554 H   0  0  0  0  0  0  0  0  0  0  0  0
    4.8416   14.4585   21.4053 H   0  0  0  0  0  0  0  0  0  0  0  0
    4.7304   15.1426   23.0624 H   0  0  0  0  0  0  0  0  0  0  0  0
    4.3465   16.1692   21.6393 H   0  0  0  0  0  0  0  0  0  0  0  0
   10.0740   14.7772   22.9155 H   0  0  0  0  0  0  0  0  0  0  0  0
   11.4933   14.0215   23.6409 H   0  0  0  0  0  0  0  0  0  0  0  0
    8.4314   14.9690   24.0240 H   0  0  0  0  0  0  0  0  0  0  0  0
    6.8343   14.1902   24.0295 H   0  0  0  0  0  0  0  0  0  0  0  0
   10.5175   13.6125   20.9496 H   0  0  0  0  0  0  0  0  0  0  0  0
   11.8282   14.4665   21.4176 H   0  0  0  0  0  0  0  0  0  0  0  0
    6.6172   16.6227   22.4875 H   0  0  0  0  0  0  0  0  0  0  0  0
  1  2  1  0  0  0  0
  1  3  2  0  0  0  0
  2  4  2  0  0  0  0
  3  5  1  0  0  0  0
  4  6  1  0  0  0  0
  5  6  2  0  0  0  0
  5  8  1  0  0  0  0
  6  9  1  0  0  0  0
  7 11  1  0  0  0  0
  8 10  1  0  0  0  0
  9 14  1  0  0  0  0
 11 14  1  0  0  0  0
 12 14  2  0  0  0  0
 13 14  2  0  0  0  0
  1 15  1  0  0  0  0
  2 16  1  0  0  0  0
  3 17  1  0  0  0  0
  4 18  1  0  0  0  0
  7 19  1  0  0  0  0
  7 20  1  0  0  0  0
  7 21  1  0  0  0  0
  8 22  1  0  0  0  0
  8 23  1  0  0  0  0
  9 24  1  0  0  0  0
  9 25  1  0  0  0  0
 10 26  1  0  0  0  0
 10 27  1  0  0  0  0
 11 28  1  0  0  0  0
M  END
> <Mol Weight>
250,74

> <Formula>
C9H15ClN2O2S

> <ID>
EN300-50324

> <name>
Sulfonamides

> <LogP>
-0,31

> <ROCS_ShapeQuery>
x0446_0A_x1080_0A_x0929_0A_x0812_0A_x0719_0A_x1140_0A_x0528_0A_x0310_0A

> <ROCS_TanimotoCombo>
0.334 

> <ROCS_ShapeTanimoto>
0.196 

> <ROCS_ColorTanimoto>
0.138 

> <ROCS_RefTversky>
0.180 

> <ROCS_RefColorTversky>
0.147 

> <ROCS_RefTverskyCombo>
0.327 

> <ROCS_FitTversky>
1.816 

> <ROCS_FitColorTversky>
0.692 

> <ROCS_FitTverskyCombo>
2.508 

> <ROCS_ColorScore>
-5.233

> <ROCS_Overlap>
2120.612

> <ROCS_Rank>
340                 

$$$$
untitled-dbase-1268_146
  -OEChem-02082415043D

 28 28  0     0  0  0  0  0  0999 V2000
    9.6581   10.3208   23.8028 C   0  0  0  0  0  0  0  0  0  0  0  0
    8.3047   10.4781   24.1013 C   0  0  0  0  0  0  0  0  0  0  0  0
   10.4216   11.4249   23.4236 C   0  0  0  0  0  0  0  0  0  0  0  0
    7.7147   11.7394   24.0205 C   0  0  0  0  0  0  0  0  0  0  0  0
    9.8316   12.6862   23.3427 C   0  0  0  0  0  0  0  0  0  0  0  0
    8.4781   12.8435   23.6411 C   0  0  0  0  0  0  0  0  0  0  0  0
    4.9906   15.3610   22.0162 C   0  0  0  0  0  0  0  0  0  0  0  0
   10.6688   13.8542   22.9356 C   0  0  0  0  0  0  0  0  0  0  0  0
    7.8225   14.1876   23.5607 C   0  0  0  0  0  0  0  0  0  0  0  0
   11.2474   13.6814   21.6282 N   0  0  0  0  0  0  0  0  0  0  0  0
    6.4014   15.7806   21.9382 N   0  0  0  0  0  0  0  0  0  0  0  0
    8.8559   15.1878   21.3740 O   0  0  0  0  0  0  0  0  0  0  0  0
    7.0689   13.4195   21.1843 O   0  0  0  0  0  0  0  0  0  0  0  0
    7.6205   14.5894   21.8403 S   0  0  0  0  0  0  0  0  0  0  0  0
   10.1168    9.3385   23.8651 H   0  0  0  0  0  0  0  0  0  0  0  0
    7.7107    9.6179   24.3963 H   0  0  0  0  0  0  0  0  0  0  0  0
   11.4750   11.2914   23.1915 H   0  0  0  0  0  0  0  0  0  0  0  0
    6.6595   11.8519   24.2554 H   0  0  0  0  0  0  0  0  0  0  0  0
    4.8416   14.4585   21.4053 H   0  0  0  0  0  0  0  0  0  0  0  0
    4.7304   15.1426   23.0624 H   0  0  0  0  0  0  0  0  0  0  0  0
    4.3465   16.1692   21.6393 H   0  0  0  0  0  0  0  0  0  0  0  0
   10.0740   14.7772   22.9155 H   0  0  0  0  0  0  0  0  0  0  0  0
   11.4933   14.0215   23.6409 H   0  0  0  0  0  0  0  0  0  0  0  0
    8.4314   14.9690   24.0240 H   0  0  0  0  0  0  0  0  0  0  0  0
    6.8343   14.1902   24.0295 H   0  0  0  0  0  0  0  0  0  0  0  0
   10.5175   13.6125   20.9496 H   0  0  0  0  0  0  0  0  0  0  0  0
   11.8282   14.4665   21.4176 H   0  0  0  0  0  0  0  0  0  0  0  0
    6.6172   16.6227   22.4875 H   0  0  0  0  0  0  0  0  0  0  0  0
  1  2  1  0  0  0  0
  1  3  2  0  0  0  0
  2  4  2  0  0  0  0
  3  5  1  0  0  0  0
  4  6  1  0  0  0  0
  5  6  2  0  0  0  0
  5  8  1  0  0  0  0
  6  9  1  0  0  0  0
  7 11  1  0  0  0  0
  8 10  1  0  0  0  0
  9 14  1  0  0  0  0
 11 14  1  0  0  0  0
 12 14  2  0  0  0  0
 13 14  2  0  0  0  0
  1 15  1  0  0  0  0
  2 16  1  0  0  0  0
  3 17  1  0  0  0  0
  4 18  1  0  0  0  0
  7 19  1  0  0  0  0
  7 20  1  0  0  0  0
  7 21  1  0  0  0  0
  8 22  1  0  0  0  0
  8 23  1  0  0  0  0
  9 24  1  0  0  0  0
  9 25  1  0  0  0  0
 10 26  1  0  0  0  0
 10 27  1  0  0  0  0
 11 28  1  0  0  0  0
M  END
> <Mol Weight>
214,28

> <Formula>
C9H14N2O2S

> <ID>
EN300-24003

> <name>
Sulfonamides

> <LogP>
-0,31

> <ROCS_ShapeQuery>
x0446_0A_x1080_0A_x0929_0A_x0812_0A_x0719_0A_x1140_0A_x0528_0A_x0310_0A

> <ROCS_TanimotoCombo>
0.334 

> <ROCS_ShapeTanimoto>
0.196 

> <ROCS_ColorTanimoto>
0.138 

> <ROCS_RefTversky>
0.180 

> <ROCS_RefColorTversky>
0.147 

> <ROCS_RefTverskyCombo>
0.327 

> <ROCS_FitTversky>
1.816 

> <ROCS_FitColorTversky>
0.692 

> <ROCS_FitTverskyCombo>
2.508 

> <ROCS_ColorScore>
-5.233

> <ROCS_Overlap>
2120.612

> <ROCS_Rank>
341                 

$$$$
untitled-dbase-989_24
  -OEChem-02082415043D

 23 23  0     1  0  0  0  0  0999 V2000
    9.6440   10.0370   23.4335 C   0  0  0  0  0  0  0  0  0  0  0  0
    9.0314   10.0671   24.6862 C   0  0  0  0  0  0  0  0  0  0  0  0
    9.4328   11.0773   22.5286 C   0  0  0  0  0  0  0  0  0  0  0  0
    8.2074   11.1375   25.0341 C   0  0  0  0  0  0  0  0  0  0  0  0
    8.6088   12.1477   22.8764 C   0  0  0  0  0  0  0  0  0  0  0  0
    7.9961   12.1778   24.1292 C   0  0  0  0  0  0  0  0  0  0  0  0
    7.0506   13.9947   22.0458 C   0  0  0  0  0  0  0  0  0  0  0  0
    8.3854   13.2583   21.9061 C   0  0  1  0  0  0  0  0  0  0  0  0
   10.9157   13.5674   21.1624 N   0  0  0  0  0  0  0  0  0  0  0  0
    9.3815   15.6190   21.3944 O   0  0  0  0  0  0  0  0  0  0  0  0
   10.1414   14.3962   23.4711 O   0  0  0  0  0  0  0  0  0  0  0  0
    7.2029   13.2021   24.4725 F   0  0  0  0  0  0  0  0  0  0  0  0
    9.7409   14.3928   22.0783 S   0  0  0  0  0  0  0  0  0  0  0  0
   10.2854    9.2031   23.1623 H   0  0  0  0  0  0  0  0  0  0  0  0
    9.1955    9.2569   25.3905 H   0  0  0  0  0  0  0  0  0  0  0  0
    9.9137   11.0449   21.5546 H   0  0  0  0  0  0  0  0  0  0  0  0
    7.7305   11.1614   26.0096 H   0  0  0  0  0  0  0  0  0  0  0  0
    6.9283   14.3837   23.0622 H   0  0  0  0  0  0  0  0  0  0  0  0
    6.9697   14.8350   21.3483 H   0  0  0  0  0  0  0  0  0  0  0  0
    6.2092   13.3249   21.8360 H   0  0  0  0  0  0  0  0  0  0  0  0
    8.4509   12.8917   20.8681 H   0  0  0  0  0  0  0  0  0  0  0  0
   11.3140   12.7062   21.5566 H   0  0  0  0  0  0  0  0  0  0  0  0
   10.7965   13.5392   20.1423 H   0  0  0  0  0  0  0  0  0  0  0  0
  1  2  1  0  0  0  0
  1  3  2  0  0  0  0
  2  4  2  0  0  0  0
  3  5  1  0  0  0  0
  4  6  1  0  0  0  0
  5  6  2  0  0  0  0
  5  8  1  0  0  0  0
  6 12  1  0  0  0  0
  7  8  1  0  0  0  0
  8 13  1  0  0  0  0
  9 13  1  0  0  0  0
 10 13  2  0  0  0  0
 11 13  2  0  0  0  0
  1 14  1  0  0  0  0
  2 15  1  0  0  0  0
  3 16  1  0  0  0  0
  4 17  1  0  0  0  0
  7 18  1  0  0  0  0
  7 19  1  0  0  0  0
  7 20  1  0  0  0  0
  8 21  1  0  0  0  0
  9 22  1  0  0  0  0
  9 23  1  0  0  0  0
M  END
> <Mol Weight>
203,23

> <Formula>
C8H10FNO2S

> <ID>
EN300-200528

> <name>
Sulfonamides

> <LogP>
1,05

> <ROCS_ShapeQuery>
x0446_0A_x1080_0A_x0929_0A_x0812_0A_x0719_0A_x1140_0A_x0528_0A_x0310_0A

> <ROCS_TanimotoCombo>
0.333 

> <ROCS_ShapeTanimoto>
0.188 

> <ROCS_ColorTanimoto>
0.146 

> <ROCS_RefTversky>
0.173 

> <ROCS_RefColorTversky>
0.148 

> <ROCS_RefTverskyCombo>
0.321 

> <ROCS_FitTversky>
1.799 

> <ROCS_FitColorTversky>
0.927 

> <ROCS_FitTverskyCombo>
2.726 

> <ROCS_ColorScore>
-5.248

> <ROCS_Overlap>
2040.821

> <ROCS_Rank>
342                 

$$$$
untitled-dbase-1513_3
  -OEChem-02082415043D

 25 26  0     0  0  0  0  0  0999 V2000
   11.8725   12.5667   23.0456 C   0  0  0  0  0  0  0  0  0  0  0  0
   11.4448   11.3672   23.6142 C   0  0  0  0  0  0  0  0  0  0  0  0
   10.9387   13.4958   22.5926 C   0  0  0  0  0  0  0  0  0  0  0  0
    7.7627   11.7306   23.4040 C   0  0  0  0  0  0  0  0  0  0  0  0
    7.4002   10.5215   23.9778 C   0  0  0  0  0  0  0  0  0  0  0  0
    9.5899    9.9048   24.2941 C   0  0  0  0  0  0  0  0  0  0  0  0
   10.0731   11.0887   23.7334 C   0  0  0  0  0  0  0  0  0  0  0  0
    9.1247   12.0268   23.2761 C   0  0  0  0  0  0  0  0  0  0  0  0
    9.5731   13.2296   22.7062 C   0  0  0  0  0  0  0  0  0  0  0  0
    7.4122   16.4827   23.6471 C   0  0  0  0  0  0  0  0  0  0  0  0
    8.2791    9.6002   24.4266 N   0  0  0  0  0  0  0  0  0  0  0  0
    7.7916   15.0660   23.5487 N   0  0  0  0  0  0  0  0  0  0  0  0
    9.2622   15.5128   21.4813 O   0  0  0  0  0  0  0  0  0  0  0  0
    7.4395   13.7859   21.3419 O   0  0  0  0  0  0  0  0  0  0  0  0
    8.4747   14.4624   22.1057 S   0  0  0  0  0  0  0  0  0  0  0  0
   12.9343   12.7757   22.9558 H   0  0  0  0  0  0  0  0  0  0  0  0
   12.1870   10.6534   23.9638 H   0  0  0  0  0  0  0  0  0  0  0  0
   11.2892   14.4260   22.1523 H   0  0  0  0  0  0  0  0  0  0  0  0
    6.9799   12.4054   23.0743 H   0  0  0  0  0  0  0  0  0  0  0  0
    6.3544   10.2559   24.0941 H   0  0  0  0  0  0  0  0  0  0  0  0
   10.2665    9.1400   24.6653 H   0  0  0  0  0  0  0  0  0  0  0  0
    7.1981   16.8761   22.6424 H   0  0  0  0  0  0  0  0  0  0  0  0
    6.5158   16.5792   24.2772 H   0  0  0  0  0  0  0  0  0  0  0  0
    8.2389   17.0532   24.0956 H   0  0  0  0  0  0  0  0  0  0  0  0
    8.0141   14.5965   24.4349 H   0  0  0  0  0  0  0  0  0  0  0  0
  1  2  1  0  0  0  0
  1  3  2  0  0  0  0
  2  7  2  0  0  0  0
  3  9  1  0  0  0  0
  4  5  2  0  0  0  0
  4  8  1  0  0  0  0
  5 11  1  0  0  0  0
  6  7  1  0  0  0  0
  6 11  2  0  0  0  0
  7  8  1  0  0  0  0
  8  9  2  0  0  0  0
  9 15  1  0  0  0  0
 10 12  1  0  0  0  0
 12 15  1  0  0  0  0
 13 15  2  0  0  0  0
 14 15  2  0  0  0  0
  1 16  1  0  0  0  0
  2 17  1  0  0  0  0
  3 18  1  0  0  0  0
  4 19  1  0  0  0  0
  5 20  1  0  0  0  0
  6 21  1  0  0  0  0
 10 22  1  0  0  0  0
 10 23  1  0  0  0  0
 10 24  1  0  0  0  0
 12 25  1  0  0  0  0
M  END
> <Mol Weight>
222,26

> <Formula>
C10H10N2O2S

> <ID>
EN300-203911

> <name>
Sulfonamides

> <LogP>
0,57

> <ROCS_ShapeQuery>
x0446_0A_x1080_0A_x0929_0A_x0812_0A_x0719_0A_x1140_0A_x0528_0A_x0310_0A

> <ROCS_TanimotoCombo>
0.333 

> <ROCS_ShapeTanimoto>
0.193 

> <ROCS_ColorTanimoto>
0.140 

> <ROCS_RefTversky>
0.179 

> <ROCS_RefColorTversky>
0.149 

> <ROCS_RefTverskyCombo>
0.328 

> <ROCS_FitTversky>
1.698 

> <ROCS_FitColorTversky>
0.703 

> <ROCS_FitTverskyCombo>
2.400 

> <ROCS_ColorScore>
-5.317

> <ROCS_Overlap>
2109.933

> <ROCS_Rank>
343                 

$$$$
untitled-dbase-2425_248
  -OEChem-02082415043D

 26 26  0     0  0  0  0  0  0999 V2000
    8.3919   12.8066   24.0071 C   0  0  0  0  0  0  0  0  0  0  0  0
    8.1507   10.4035   23.9499 C   0  0  0  0  0  0  0  0  0  0  0  0
    9.6896   11.4992   22.4438 C   0  0  0  0  0  0  0  0  0  0  0  0
    7.7985   11.6403   24.4900 C   0  0  0  0  0  0  0  0  0  0  0  0
    9.3374   12.7361   22.9840 C   0  0  0  0  0  0  0  0  0  0  0  0
    9.0962   10.3329   22.9268 C   0  0  0  0  0  0  0  0  0  0  0  0
    6.8126   11.7142   25.5562 C   0  0  0  0  0  0  0  0  0  0  0  0
    7.2860   13.7165   27.9591 C   0  0  0  0  0  0  0  0  0  0  0  0
    6.7445   12.3058   27.8668 C   0  0  0  0  0  0  0  0  0  0  0  0
   11.1197   13.5608   21.1818 N   0  0  0  0  0  0  0  0  0  0  0  0
    5.5940   11.8408   25.3760 O   0  0  0  0  0  0  0  0  0  0  0  0
    9.0535   15.0005   21.7328 O   0  0  0  0  0  0  0  0  0  0  0  0
   10.8910   14.7759   23.4419 O   0  0  0  0  0  0  0  0  0  0  0  0
    7.3977   11.6251   26.7899 O   0  0  0  0  0  0  0  0  0  0  0  0
   10.0805   14.1962   22.3800 S   0  0  0  0  0  0  0  0  0  0  0  0
    9.5302    8.8070   22.2595 Cl  0  0  0  0  0  0  0  0  0  0  0  0
    8.1177   13.7711   24.4282 H   0  0  0  0  0  0  0  0  0  0  0  0
    7.6856    9.4959   24.3286 H   0  0  0  0  0  0  0  0  0  0  0  0
   10.4274   11.4482   21.6464 H   0  0  0  0  0  0  0  0  0  0  0  0
    8.3623   13.7093   28.1525 H   0  0  0  0  0  0  0  0  0  0  0  0
    7.0975   14.2639   27.0297 H   0  0  0  0  0  0  0  0  0  0  0  0
    6.7866   14.2697   28.7613 H   0  0  0  0  0  0  0  0  0  0  0  0
    5.6677   12.3201   27.6732 H   0  0  0  0  0  0  0  0  0  0  0  0
    6.9344   11.7600   28.7957 H   0  0  0  0  0  0  0  0  0  0  0  0
   10.8762   13.7237   20.1971 H   0  0  0  0  0  0  0  0  0  0  0  0
   12.1302   13.5693   21.3664 H   0  0  0  0  0  0  0  0  0  0  0  0
  1  4  2  0  0  0  0
  1  5  1  0  0  0  0
  2  4  1  0  0  0  0
  2  6  2  0  0  0  0
  3  5  2  0  0  0  0
  3  6  1  0  0  0  0
  4  7  1  0  0  0  0
  5 15  1  0  0  0  0
  6 16  1  0  0  0  0
  7 11  2  0  0  0  0
  7 14  1  0  0  0  0
  8  9  1  0  0  0  0
  9 14  1  0  0  0  0
 10 15  1  0  0  0  0
 12 15  2  0  0  0  0
 13 15  2  0  0  0  0
  1 17  1  0  0  0  0
  2 18  1  0  0  0  0
  3 19  1  0  0  0  0
  8 20  1  0  0  0  0
  8 21  1  0  0  0  0
  8 22  1  0  0  0  0
  9 23  1  0  0  0  0
  9 24  1  0  0  0  0
 10 25  1  0  0  0  0
 10 26  1  0  0  0  0
M  END
> <Mol Weight>
263,69

> <Formula>
C9H10ClNO4S

> <ID>
EN300-219473

> <name>
Sulfonamides

> <LogP>
1,54

> <ROCS_ShapeQuery>
x0446_0A_x1080_0A_x0929_0A_x0812_0A_x0719_0A_x1140_0A_x0528_0A_x0310_0A

> <ROCS_TanimotoCombo>
0.333 

> <ROCS_ShapeTanimoto>
0.191 

> <ROCS_ColorTanimoto>
0.143 

> <ROCS_RefTversky>
0.177 

> <ROCS_RefColorTversky>
0.148 

> <ROCS_RefTverskyCombo>
0.325 

> <ROCS_FitTversky>
1.670 

> <ROCS_FitColorTversky>
0.796 

> <ROCS_FitTverskyCombo>
2.466 

> <ROCS_ColorScore>
-5.263

> <ROCS_Overlap>
2091.544

> <ROCS_Rank>
344                 

$$$$
untitled-dbase-1701_202
  -OEChem-02082415043D

 26 26  0     0  0  0  0  0  0999 V2000
    9.0491    9.8502   23.9136 C   0  0  0  0  0  0  0  0  0  0  0  0
    8.0612   10.3389   24.7685 C   0  0  0  0  0  0  0  0  0  0  0  0
    9.5695   10.6671   22.9099 C   0  0  0  0  0  0  0  0  0  0  0  0
    8.1139   12.4616   23.6158 C   0  0  0  0  0  0  0  0  0  0  0  0
    7.5936   11.6446   24.6196 C   0  0  0  0  0  0  0  0  0  0  0  0
    9.1018   11.9728   22.7609 C   0  0  0  0  0  0  0  0  0  0  0  0
    6.5636   12.1541   25.5106 C   0  0  0  0  0  0  0  0  0  0  0  0
    6.0716   13.8401   27.1256 C   0  0  0  0  0  0  0  0  0  0  0  0
   11.7676   14.4072   21.4034 C   0  0  0  0  0  0  0  0  0  0  0  0
    9.6353   12.8080   21.7330 N   0  0  0  0  0  0  0  0  0  0  0  0
    5.4323   11.6640   25.6263 O   0  0  0  0  0  0  0  0  0  0  0  0
    9.3447   15.3537   21.4399 O   0  0  0  0  0  0  0  0  0  0  0  0
   10.3399   14.5086   23.5941 O   0  0  0  0  0  0  0  0  0  0  0  0
    6.9988   13.2463   26.2106 O   0  0  0  0  0  0  0  0  0  0  0  0
   10.1581   14.3922   22.1608 S   0  0  0  0  0  0  0  0  0  0  0  0
    9.4138    8.8336   24.0300 H   0  0  0  0  0  0  0  0  0  0  0  0
    7.6627    9.6932   25.5470 H   0  0  0  0  0  0  0  0  0  0  0  0
   10.3388   10.2761   22.2488 H   0  0  0  0  0  0  0  0  0  0  0  0
    7.7499   13.4801   23.4994 H   0  0  0  0  0  0  0  0  0  0  0  0
    6.5405   14.6967   27.6161 H   0  0  0  0  0  0  0  0  0  0  0  0
    5.7695   13.1002   27.8711 H   0  0  0  0  0  0  0  0  0  0  0  0
    5.1919   14.1767   26.5720 H   0  0  0  0  0  0  0  0  0  0  0  0
   12.2303   15.3762   21.5971 H   0  0  0  0  0  0  0  0  0  0  0  0
   12.3623   13.6048   21.8425 H   0  0  0  0  0  0  0  0  0  0  0  0
   11.6448   14.2497   20.3308 H   0  0  0  0  0  0  0  0  0  0  0  0
    9.1289   12.7502   20.8341 H   0  0  0  0  0  0  0  0  0  0  0  0
  1  2  2  0  0  0  0
  1  3  1  0  0  0  0
  2  5  1  0  0  0  0
  3  6  2  0  0  0  0
  4  5  2  0  0  0  0
  4  6  1  0  0  0  0
  5  7  1  0  0  0  0
  6 10  1  0  0  0  0
  7 11  2  0  0  0  0
  7 14  1  0  0  0  0
  8 14  1  0  0  0  0
  9 15  1  0  0  0  0
 10 15  1  0  0  0  0
 12 15  2  0  0  0  0
 13 15  2  0  0  0  0
  1 16  1  0  0  0  0
  2 17  1  0  0  0  0
  3 18  1  0  0  0  0
  4 19  1  0  0  0  0
  8 20  1  0  0  0  0
  8 21  1  0  0  0  0
  8 22  1  0  0  0  0
  9 23  1  0  0  0  0
  9 24  1  0  0  0  0
  9 25  1  0  0  0  0
 10 26  1  0  0  0  0
M  END
> <Mol Weight>
229,25

> <Formula>
C9H11NO4S

> <ID>
EN300-318985

> <name>
Sulfonamides

> <LogP>
0,35

> <ROCS_ShapeQuery>
x0446_0A_x1080_0A_x0929_0A_x0812_0A_x0719_0A_x1140_0A_x0528_0A_x0310_0A

> <ROCS_TanimotoCombo>
0.333 

> <ROCS_ShapeTanimoto>
0.191 

> <ROCS_ColorTanimoto>
0.142 

> <ROCS_RefTversky>
0.177 

> <ROCS_RefColorTversky>
0.148 

> <ROCS_RefTverskyCombo>
0.325 

> <ROCS_FitTversky>
1.712 

> <ROCS_FitColorTversky>
0.794 

> <ROCS_FitTverskyCombo>
2.506 

> <ROCS_ColorScore>
-5.249

> <ROCS_Overlap>
2090.013

> <ROCS_Rank>
345                 

$$$$
untitled-dbase-2457_845
  -OEChem-02082415043D

 37 37  0     1  0  0  0  0  0999 V2000
   10.8730   13.4121   22.8910 C   0  0  0  0  0  0  0  0  0  0  0  0
    8.2640   10.7582   23.0823 C   0  0  0  0  0  0  0  0  0  0  0  0
    8.8991   12.0527   24.6813 C   0  0  0  0  0  0  0  0  0  0  0  0
    9.6216   11.3462   23.5166 C   0  0  2  0  0  0  0  0  0  0  0  0
    7.5520   11.7845   23.9839 C   0  0  1  0  0  0  0  0  0  0  0  0
   13.6395   13.8988   22.3819 C   0  0  0  0  0  0  0  0  0  0  0  0
   12.8440   15.4155   20.5445 C   0  0  0  0  0  0  0  0  0  0  0  0
   12.2463   15.9216   22.9309 C   0  0  0  0  0  0  0  0  0  0  0  0
    4.2111   12.4921   23.4021 C   0  0  0  0  0  0  0  0  0  0  0  0
   12.5129   14.8166   21.9098 C   0  0  0  0  0  0  0  0  0  0  0  0
   10.2231   12.2528   22.5434 N   0  0  0  0  0  0  0  0  0  0  0  0
    5.4036   12.5036   22.5358 N   0  0  0  0  0  0  0  0  0  0  0  0
   11.0345   13.8355   24.0309 O   0  0  0  0  0  0  0  0  0  0  0  0
    6.5485   14.2073   24.1110 O   0  0  0  0  0  0  0  0  0  0  0  0
    7.7155   13.4804   21.9976 O   0  0  0  0  0  0  0  0  0  0  0  0
   11.3214   14.0362   21.7610 O   0  0  0  0  0  0  0  0  0  0  0  0
    6.8552   13.1818   23.1295 S   0  0  0  0  0  0  0  0  0  0  0  0
    8.0438   10.8617   22.0040 H   0  0  0  0  0  0  0  0  0  0  0  0
    8.1005    9.7021   23.3532 H   0  0  0  0  0  0  0  0  0  0  0  0
    9.0200   11.5762   25.6681 H   0  0  0  0  0  0  0  0  0  0  0  0
    9.1529   13.1225   24.7965 H   0  0  0  0  0  0  0  0  0  0  0  0
   10.3450   10.5854   23.8454 H   0  0  0  0  0  0  0  0  0  0  0  0
    6.8009   11.3316   24.6489 H   0  0  0  0  0  0  0  0  0  0  0  0
   13.4057   13.4669   23.3616 H   0  0  0  0  0  0  0  0  0  0  0  0
   13.8171   13.0816   21.6751 H   0  0  0  0  0  0  0  0  0  0  0  0
   14.5738   14.4583   22.5059 H   0  0  0  0  0  0  0  0  0  0  0  0
   12.0383   16.0747   20.2019 H   0  0  0  0  0  0  0  0  0  0  0  0
   12.9428   14.6294   19.7871 H   0  0  0  0  0  0  0  0  0  0  0  0
   13.7752   15.9907   20.5708 H   0  0  0  0  0  0  0  0  0  0  0  0
   11.4382   16.5802   22.5924 H   0  0  0  0  0  0  0  0  0  0  0  0
   11.9709   15.5105   23.9075 H   0  0  0  0  0  0  0  0  0  0  0  0
   13.1304   16.5570   23.0573 H   0  0  0  0  0  0  0  0  0  0  0  0
    4.1901   13.4086   24.0102 H   0  0  0  0  0  0  0  0  0  0  0  0
    3.3058   12.4449   22.7791 H   0  0  0  0  0  0  0  0  0  0  0  0
    4.2471   11.6141   24.0637 H   0  0  0  0  0  0  0  0  0  0  0  0
   10.1580   12.0153   21.5630 H   0  0  0  0  0  0  0  0  0  0  0  0
    5.4909   11.6737   21.9351 H   0  0  0  0  0  0  0  0  0  0  0  0
  1 11  1  0  0  0  0
  1 13  2  0  0  0  0
  1 16  1  0  0  0  0
  2  4  1  0  0  0  0
  2  5  1  0  0  0  0
  3  4  1  0  0  0  0
  3  5  1  0  0  0  0
  4 11  1  1  0  0  0
  5 17  1  1  0  0  0
  6 10  1  0  0  0  0
  7 10  1  0  0  0  0
  8 10  1  0  0  0  0
  9 12  1  0  0  0  0
 10 16  1  0  0  0  0
 12 17  1  0  0  0  0
 14 17  2  0  0  0  0
 15 17  2  0  0  0  0
  2 18  1  0  0  0  0
  2 19  1  0  0  0  0
  3 20  1  0  0  0  0
  3 21  1  0  0  0  0
  4 22  1  0  0  0  0
  5 23  1  0  0  0  0
  6 24  1  0  0  0  0
  6 25  1  0  0  0  0
  6 26  1  0  0  0  0
  7 27  1  0  0  0  0
  7 28  1  0  0  0  0
  7 29  1  0  0  0  0
  8 30  1  0  0  0  0
  8 31  1  0  0  0  0
  8 32  1  0  0  0  0
  9 33  1  0  0  0  0
  9 34  1  0  0  0  0
  9 35  1  0  0  0  0
 11 36  1  0  0  0  0
 12 37  1  0  0  0  0
M  END
> <Mol Weight>
264,34

> <Formula>
C10H20N2O4S

> <ID>
EN300-27780168

> <name>
Sulfonamides

> <LogP>
-0,24

> <ROCS_ShapeQuery>
x0446_0A_x1080_0A_x0929_0A_x0812_0A_x0719_0A_x1140_0A_x0528_0A_x0310_0A

> <ROCS_TanimotoCombo>
0.333 

> <ROCS_ShapeTanimoto>
0.194 

> <ROCS_ColorTanimoto>
0.139 

> <ROCS_RefTversky>
0.180 

> <ROCS_RefColorTversky>
0.152 

> <ROCS_RefTverskyCombo>
0.332 

> <ROCS_FitTversky>
1.653 

> <ROCS_FitColorTversky>
0.635 

> <ROCS_FitTverskyCombo>
2.288 

> <ROCS_ColorScore>
-5.406

> <ROCS_Overlap>
2124.733

> <ROCS_Rank>
346                 

$$$$
untitled-dbase-2388_2
  -OEChem-02082415043D

 30 32  0     0  0  0  0  0  0999 V2000
   11.7904   11.8814   22.7176 C   0  0  0  0  0  0  0  0  0  0  0  0
   11.9757   10.7490   23.5071 C   0  0  0  0  0  0  0  0  0  0  0  0
   10.5360   12.4959   22.6318 C   0  0  0  0  0  0  0  0  0  0  0  0
   10.9169   10.1973   24.2332 C   0  0  0  0  0  0  0  0  0  0  0  0
    6.1372   11.4404   24.7230 C   0  0  0  0  0  0  0  0  0  0  0  0
    5.3601   12.4696   24.1851 C   0  0  0  0  0  0  0  0  0  0  0  0
    7.2675   13.3459   22.9667 C   0  0  0  0  0  0  0  0  0  0  0  0
    9.4511   11.9574   23.3553 C   0  0  0  0  0  0  0  0  0  0  0  0
    8.0728   12.3159   23.4965 C   0  0  0  0  0  0  0  0  0  0  0  0
    9.6685   10.8227   24.1372 C   0  0  0  0  0  0  0  0  0  0  0  0
    7.4882   11.3898   24.3606 C   0  0  0  0  0  0  0  0  0  0  0  0
    5.9148   13.4095   23.3197 C   0  0  0  0  0  0  0  0  0  0  0  0
    8.2704    9.3806   25.6271 C   0  0  0  0  0  0  0  0  0  0  0  0
    8.4707   10.5023   24.7314 N   0  0  0  0  0  0  0  0  0  0  0  0
    6.0458   15.5247   21.7031 N   0  0  0  0  0  0  0  0  0  0  0  0
    3.9130   14.0797   21.7974 O   0  0  0  0  0  0  0  0  0  0  0  0
    4.4950   15.5483   23.7601 O   0  0  0  0  0  0  0  0  0  0  0  0
    4.9130   14.6834   22.6662 S   0  0  0  0  0  0  0  0  0  0  0  0
   12.6279   12.2940   22.1615 H   0  0  0  0  0  0  0  0  0  0  0  0
   12.9584   10.2873   23.5606 H   0  0  0  0  0  0  0  0  0  0  0  0
   10.4073   13.3788   22.0120 H   0  0  0  0  0  0  0  0  0  0  0  0
   11.0672    9.3148   24.8463 H   0  0  0  0  0  0  0  0  0  0  0  0
    5.6988   10.7116   25.3966 H   0  0  0  0  0  0  0  0  0  0  0  0
    4.3076   12.5270   24.4543 H   0  0  0  0  0  0  0  0  0  0  0  0
    7.6964   14.0809   22.2908 H   0  0  0  0  0  0  0  0  0  0  0  0
    8.4644    9.7242   26.6466 H   0  0  0  0  0  0  0  0  0  0  0  0
    7.2423    9.0197   25.5345 H   0  0  0  0  0  0  0  0  0  0  0  0
    8.9585    8.5748   25.3566 H   0  0  0  0  0  0  0  0  0  0  0  0
    5.9619   15.4469   20.6821 H   0  0  0  0  0  0  0  0  0  0  0  0
    6.3597   16.4485   22.0246 H   0  0  0  0  0  0  0  0  0  0  0  0
  1  2  1  0  0  0  0
  1  3  2  0  0  0  0
  2  4  2  0  0  0  0
  3  8  1  0  0  0  0
  4 10  1  0  0  0  0
  5  6  2  0  0  0  0
  5 11  1  0  0  0  0
  6 12  1  0  0  0  0
  7  9  1  0  0  0  0
  7 12  2  0  0  0  0
  8  9  1  0  0  0  0
  8 10  2  0  0  0  0
  9 11  2  0  0  0  0
 10 14  1  0  0  0  0
 11 14  1  0  0  0  0
 12 18  1  0  0  0  0
 13 14  1  0  0  0  0
 15 18  1  0  0  0  0
 16 18  2  0  0  0  0
 17 18  2  0  0  0  0
  1 19  1  0  0  0  0
  2 20  1  0  0  0  0
  3 21  1  0  0  0  0
  4 22  1  0  0  0  0
  5 23  1  0  0  0  0
  6 24  1  0  0  0  0
  7 25  1  0  0  0  0
 13 26  1  0  0  0  0
 13 27  1  0  0  0  0
 13 28  1  0  0  0  0
 15 29  1  0  0  0  0
 15 30  1  0  0  0  0
M  END
> <Mol Weight>
260,31

> <Formula>
C13H12N2O2S

> <ID>
EN300-257205

> <name>
Sulfonamides

> <LogP>
1,92

> <ROCS_ShapeQuery>
x0446_0A_x1080_0A_x0929_0A_x0812_0A_x0719_0A_x1140_0A_x0528_0A_x0310_0A

> <ROCS_TanimotoCombo>
0.333 

> <ROCS_ShapeTanimoto>
0.198 

> <ROCS_ColorTanimoto>
0.135 

> <ROCS_RefTversky>
0.185 

> <ROCS_RefColorTversky>
0.144 

> <ROCS_RefTverskyCombo>
0.329 

> <ROCS_FitTversky>
1.567 

> <ROCS_FitColorTversky>
0.676 

> <ROCS_FitTverskyCombo>
2.243 

> <ROCS_ColorScore>
-5.134

> <ROCS_Overlap>
2185.828

> <ROCS_Rank>
347                 

$$$$
untitled-dbase-2346_1
  -OEChem-02082415043D

 25 26  0     0  0  0  0  0  0999 V2000
    6.9283   11.9050   20.9815 C   0  0  0  0  0  0  0  0  0  0  0  0
    6.9869   10.8963   21.9388 C   0  0  0  0  0  0  0  0  0  0  0  0
    7.8266   12.9629   21.0441 C   0  0  0  0  0  0  0  0  0  0  0  0
    8.9877   10.0177   24.9398 C   0  0  0  0  0  0  0  0  0  0  0  0
    7.9470   10.9438   22.9639 C   0  0  0  0  0  0  0  0  0  0  0  0
    8.8622   12.0150   23.0337 C   0  0  0  0  0  0  0  0  0  0  0  0
    8.7810   13.0099   22.0633 C   0  0  0  0  0  0  0  0  0  0  0  0
    8.0284    9.9419   23.9404 C   0  0  0  0  0  0  0  0  0  0  0  0
    9.8393   11.1037   24.9258 C   0  0  0  0  0  0  0  0  0  0  0  0
   10.8872   11.2272   25.9810 C   0  0  0  0  0  0  0  0  0  0  0  0
    9.7943   12.0912   24.0024 N   0  0  0  0  0  0  0  0  0  0  0  0
   11.1592   13.7651   21.1260 N   0  0  0  0  0  0  0  0  0  0  0  0
    9.2523   15.4795   21.3908 O   0  0  0  0  0  0  0  0  0  0  0  0
   10.3646   14.5449   23.4492 O   0  0  0  0  0  0  0  0  0  0  0  0
    9.8868   14.3732   22.0875 S   0  0  0  0  0  0  0  0  0  0  0  0
    6.9714    8.5684   23.9834 Cl  0  0  0  0  0  0  0  0  0  0  0  0
    6.1852   11.8644   20.1909 H   0  0  0  0  0  0  0  0  0  0  0  0
    6.2694   10.0848   21.8543 H   0  0  0  0  0  0  0  0  0  0  0  0
    7.7768   13.7480   20.2943 H   0  0  0  0  0  0  0  0  0  0  0  0
    9.0716    9.2561   25.7088 H   0  0  0  0  0  0  0  0  0  0  0  0
   11.8126   10.7353   25.6584 H   0  0  0  0  0  0  0  0  0  0  0  0
   11.1095   12.2795   26.1994 H   0  0  0  0  0  0  0  0  0  0  0  0
   10.5589   10.7692   26.9228 H   0  0  0  0  0  0  0  0  0  0  0  0
   11.2832   14.1618   20.1864 H   0  0  0  0  0  0  0  0  0  0  0  0
   12.0410   13.5222   21.5937 H   0  0  0  0  0  0  0  0  0  0  0  0
  1  2  2  0  0  0  0
  1  3  1  0  0  0  0
  2  5  1  0  0  0  0
  3  7  2  0  0  0  0
  4  8  2  0  0  0  0
  4  9  1  0  0  0  0
  5  6  2  0  0  0  0
  5  8  1  0  0  0  0
  6  7  1  0  0  0  0
  6 11  1  0  0  0  0
  7 15  1  0  0  0  0
  8 16  1  0  0  0  0
  9 10  1  0  0  0  0
  9 11  2  0  0  0  0
 12 15  1  0  0  0  0
 13 15  2  0  0  0  0
 14 15  2  0  0  0  0
  1 17  1  0  0  0  0
  2 18  1  0  0  0  0
  3 19  1  0  0  0  0
  4 20  1  0  0  0  0
 10 21  1  0  0  0  0
 10 22  1  0  0  0  0
 10 23  1  0  0  0  0
 12 24  1  0  0  0  0
 12 25  1  0  0  0  0
M  END
> <Mol Weight>
256,70

> <Formula>
C10H9ClN2O2S

> <ID>
EN300-7432011

> <name>
Sulfonamides

> <LogP>
1,47

> <ROCS_ShapeQuery>
x0446_0A_x1080_0A_x0929_0A_x0812_0A_x0719_0A_x1140_0A_x0528_0A_x0310_0A

> <ROCS_TanimotoCombo>
0.333 

> <ROCS_ShapeTanimoto>
0.156 

> <ROCS_ColorTanimoto>
0.177 

> <ROCS_RefTversky>
0.150 

> <ROCS_RefColorTversky>
0.182 

> <ROCS_RefTverskyCombo>
0.332 

> <ROCS_FitTversky>
1.379 

> <ROCS_FitColorTversky>
0.858 

> <ROCS_FitTverskyCombo>
2.237 

> <ROCS_ColorScore>
-6.492

> <ROCS_Overlap>
1769.093

> <ROCS_Rank>
348                 

$$$$
untitled-dbase-1343_30
  -OEChem-02082415043D

 27 27  0     0  0  0  0  0  0999 V2000
    7.8772   12.1111   25.0301 C   0  0  0  0  0  0  0  0  0  0  0  0
    9.4425   12.3927   23.2115 C   0  0  0  0  0  0  0  0  0  0  0  0
    7.9146   10.7287   24.8483 C   0  0  0  0  0  0  0  0  0  0  0  0
    9.4799   11.0102   23.0297 C   0  0  0  0  0  0  0  0  0  0  0  0
    8.6411   12.9432   24.2117 C   0  0  0  0  0  0  0  0  0  0  0  0
    8.7160   10.1782   23.8481 C   0  0  0  0  0  0  0  0  0  0  0  0
    7.9486    8.0377   24.5444 C   0  0  0  0  0  0  0  0  0  0  0  0
    8.6016   14.4211   24.4063 C   0  0  0  0  0  0  0  0  0  0  0  0
    7.5178   15.1203   23.5811 C   0  0  0  0  0  0  0  0  0  0  0  0
    6.3616   15.7351   21.2710 N   0  0  0  0  0  0  0  0  0  0  0  0
    8.9175   15.4776   21.4038 O   0  0  0  0  0  0  0  0  0  0  0  0
    7.4521   13.4275   21.5916 O   0  0  0  0  0  0  0  0  0  0  0  0
    8.7534    8.8291   23.6718 O   0  0  0  0  0  0  0  0  0  0  0  0
    7.6914   14.8372   21.8471 S   0  0  0  0  0  0  0  0  0  0  0  0
    7.2500   12.5313   25.8118 H   0  0  0  0  0  0  0  0  0  0  0  0
   10.0410   13.0334   22.5689 H   0  0  0  0  0  0  0  0  0  0  0  0
    7.3174   10.0857   25.4894 H   0  0  0  0  0  0  0  0  0  0  0  0
   10.1064   10.5876   22.2491 H   0  0  0  0  0  0  0  0  0  0  0  0
    8.0713    6.9807   24.2959 H   0  0  0  0  0  0  0  0  0  0  0  0
    6.9004    8.3285   24.4387 H   0  0  0  0  0  0  0  0  0  0  0  0
    8.2694    8.2069   25.5750 H   0  0  0  0  0  0  0  0  0  0  0  0
    9.5767   14.8546   24.1236 H   0  0  0  0  0  0  0  0  0  0  0  0
    8.4672   14.6794   25.4711 H   0  0  0  0  0  0  0  0  0  0  0  0
    6.5270   14.7396   23.8490 H   0  0  0  0  0  0  0  0  0  0  0  0
    7.5227   16.2041   23.7321 H   0  0  0  0  0  0  0  0  0  0  0  0
    6.5565   16.6104   20.7696 H   0  0  0  0  0  0  0  0  0  0  0  0
    5.5585   15.2142   20.8978 H   0  0  0  0  0  0  0  0  0  0  0  0
  1  3  2  0  0  0  0
  1  5  1  0  0  0  0
  2  4  1  0  0  0  0
  2  5  2  0  0  0  0
  3  6  1  0  0  0  0
  4  6  2  0  0  0  0
  5  8  1  0  0  0  0
  6 13  1  0  0  0  0
  7 13  1  0  0  0  0
  8  9  1  0  0  0  0
  9 14  1  0  0  0  0
 10 14  1  0  0  0  0
 11 14  2  0  0  0  0
 12 14  2  0  0  0  0
  1 15  1  0  0  0  0
  2 16  1  0  0  0  0
  3 17  1  0  0  0  0
  4 18  1  0  0  0  0
  7 19  1  0  0  0  0
  7 20  1  0  0  0  0
  7 21  1  0  0  0  0
  8 22  1  0  0  0  0
  8 23  1  0  0  0  0
  9 24  1  0  0  0  0
  9 25  1  0  0  0  0
 10 26  1  0  0  0  0
 10 27  1  0  0  0  0
M  END
> <Mol Weight>
215,27

> <Formula>
C9H13NO3S

> <ID>
EN300-156117

> <name>
Sulfonamides

> <LogP>
0,47

> <ROCS_ShapeQuery>
x0446_0A_x1080_0A_x0929_0A_x0812_0A_x0719_0A_x1140_0A_x0528_0A_x0310_0A

> <ROCS_TanimotoCombo>
0.333 

> <ROCS_ShapeTanimoto>
0.180 

> <ROCS_ColorTanimoto>
0.154 

> <ROCS_RefTversky>
0.167 

> <ROCS_RefColorTversky>
0.158 

> <ROCS_RefTverskyCombo>
0.325 

> <ROCS_FitTversky>
1.692 

> <ROCS_FitColorTversky>
0.849 

> <ROCS_FitTverskyCombo>
2.542 

> <ROCS_ColorScore>
-5.616

> <ROCS_Overlap>
1973.744

> <ROCS_Rank>
349                 

$$$$
untitled-dbase-1757_95
  -OEChem-02082415043D

 26 26  0     1  0  0  0  0  0999 V2000
    8.0951   10.3658   24.5996 C   0  0  0  0  0  0  0  0  0  0  0  0
    9.5981   10.3543   22.7393 C   0  0  0  0  0  0  0  0  0  0  0  0
    8.4079   11.8387   24.8291 C   0  0  0  0  0  0  0  0  0  0  0  0
    9.9407   11.8263   22.9941 C   0  0  1  0  0  0  0  0  0  0  0  0
   11.9220   15.1596   20.2034 C   0  0  0  0  0  0  0  0  0  0  0  0
    9.2128   12.7960   22.0647 C   0  0  0  0  0  0  0  0  0  0  0  0
    8.2445   10.0145   23.1858 N   0  0  0  0  0  0  0  0  0  0  0  0
   11.3002   14.0359   20.9268 N   0  0  0  0  0  0  0  0  0  0  0  0
    9.1157   15.3312   21.4215 O   0  0  0  0  0  0  0  0  0  0  0  0
   10.5986   14.6093   23.3285 O   0  0  0  0  0  0  0  0  0  0  0  0
    9.7220   12.1590   24.3710 O   0  0  0  0  0  0  0  0  0  0  0  0
   10.0209   14.3585   22.0158 S   0  0  0  0  0  0  0  0  0  0  0  0
    8.7630    9.7393   25.2045 H   0  0  0  0  0  0  0  0  0  0  0  0
    7.0674   10.1416   24.9183 H   0  0  0  0  0  0  0  0  0  0  0  0
    9.6852   10.1168   21.6630 H   0  0  0  0  0  0  0  0  0  0  0  0
   10.3208    9.6997   23.2565 H   0  0  0  0  0  0  0  0  0  0  0  0
    7.7002   12.4617   24.2683 H   0  0  0  0  0  0  0  0  0  0  0  0
    8.3138   12.1133   25.8895 H   0  0  0  0  0  0  0  0  0  0  0  0
   11.0575   11.9667   22.8040 H   0  0  0  0  0  0  0  0  0  0  0  0
   11.1530   15.9050   19.9522 H   0  0  0  0  0  0  0  0  0  0  0  0
   12.6897   15.6249   20.8391 H   0  0  0  0  0  0  0  0  0  0  0  0
   12.3877   14.7875   19.2789 H   0  0  0  0  0  0  0  0  0  0  0  0
    8.1932   12.9638   22.4116 H   0  0  0  0  0  0  0  0  0  0  0  0
    9.1903   12.4052   21.0477 H   0  0  0  0  0  0  0  0  0  0  0  0
    8.1035    9.0128   23.0782 H   0  0  0  0  0  0  0  0  0  0  0  0
   11.9616   13.2960   21.1960 H   0  0  0  0  0  0  0  0  0  0  0  0
  1  3  1  0  0  0  0
  1  7  1  0  0  0  0
  2  4  1  0  0  0  0
  2  7  1  0  0  0  0
  3 11  1  0  0  0  0
  4  6  1  0  0  0  0
  4 11  1  0  0  0  0
  5  8  1  0  0  0  0
  6 12  1  0  0  0  0
  8 12  1  0  0  0  0
  9 12  2  0  0  0  0
 10 12  2  0  0  0  0
  1 13  1  0  0  0  0
  1 14  1  0  0  0  0
  2 15  1  0  0  0  0
  2 16  1  0  0  0  0
  3 17  1  0  0  0  0
  3 18  1  0  0  0  0
  4 19  1  0  0  0  0
  5 20  1  0  0  0  0
  5 21  1  0  0  0  0
  5 22  1  0  0  0  0
  6 23  1  0  0  0  0
  6 24  1  0  0  0  0
  7 25  1  0  0  0  0
  8 26  1  0  0  0  0
M  END
> <Mol Weight>
230,71

> <Formula>
C6H15ClN2O3S

> <ID>
EN300-321134

> <name>
Sulfonamides

> <LogP>
-1,68

> <ROCS_ShapeQuery>
x0446_0A_x1080_0A_x0929_0A_x0812_0A_x0719_0A_x1140_0A_x0528_0A_x0310_0A

> <ROCS_TanimotoCombo>
0.333 

> <ROCS_ShapeTanimoto>
0.164 

> <ROCS_ColorTanimoto>
0.169 

> <ROCS_RefTversky>
0.154 

> <ROCS_RefColorTversky>
0.179 

> <ROCS_RefTverskyCombo>
0.333 

> <ROCS_FitTversky>
1.689 

> <ROCS_FitColorTversky>
0.750 

> <ROCS_FitTverskyCombo>
2.440 

> <ROCS_ColorScore>
-6.389

> <ROCS_Overlap>
1814.200

> <ROCS_Rank>
350                 

$$$$
untitled-dbase-1460_34
  -OEChem-02082415043D

 23 23  0     0  0  0  0  0  0999 V2000
    8.0297   10.4961   24.6215 C   0  0  0  0  0  0  0  0  0  0  0  0
    7.9426   11.8628   24.8863 C   0  0  0  0  0  0  0  0  0  0  0  0
    8.8591   10.0352   23.5991 C   0  0  0  0  0  0  0  0  0  0  0  0
    9.5141   12.3078   23.1060 C   0  0  0  0  0  0  0  0  0  0  0  0
    8.6847   12.7687   24.1286 C   0  0  0  0  0  0  0  0  0  0  0  0
    9.6012   10.9411   22.8413 C   0  0  0  0  0  0  0  0  0  0  0  0
    8.5901   14.2300   24.4115 C   0  0  0  0  0  0  0  0  0  0  0  0
    7.4890   14.9387   23.6180 C   0  0  0  0  0  0  0  0  0  0  0  0
    6.3316   15.6505   21.3366 N   0  0  0  0  0  0  0  0  0  0  0  0
    8.8939   15.4767   21.4816 O   0  0  0  0  0  0  0  0  0  0  0  0
    7.5021   13.3681   21.5297 O   0  0  0  0  0  0  0  0  0  0  0  0
    7.6880   14.7674   21.8722 S   0  0  0  0  0  0  0  0  0  0  0  0
   10.6235   10.3720   21.5792 Cl  0  0  0  0  0  0  0  0  0  0  0  0
    7.4515    9.7910   25.2117 H   0  0  0  0  0  0  0  0  0  0  0  0
    7.2937   12.2129   25.6849 H   0  0  0  0  0  0  0  0  0  0  0  0
    8.9169    8.9672   23.4037 H   0  0  0  0  0  0  0  0  0  0  0  0
   10.0911   13.0181   22.5184 H   0  0  0  0  0  0  0  0  0  0  0  0
    9.5514   14.7140   24.1661 H   0  0  0  0  0  0  0  0  0  0  0  0
    8.4371   14.4181   25.4883 H   0  0  0  0  0  0  0  0  0  0  0  0
    6.5104   14.5073   23.8516 H   0  0  0  0  0  0  0  0  0  0  0  0
    7.4532   16.0108   23.8339 H   0  0  0  0  0  0  0  0  0  0  0  0
    6.4992   16.5610   20.8909 H   0  0  0  0  0  0  0  0  0  0  0  0
    5.5512   15.1249   20.9239 H   0  0  0  0  0  0  0  0  0  0  0  0
  1  2  2  0  0  0  0
  1  3  1  0  0  0  0
  2  5  1  0  0  0  0
  3  6  2  0  0  0  0
  4  5  2  0  0  0  0
  4  6  1  0  0  0  0
  5  7  1  0  0  0  0
  6 13  1  0  0  0  0
  7  8  1  0  0  0  0
  8 12  1  0  0  0  0
  9 12  1  0  0  0  0
 10 12  2  0  0  0  0
 11 12  2  0  0  0  0
  1 14  1  0  0  0  0
  2 15  1  0  0  0  0
  3 16  1  0  0  0  0
  4 17  1  0  0  0  0
  7 18  1  0  0  0  0
  7 19  1  0  0  0  0
  8 20  1  0  0  0  0
  8 21  1  0  0  0  0
  9 22  1  0  0  0  0
  9 23  1  0  0  0  0
M  END
> <Mol Weight>
219,68

> <Formula>
C8H10ClNO2S

> <ID>
EN300-209625

> <name>
Sulfonamides

> <LogP>
1,23

> <ROCS_ShapeQuery>
x0446_0A_x1080_0A_x0929_0A_x0812_0A_x0719_0A_x1140_0A_x0528_0A_x0310_0A

> <ROCS_TanimotoCombo>
0.333 

> <ROCS_ShapeTanimoto>
0.182 

> <ROCS_ColorTanimoto>
0.151 

> <ROCS_RefTversky>
0.168 

> <ROCS_RefColorTversky>
0.152 

> <ROCS_RefTverskyCombo>
0.321 

> <ROCS_FitTversky>
1.781 

> <ROCS_FitColorTversky>
0.956 

> <ROCS_FitTverskyCombo>
2.737 

> <ROCS_ColorScore>
-5.413

> <ROCS_Overlap>
1986.232

> <ROCS_Rank>
351                 

$$$$
untitled-dbase-1190_1
  -OEChem-02082415043D

 22 23  0     0  0  0  0  0  0999 V2000
    8.7660   12.9608   24.1887 C   0  0  0  0  0  0  0  0  0  0  0  0
    6.3413   12.7693   25.1695 C   0  0  0  0  0  0  0  0  0  0  0  0
    9.4646   10.7642   23.5220 C   0  0  0  0  0  0  0  0  0  0  0  0
    7.5621   12.3690   24.5909 C   0  0  0  0  0  0  0  0  0  0  0  0
    9.7370   12.1230   23.6399 C   0  0  0  0  0  0  0  0  0  0  0  0
    7.4208   11.0011   24.4167 C   0  0  0  0  0  0  0  0  0  0  0  0
    5.5687    9.3808   24.9164 C   0  0  0  0  0  0  0  0  0  0  0  0
    8.3181   10.1461   23.8958 N   0  0  0  0  0  0  0  0  0  0  0  0
    5.4945   11.7503   25.3497 N   0  0  0  0  0  0  0  0  0  0  0  0
    6.1778   10.6894   24.8831 N   0  0  0  0  0  0  0  0  0  0  0  0
   10.9145   13.1537   21.4821 N   0  0  0  0  0  0  0  0  0  0  0  0
   11.5202   14.0083   23.8375 O   0  0  0  0  0  0  0  0  0  0  0  0
   12.2577   11.7040   23.1347 O   0  0  0  0  0  0  0  0  0  0  0  0
   11.2658   12.7713   23.1106 S   0  0  0  0  0  0  0  0  0  0  0  0
    8.9342   14.0269   24.3002 H   0  0  0  0  0  0  0  0  0  0  0  0
    6.0311   13.7609   25.4671 H   0  0  0  0  0  0  0  0  0  0  0  0
   10.2063   10.0916   23.0973 H   0  0  0  0  0  0  0  0  0  0  0  0
    5.8224    8.9148   25.8722 H   0  0  0  0  0  0  0  0  0  0  0  0
    4.4844    9.4812   24.8158 H   0  0  0  0  0  0  0  0  0  0  0  0
    5.9516    8.7827   24.0847 H   0  0  0  0  0  0  0  0  0  0  0  0
   10.8309   14.1452   21.2265 H   0  0  0  0  0  0  0  0  0  0  0  0
   11.3335   12.5697   20.7481 H   0  0  0  0  0  0  0  0  0  0  0  0
  1  4  1  0  0  0  0
  1  5  2  0  0  0  0
  2  4  1  0  0  0  0
  2  9  2  0  0  0  0
  3  5  1  0  0  0  0
  3  8  2  0  0  0  0
  4  6  2  0  0  0  0
  5 14  1  0  0  0  0
  6  8  1  0  0  0  0
  6 10  1  0  0  0  0
  7 10  1  0  0  0  0
  9 10  1  0  0  0  0
 11 14  1  0  0  0  0
 12 14  2  0  0  0  0
 13 14  2  0  0  0  0
  1 15  1  0  0  0  0
  2 16  1  0  0  0  0
  3 17  1  0  0  0  0
  7 18  1  0  0  0  0
  7 19  1  0  0  0  0
  7 20  1  0  0  0  0
 11 21  1  0  0  0  0
 11 22  1  0  0  0  0
M  END
> <Mol Weight>
212,23

> <Formula>
C7H8N4O2S

> <ID>
EN300-138959

> <name>
Sulfonamides

> <LogP>
-0,82

> <ROCS_ShapeQuery>
x0446_0A_x1080_0A_x0929_0A_x0812_0A_x0719_0A_x1140_0A_x0528_0A_x0310_0A

> <ROCS_TanimotoCombo>
0.333 

> <ROCS_ShapeTanimoto>
0.192 

> <ROCS_ColorTanimoto>
0.141 

> <ROCS_RefTversky>
0.178 

> <ROCS_RefColorTversky>
0.153 

> <ROCS_RefTverskyCombo>
0.331 

> <ROCS_FitTversky>
1.729 

> <ROCS_FitColorTversky>
0.640 

> <ROCS_FitTverskyCombo>
2.369 

> <ROCS_ColorScore>
-5.458

> <ROCS_Overlap>
2098.729

> <ROCS_Rank>
352                 

$$$$
untitled-dbase-2575_1
  -OEChem-02082415043D

 34 36  0     0  0  0  0  0  0999 V2000
    5.9485   13.3123   24.3073 C   0  0  0  0  0  0  0  0  0  0  0  0
    5.4033   12.0723   24.6772 C   0  0  0  0  0  0  0  0  0  0  0  0
    7.2983   13.4288   23.9642 C   0  0  0  0  0  0  0  0  0  0  0  0
   10.4464   13.0336   23.2934 C   0  0  0  0  0  0  0  0  0  0  0  0
    6.1975   10.9247   24.7103 C   0  0  0  0  0  0  0  0  0  0  0  0
   11.7508   12.5838   23.0706 C   0  0  0  0  0  0  0  0  0  0  0  0
   11.1271   10.3055   23.6585 C   0  0  0  0  0  0  0  0  0  0  0  0
    8.0875   12.2899   23.9972 C   0  0  0  0  0  0  0  0  0  0  0  0
    9.4919   12.1135   23.6977 C   0  0  0  0  0  0  0  0  0  0  0  0
    7.5368   11.0427   24.3694 C   0  0  0  0  0  0  0  0  0  0  0  0
    9.8333   10.7541   23.8793 C   0  0  0  0  0  0  0  0  0  0  0  0
   12.0879   11.2328   23.2513 C   0  0  0  0  0  0  0  0  0  0  0  0
    8.6090    9.9521   24.3251 C   0  0  0  0  0  0  0  0  0  0  0  0
    8.8285    9.3392   25.7128 C   0  0  0  0  0  0  0  0  0  0  0  0
    8.2537    8.8724   23.2970 C   0  0  0  0  0  0  0  0  0  0  0  0
   13.6529   10.3001   21.3056 N   0  0  0  0  0  0  0  0  0  0  0  0
   14.6123   11.8531   23.1259 O   0  0  0  0  0  0  0  0  0  0  0  0
   13.9670    9.4944   23.7323 O   0  0  0  0  0  0  0  0  0  0  0  0
   13.7293   10.7072   22.9630 S   0  0  0  0  0  0  0  0  0  0  0  0
    5.3109   14.1926   24.2883 H   0  0  0  0  0  0  0  0  0  0  0  0
    4.3507   12.0069   24.9396 H   0  0  0  0  0  0  0  0  0  0  0  0
    7.7049   14.3941   23.6815 H   0  0  0  0  0  0  0  0  0  0  0  0
   10.2018   14.0808   23.1499 H   0  0  0  0  0  0  0  0  0  0  0  0
    5.7706    9.9699   24.9967 H   0  0  0  0  0  0  0  0  0  0  0  0
   12.5078   13.2970   22.7528 H   0  0  0  0  0  0  0  0  0  0  0  0
   11.3830    9.2605   23.7997 H   0  0  0  0  0  0  0  0  0  0  0  0
    9.5932    8.5691   25.6533 H   0  0  0  0  0  0  0  0  0  0  0  0
    7.8999    8.8991   26.0669 H   0  0  0  0  0  0  0  0  0  0  0  0
    9.1487   10.1132   26.4056 H   0  0  0  0  0  0  0  0  0  0  0  0
    9.0299    8.1115   23.2856 H   0  0  0  0  0  0  0  0  0  0  0  0
    8.1745    9.3217   22.3104 H   0  0  0  0  0  0  0  0  0  0  0  0
    7.3040    8.4153   23.5629 H   0  0  0  0  0  0  0  0  0  0  0  0
   14.1297   10.9161   20.6358 H   0  0  0  0  0  0  0  0  0  0  0  0
   13.6871    9.3053   21.0518 H   0  0  0  0  0  0  0  0  0  0  0  0
  1  2  1  0  0  0  0
  1  3  2  0  0  0  0
  2  5  2  0  0  0  0
  3  8  1  0  0  0  0
  4  6  2  0  0  0  0
  4  9  1  0  0  0  0
  5 10  1  0  0  0  0
  6 12  1  0  0  0  0
  7 11  1  0  0  0  0
  7 12  2  0  0  0  0
  8  9  1  0  0  0  0
  8 10  2  0  0  0  0
  9 11  2  0  0  0  0
 10 13  1  0  0  0  0
 11 13  1  0  0  0  0
 12 19  1  0  0  0  0
 13 14  1  0  0  0  0
 13 15  1  0  0  0  0
 16 19  1  0  0  0  0
 17 19  2  0  0  0  0
 18 19  2  0  0  0  0
  1 20  1  0  0  0  0
  2 21  1  0  0  0  0
  3 22  1  0  0  0  0
  4 23  1  0  0  0  0
  5 24  1  0  0  0  0
  6 25  1  0  0  0  0
  7 26  1  0  0  0  0
 14 27  1  0  0  0  0
 14 28  1  0  0  0  0
 14 29  1  0  0  0  0
 15 30  1  0  0  0  0
 15 31  1  0  0  0  0
 15 32  1  0  0  0  0
 16 33  1  0  0  0  0
 16 34  1  0  0  0  0
M  END
> <Mol Weight>
273,35

> <Formula>
C15H15NO2S

> <ID>
EN300-27150370

> <name>
Sulfonamides

> <LogP>
2,93

> <ROCS_ShapeQuery>
x0446_0A_x1080_0A_x0929_0A_x0812_0A_x0719_0A_x1140_0A_x0528_0A_x0310_0A

> <ROCS_TanimotoCombo>
0.333 

> <ROCS_ShapeTanimoto>
0.214 

> <ROCS_ColorTanimoto>
0.119 

> <ROCS_RefTversky>
0.198 

> <ROCS_RefColorTversky>
0.132 

> <ROCS_RefTverskyCombo>
0.329 

> <ROCS_FitTversky>
1.638 

> <ROCS_FitColorTversky>
0.550 

> <ROCS_FitTverskyCombo>
2.188 

> <ROCS_ColorScore>
-4.702

> <ROCS_Overlap>
2333.754

> <ROCS_Rank>
353                 

$$$$
untitled-dbase-1723_718
  -OEChem-02082415043D

 30 30  0     1  0  0  0  0  0999 V2000
    8.0337    9.7649   23.8860 C   0  0  0  0  0  0  0  0  0  0  0  0
    9.3354    9.5549   23.4311 C   0  0  0  0  0  0  0  0  0  0  0  0
    7.6448   11.0296   24.3277 C   0  0  0  0  0  0  0  0  0  0  0  0
   10.2484   10.6094   23.4181 C   0  0  0  0  0  0  0  0  0  0  0  0
    8.5577   12.0841   24.3147 C   0  0  0  0  0  0  0  0  0  0  0  0
    9.8595   11.8741   23.8599 C   0  0  0  0  0  0  0  0  0  0  0  0
    8.8231   16.6238   23.0924 C   0  0  0  0  0  0  0  0  0  0  0  0
   10.8411   13.0089   23.8464 C   0  0  0  0  0  0  0  0  0  0  0  0
    9.8146   14.4298   22.2811 C   0  0  0  0  0  0  0  0  0  0  0  0
    8.6858   15.4472   22.1350 C   0  0  1  0  0  0  0  0  0  0  0  0
    6.1309   15.7266   21.4676 N   0  0  0  0  0  0  0  0  0  0  0  0
    7.1572   13.3775   21.6802 O   0  0  0  0  0  0  0  0  0  0  0  0
    6.7635   14.7531   23.7630 O   0  0  0  0  0  0  0  0  0  0  0  0
   10.1379   14.2282   23.6504 O   0  0  0  0  0  0  0  0  0  0  0  0
    7.1114   14.6571   22.3594 S   0  0  0  0  0  0  0  0  0  0  0  0
    7.3226    8.9440   23.8948 H   0  0  0  0  0  0  0  0  0  0  0  0
    9.6381    8.5705   23.0861 H   0  0  0  0  0  0  0  0  0  0  0  0
    6.6311   11.1937   24.6809 H   0  0  0  0  0  0  0  0  0  0  0  0
   11.2606   10.4365   23.0622 H   0  0  0  0  0  0  0  0  0  0  0  0
    8.2458   13.0660   24.6609 H   0  0  0  0  0  0  0  0  0  0  0  0
    8.8349   16.2809   24.1320 H   0  0  0  0  0  0  0  0  0  0  0  0
    7.9824   17.3164   22.9757 H   0  0  0  0  0  0  0  0  0  0  0  0
    9.7404   17.1929   22.9072 H   0  0  0  0  0  0  0  0  0  0  0  0
   11.3915   13.0620   24.7919 H   0  0  0  0  0  0  0  0  0  0  0  0
   11.5704   12.8811   23.0392 H   0  0  0  0  0  0  0  0  0  0  0  0
    9.5096   13.4660   21.8600 H   0  0  0  0  0  0  0  0  0  0  0  0
   10.7164   14.7665   21.7590 H   0  0  0  0  0  0  0  0  0  0  0  0
    8.6770   15.8201   21.1043 H   0  0  0  0  0  0  0  0  0  0  0  0
    5.9541   16.6584   21.8627 H   0  0  0  0  0  0  0  0  0  0  0  0
    6.2221   15.7213   20.4443 H   0  0  0  0  0  0  0  0  0  0  0  0
  1  2  1  0  0  0  0
  1  3  2  0  0  0  0
  2  4  2  0  0  0  0
  3  5  1  0  0  0  0
  4  6  1  0  0  0  0
  5  6  2  0  0  0  0
  6  8  1  0  0  0  0
  7 10  1  1  0  0  0
  8 14  1  0  0  0  0
  9 10  1  0  0  0  0
  9 14  1  0  0  0  0
 10 15  1  0  0  0  0
 11 15  1  0  0  0  0
 12 15  2  0  0  0  0
 13 15  2  0  0  0  0
  1 16  1  0  0  0  0
  2 17  1  0  0  0  0
  3 18  1  0  0  0  0
  4 19  1  0  0  0  0
  5 20  1  0  0  0  0
  7 21  1  0  0  0  0
  7 22  1  0  0  0  0
  7 23  1  0  0  0  0
  8 24  1  0  0  0  0
  8 25  1  0  0  0  0
  9 26  1  0  0  0  0
  9 27  1  0  0  0  0
 10 28  1  0  0  0  0
 11 29  1  0  0  0  0
 11 30  1  0  0  0  0
M  END
> <Mol Weight>
229,29

> <Formula>
C10H15NO3S

> <ID>
EN300-37104690

> <name>
Sulfonamides

> <LogP>
0,86

> <ROCS_ShapeQuery>
x0446_0A_x1080_0A_x0929_0A_x0812_0A_x0719_0A_x1140_0A_x0528_0A_x0310_0A

> <ROCS_TanimotoCombo>
0.333 

> <ROCS_ShapeTanimoto>
0.193 

> <ROCS_ColorTanimoto>
0.140 

> <ROCS_RefTversky>
0.178 

> <ROCS_RefColorTversky>
0.146 

> <ROCS_RefTverskyCombo>
0.324 

> <ROCS_FitTversky>
1.750 

> <ROCS_FitColorTversky>
0.784 

> <ROCS_FitTverskyCombo>
2.534 

> <ROCS_ColorScore>
-5.183

> <ROCS_Overlap>
2102.776

> <ROCS_Rank>
354                 

$$$$
untitled-dbase-1529_1
  -OEChem-02082415043D

 25 26  0     0  0  0  0  0  0999 V2000
    6.9300   11.9036   20.9812 C   0  0  0  0  0  0  0  0  0  0  0  0
    6.9880   10.8954   21.9391 C   0  0  0  0  0  0  0  0  0  0  0  0
    7.8286   12.9614   21.0435 C   0  0  0  0  0  0  0  0  0  0  0  0
    8.9874   10.0181   24.9413 C   0  0  0  0  0  0  0  0  0  0  0  0
    9.8392   11.1040   24.9271 C   0  0  0  0  0  0  0  0  0  0  0  0
    7.9477   10.9433   22.9645 C   0  0  0  0  0  0  0  0  0  0  0  0
    8.0285    9.9420   23.9416 C   0  0  0  0  0  0  0  0  0  0  0  0
    8.8631   12.0144   23.0341 C   0  0  0  0  0  0  0  0  0  0  0  0
    8.7826   13.0087   22.0630 C   0  0  0  0  0  0  0  0  0  0  0  0
    7.1037    8.7656   23.9568 C   0  0  0  0  0  0  0  0  0  0  0  0
    9.7949   12.0909   24.0031 N   0  0  0  0  0  0  0  0  0  0  0  0
   11.1603   13.7661   21.1262 N   0  0  0  0  0  0  0  0  0  0  0  0
    9.2518   15.4788   21.3908 O   0  0  0  0  0  0  0  0  0  0  0  0
   10.3645   14.5450   23.4493 O   0  0  0  0  0  0  0  0  0  0  0  0
    9.8871   14.3730   22.0875 S   0  0  0  0  0  0  0  0  0  0  0  0
    6.1877   11.8621   20.1901 H   0  0  0  0  0  0  0  0  0  0  0  0
    6.2746   10.0783   21.8663 H   0  0  0  0  0  0  0  0  0  0  0  0
    7.7793   13.7465   20.2936 H   0  0  0  0  0  0  0  0  0  0  0  0
    9.0729    9.2582   25.7102 H   0  0  0  0  0  0  0  0  0  0  0  0
   10.6093   11.2172   25.6831 H   0  0  0  0  0  0  0  0  0  0  0  0
    6.2130    8.9940   24.5516 H   0  0  0  0  0  0  0  0  0  0  0  0
    6.7899    8.4987   22.9413 H   0  0  0  0  0  0  0  0  0  0  0  0
    7.5956    7.8840   24.3836 H   0  0  0  0  0  0  0  0  0  0  0  0
   11.2841   14.1629   20.1867 H   0  0  0  0  0  0  0  0  0  0  0  0
   12.0422   13.5240   21.5940 H   0  0  0  0  0  0  0  0  0  0  0  0
  1  2  2  0  0  0  0
  1  3  1  0  0  0  0
  2  6  1  0  0  0  0
  3  9  2  0  0  0  0
  4  5  2  0  0  0  0
  4  7  1  0  0  0  0
  5 11  1  0  0  0  0
  6  7  2  0  0  0  0
  6  8  1  0  0  0  0
  7 10  1  0  0  0  0
  8  9  1  0  0  0  0
  8 11  2  0  0  0  0
  9 15  1  0  0  0  0
 12 15  1  0  0  0  0
 13 15  2  0  0  0  0
 14 15  2  0  0  0  0
  1 16  1  0  0  0  0
  2 17  1  0  0  0  0
  3 18  1  0  0  0  0
  4 19  1  0  0  0  0
  5 20  1  0  0  0  0
 10 21  1  0  0  0  0
 10 22  1  0  0  0  0
 10 23  1  0  0  0  0
 12 24  1  0  0  0  0
 12 25  1  0  0  0  0
M  END
> <Mol Weight>
222,26

> <Formula>
C10H10N2O2S

> <ID>
EN300-79491

> <name>
Sulfonamides

> <LogP>
1,25

> <ROCS_ShapeQuery>
x0446_0A_x1080_0A_x0929_0A_x0812_0A_x0719_0A_x1140_0A_x0528_0A_x0310_0A

> <ROCS_TanimotoCombo>
0.333 

> <ROCS_ShapeTanimoto>
0.156 

> <ROCS_ColorTanimoto>
0.177 

> <ROCS_RefTversky>
0.149 

> <ROCS_RefColorTversky>
0.182 

> <ROCS_RefTverskyCombo>
0.332 

> <ROCS_FitTversky>
1.412 

> <ROCS_FitColorTversky>
0.858 

> <ROCS_FitTverskyCombo>
2.269 

> <ROCS_ColorScore>
-6.492

> <ROCS_Overlap>
1762.518

> <ROCS_Rank>
355                 

$$$$
untitled-dbase-1740_16
  -OEChem-02082415043D

 25 25  0     0  0  0  0  0  0999 V2000
    9.4916   10.7801   23.3490 C   0  0  0  0  0  0  0  0  0  0  0  0
   10.1694   11.9970   23.4199 C   0  0  0  0  0  0  0  0  0  0  0  0
    8.1233   10.7273   23.6148 C   0  0  0  0  0  0  0  0  0  0  0  0
    9.4791   13.1613   23.7568 C   0  0  0  0  0  0  0  0  0  0  0  0
    8.1108   13.1086   24.0228 C   0  0  0  0  0  0  0  0  0  0  0  0
    7.4329   11.8916   23.9518 C   0  0  0  0  0  0  0  0  0  0  0  0
    7.3778   14.3630   24.3847 C   0  0  0  0  0  0  0  0  0  0  0  0
   10.2294   14.4512   23.8246 C   0  0  0  0  0  0  0  0  0  0  0  0
   10.9744   13.4523   21.4797 N   0  0  0  0  0  0  0  0  0  0  0  0
    6.0376   11.8117   24.2168 N   0  3  0  0  0  0  0  0  0  0  0  0
    5.6555   11.5972   25.3913 O   0  5  0  0  0  0  0  0  0  0  0  0
    5.2317   11.9577   23.2677 O   0  0  0  0  0  0  0  0  0  0  0  0
    9.3479   15.4429   21.5736 O   0  0  0  0  0  0  0  0  0  0  0  0
   11.7722   15.7907   22.1957 O   0  0  0  0  0  0  0  0  0  0  0  0
   10.5803   14.9595   22.1733 S   0  0  0  0  0  0  0  0  0  0  0  0
   10.0295    9.8737   23.0867 H   0  0  0  0  0  0  0  0  0  0  0  0
   11.2353   12.0274   23.2096 H   0  0  0  0  0  0  0  0  0  0  0  0
    7.6080    9.7718   23.5549 H   0  0  0  0  0  0  0  0  0  0  0  0
    6.9939   14.8482   23.4814 H   0  0  0  0  0  0  0  0  0  0  0  0
    6.5373   14.1475   25.0537 H   0  0  0  0  0  0  0  0  0  0  0  0
    8.0358   15.0646   24.9095 H   0  0  0  0  0  0  0  0  0  0  0  0
   11.1809   14.3488   24.3567 H   0  0  0  0  0  0  0  0  0  0  0  0
    9.6468   15.2438   24.3060 H   0  0  0  0  0  0  0  0  0  0  0  0
   10.3070   13.0432   20.8143 H   0  0  0  0  0  0  0  0  0  0  0  0
   11.9581   13.2801   21.2382 H   0  0  0  0  0  0  0  0  0  0  0  0
  1  2  1  0  0  0  0
  1  3  2  0  0  0  0
  2  4  2  0  0  0  0
  3  6  1  0  0  0  0
  4  5  1  0  0  0  0
  4  8  1  0  0  0  0
  5  6  2  0  0  0  0
  5  7  1  0  0  0  0
  6 10  1  0  0  0  0
  8 15  1  0  0  0  0
  9 15  1  0  0  0  0
 10 11  1  0  0  0  0
 10 12  2  0  0  0  0
 13 15  2  0  0  0  0
 14 15  2  0  0  0  0
  1 16  1  0  0  0  0
  2 17  1  0  0  0  0
  3 18  1  0  0  0  0
  7 19  1  0  0  0  0
  7 20  1  0  0  0  0
  7 21  1  0  0  0  0
  8 22  1  0  0  0  0
  8 23  1  0  0  0  0
  9 24  1  0  0  0  0
  9 25  1  0  0  0  0
M  CHG  2  10   1  11  -1
M  END
> <Mol Weight>
230,24

> <Formula>
C8H10N2O4S

> <ID>
EN300-253144

> <name>
Sulfonamides

> <LogP>
0,79

> <ROCS_ShapeQuery>
x0446_0A_x1080_0A_x0929_0A_x0812_0A_x0719_0A_x1140_0A_x0528_0A_x0310_0A

> <ROCS_TanimotoCombo>
0.333 

> <ROCS_ShapeTanimoto>
0.203 

> <ROCS_ColorTanimoto>
0.130 

> <ROCS_RefTversky>
0.186 

> <ROCS_RefColorTversky>
0.140 

> <ROCS_RefTverskyCombo>
0.326 

> <ROCS_FitTversky>
1.789 

> <ROCS_FitColorTversky>
0.658 

> <ROCS_FitTverskyCombo>
2.447 

> <ROCS_ColorScore>
-4.984

> <ROCS_Overlap>
2193.991

> <ROCS_Rank>
356                 

$$$$
untitled-dbase-1409_66
  -OEChem-02082415043D

 25 26  0     1  0  0  0  0  0999 V2000
    9.6414   11.4767   22.5673 C   0  0  0  0  0  0  0  0  0  0  0  0
    8.5969   12.7580   24.0172 C   0  0  0  0  0  0  0  0  0  0  0  0
    9.4738   12.8176   22.9618 C   0  0  0  0  0  0  0  0  0  0  0  0
    7.3597   11.6908   26.4644 C   0  0  0  0  0  0  0  0  0  0  0  0
    6.1757   12.6096   26.2444 C   0  0  0  0  0  0  0  0  0  0  0  0
    5.9341   10.7833   24.8079 C   0  0  0  0  0  0  0  0  0  0  0  0
    7.4069   10.8655   25.1926 C   0  0  1  0  0  0  0  0  0  0  0  0
    8.9284   10.6273   23.3117 N   0  0  0  0  0  0  0  0  0  0  0  0
    8.3043   11.4364   24.1846 N   0  0  0  0  0  0  0  0  0  0  0  0
   11.1552   13.5427   21.0248 N   0  0  0  0  0  0  0  0  0  0  0  0
    9.1661   15.0527   21.6644 O   0  0  0  0  0  0  0  0  0  0  0  0
   11.1048   14.8268   23.2576 O   0  0  0  0  0  0  0  0  0  0  0  0
    5.2869   11.9523   25.3327 O   0  0  0  0  0  0  0  0  0  0  0  0
   10.1921   14.2002   22.2871 S   0  0  0  0  0  0  0  0  0  0  0  0
   10.2529   11.0801   21.7693 H   0  0  0  0  0  0  0  0  0  0  0  0
    8.1668   13.5241   24.6480 H   0  0  0  0  0  0  0  0  0  0  0  0
    8.2791   12.2389   26.6917 H   0  0  0  0  0  0  0  0  0  0  0  0
    7.1441   11.0289   27.3123 H   0  0  0  0  0  0  0  0  0  0  0  0
    5.6463   12.8394   27.1735 H   0  0  0  0  0  0  0  0  0  0  0  0
    6.4879   13.5523   25.7826 H   0  0  0  0  0  0  0  0  0  0  0  0
    5.7590   10.7262   23.7291 H   0  0  0  0  0  0  0  0  0  0  0  0
    5.4623    9.9159   25.2826 H   0  0  0  0  0  0  0  0  0  0  0  0
    7.8398    9.8392   25.3885 H   0  0  0  0  0  0  0  0  0  0  0  0
   10.8523   13.6843   20.0534 H   0  0  0  0  0  0  0  0  0  0  0  0
   12.1754   13.5289   21.1437 H   0  0  0  0  0  0  0  0  0  0  0  0
  1  3  1  0  0  0  0
  1  8  2  0  0  0  0
  2  3  2  0  0  0  0
  2  9  1  0  0  0  0
  3 14  1  0  0  0  0
  4  5  1  0  0  0  0
  4  7  1  0  0  0  0
  5 13  1  0  0  0  0
  6  7  1  0  0  0  0
  6 13  1  0  0  0  0
  7  9  1  0  0  0  0
  8  9  1  0  0  0  0
 10 14  1  0  0  0  0
 11 14  2  0  0  0  0
 12 14  2  0  0  0  0
  1 15  1  0  0  0  0
  2 16  1  0  0  0  0
  4 17  1  0  0  0  0
  4 18  1  0  0  0  0
  5 19  1  0  0  0  0
  5 20  1  0  0  0  0
  6 21  1  0  0  0  0
  6 22  1  0  0  0  0
  7 23  1  0  0  0  0
 10 24  1  0  0  0  0
 10 25  1  0  0  0  0
M  END
> <Mol Weight>
217,24

> <Formula>
C7H11N3O3S

> <ID>
EN300-225065

> <name>
Sulfonamides

> <LogP>
-1,09

> <ROCS_ShapeQuery>
x0446_0A_x1080_0A_x0929_0A_x0812_0A_x0719_0A_x1140_0A_x0528_0A_x0310_0A

> <ROCS_TanimotoCombo>
0.333 

> <ROCS_ShapeTanimoto>
0.186 

> <ROCS_ColorTanimoto>
0.147 

> <ROCS_RefTversky>
0.172 

> <ROCS_RefColorTversky>
0.159 

> <ROCS_RefTverskyCombo>
0.332 

> <ROCS_FitTversky>
1.701 

> <ROCS_FitColorTversky>
0.667 

> <ROCS_FitTverskyCombo>
2.368 

> <ROCS_ColorScore>
-5.677

> <ROCS_Overlap>
2033.484

> <ROCS_Rank>
357                 

$$$$
untitled-dbase-1765_12
  -OEChem-02082415043D

 26 26  0     0  0  0  0  0  0999 V2000
    8.9640   10.9220   25.0848 C   0  0  0  0  0  0  0  0  0  0  0  0
    8.2570    9.9424   24.1483 C   0  0  0  0  0  0  0  0  0  0  0  0
    9.1360   12.2175   24.2950 C   0  0  0  0  0  0  0  0  0  0  0  0
    8.0336   10.6928   22.8374 C   0  0  0  0  0  0  0  0  0  0  0  0
    9.1036   11.7932   22.8203 C   0  0  0  0  0  0  0  0  0  0  0  0
    8.7026   12.9546   21.9086 C   0  0  0  0  0  0  0  0  0  0  0  0
   10.4652   11.2409   22.3682 C   0  0  0  0  0  0  0  0  0  0  0  0
   11.0987   13.7375   21.0738 N   0  0  0  0  0  0  0  0  0  0  0  0
    9.2346   15.4706   21.4460 O   0  0  0  0  0  0  0  0  0  0  0  0
   10.2983   14.3438   23.4421 O   0  0  0  0  0  0  0  0  0  0  0  0
   10.7862   10.1739   23.1093 F   0  0  0  0  0  0  0  0  0  0  0  0
   10.3998   10.8821   21.0807 F   0  0  0  0  0  0  0  0  0  0  0  0
   11.4043   12.1824   22.5181 F   0  0  0  0  0  0  0  0  0  0  0  0
    9.8274   14.2951   22.0661 S   0  0  0  0  0  0  0  0  0  0  0  0
    8.3906   11.0907   26.0021 H   0  0  0  0  0  0  0  0  0  0  0  0
    9.9396   10.5189   25.3798 H   0  0  0  0  0  0  0  0  0  0  0  0
    8.8874    9.0609   23.9842 H   0  0  0  0  0  0  0  0  0  0  0  0
    7.3102    9.5897   24.5700 H   0  0  0  0  0  0  0  0  0  0  0  0
    8.2969   12.8874   24.5225 H   0  0  0  0  0  0  0  0  0  0  0  0
   10.0571   12.7419   24.5699 H   0  0  0  0  0  0  0  0  0  0  0  0
    8.0917   10.0252   21.9714 H   0  0  0  0  0  0  0  0  0  0  0  0
    7.0281   11.1328   22.8462 H   0  0  0  0  0  0  0  0  0  0  0  0
    7.7129   13.3161   22.1772 H   0  0  0  0  0  0  0  0  0  0  0  0
    8.7088   12.6337   20.8699 H   0  0  0  0  0  0  0  0  0  0  0  0
   11.2451   14.2123   20.1745 H   0  0  0  0  0  0  0  0  0  0  0  0
   11.9694   13.4447   21.5340 H   0  0  0  0  0  0  0  0  0  0  0  0
  1  2  1  0  0  0  0
  1  3  1  0  0  0  0
  2  4  1  0  0  0  0
  3  5  1  0  0  0  0
  4  5  1  0  0  0  0
  5  6  1  0  0  0  0
  5  7  1  0  0  0  0
  6 14  1  0  0  0  0
  7 11  1  0  0  0  0
  7 12  1  0  0  0  0
  7 13  1  0  0  0  0
  8 14  1  0  0  0  0
  9 14  2  0  0  0  0
 10 14  2  0  0  0  0
  1 15  1  0  0  0  0
  1 16  1  0  0  0  0
  2 17  1  0  0  0  0
  2 18  1  0  0  0  0
  3 19  1  0  0  0  0
  3 20  1  0  0  0  0
  4 21  1  0  0  0  0
  4 22  1  0  0  0  0
  6 23  1  0  0  0  0
  6 24  1  0  0  0  0
  8 25  1  0  0  0  0
  8 26  1  0  0  0  0
M  END
> <Mol Weight>
231,23

> <Formula>
C7H12F3NO2S

> <ID>
EN300-27733632

> <name>
Sulfonamides

> <LogP>
1,03

> <ROCS_ShapeQuery>
x0446_0A_x1080_0A_x0929_0A_x0812_0A_x0719_0A_x1140_0A_x0528_0A_x0310_0A

> <ROCS_TanimotoCombo>
0.333 

> <ROCS_ShapeTanimoto>
0.181 

> <ROCS_ColorTanimoto>
0.152 

> <ROCS_RefTversky>
0.169 

> <ROCS_RefColorTversky>
0.153 

> <ROCS_RefTverskyCombo>
0.322 

> <ROCS_FitTversky>
1.668 

> <ROCS_FitColorTversky>
0.960 

> <ROCS_FitTverskyCombo>
2.628 

> <ROCS_ColorScore>
-5.435

> <ROCS_Overlap>
1990.416

> <ROCS_Rank>
358                 

$$$$
untitled-dbase-705_32
  -OEChem-02082415043D

 27 27  0     1  0  0  0  0  0999 V2000
    7.6324   10.4470   23.6436 C   0  0  0  0  0  0  0  0  0  0  0  0
    8.9114    9.8320   24.2005 C   0  0  0  0  0  0  0  0  0  0  0  0
    7.5385   11.9219   24.0220 C   0  0  0  0  0  0  0  0  0  0  0  0
   10.1224   10.6762   23.8268 C   0  0  0  0  0  0  0  0  0  0  0  0
    8.8267   12.6582   23.6472 C   0  0  1  0  0  0  0  0  0  0  0  0
    8.7887   14.1044   24.1215 C   0  0  0  0  0  0  0  0  0  0  0  0
    7.6032   14.8487   23.5325 C   0  0  0  0  0  0  0  0  0  0  0  0
    6.2407   15.7307   21.4310 N   0  0  0  0  0  0  0  0  0  0  0  0
    8.8097   15.6291   21.3502 O   0  0  0  0  0  0  0  0  0  0  0  0
    7.4807   13.4803   21.3099 O   0  0  0  0  0  0  0  0  0  0  0  0
    9.9539   12.0252   24.2622 O   0  0  0  0  0  0  0  0  0  0  0  0
    7.6591   14.8471   21.7688 S   0  0  0  0  0  0  0  0  0  0  0  0
    7.6264   10.3497   22.5510 H   0  0  0  0  0  0  0  0  0  0  0  0
    6.7584    9.9046   24.0204 H   0  0  0  0  0  0  0  0  0  0  0  0
    8.8300    9.7860   25.2935 H   0  0  0  0  0  0  0  0  0  0  0  0
    9.0327    8.8075   23.8337 H   0  0  0  0  0  0  0  0  0  0  0  0
    6.6739   12.3811   23.5299 H   0  0  0  0  0  0  0  0  0  0  0  0
    7.3761   11.9905   25.1053 H   0  0  0  0  0  0  0  0  0  0  0  0
   11.0181   10.2781   24.3139 H   0  0  0  0  0  0  0  0  0  0  0  0
   10.3002   10.6618   22.7451 H   0  0  0  0  0  0  0  0  0  0  0  0
    8.9675   12.6492   22.5589 H   0  0  0  0  0  0  0  0  0  0  0  0
    9.7229   14.6013   23.8381 H   0  0  0  0  0  0  0  0  0  0  0  0
    8.7385   14.1239   25.2157 H   0  0  0  0  0  0  0  0  0  0  0  0
    6.6562   14.3829   23.8209 H   0  0  0  0  0  0  0  0  0  0  0  0
    7.5919   15.8959   23.8492 H   0  0  0  0  0  0  0  0  0  0  0  0
    6.3474   16.6835   21.0616 H   0  0  0  0  0  0  0  0  0  0  0  0
    5.4423   15.2200   21.0344 H   0  0  0  0  0  0  0  0  0  0  0  0
  1  2  1  0  0  0  0
  1  3  1  0  0  0  0
  2  4  1  0  0  0  0
  3  5  1  0  0  0  0
  4 11  1  0  0  0  0
  5  6  1  0  0  0  0
  5 11  1  0  0  0  0
  6  7  1  0  0  0  0
  7 12  1  0  0  0  0
  8 12  1  0  0  0  0
  9 12  2  0  0  0  0
 10 12  2  0  0  0  0
  1 13  1  0  0  0  0
  1 14  1  0  0  0  0
  2 15  1  0  0  0  0
  2 16  1  0  0  0  0
  3 17  1  0  0  0  0
  3 18  1  0  0  0  0
  4 19  1  0  0  0  0
  4 20  1  0  0  0  0
  5 21  1  0  0  0  0
  6 22  1  0  0  0  0
  6 23  1  0  0  0  0
  7 24  1  0  0  0  0
  7 25  1  0  0  0  0
  8 26  1  0  0  0  0
  8 27  1  0  0  0  0
M  END
> <Mol Weight>
193,26

> <Formula>
C7H15NO3S

> <ID>
EN300-130788

> <name>
Sulfonamides

> <LogP>
-0,46

> <ROCS_ShapeQuery>
x0446_0A_x1080_0A_x0929_0A_x0812_0A_x0719_0A_x1140_0A_x0528_0A_x0310_0A

> <ROCS_TanimotoCombo>
0.333 

> <ROCS_ShapeTanimoto>
0.160 

> <ROCS_ColorTanimoto>
0.172 

> <ROCS_RefTversky>
0.151 

> <ROCS_RefColorTversky>
0.174 

> <ROCS_RefTverskyCombo>
0.325 

> <ROCS_FitTversky>
1.663 

> <ROCS_FitColorTversky>
0.939 

> <ROCS_FitTverskyCombo>
2.602 

> <ROCS_ColorScore>
-6.208

> <ROCS_Overlap>
1777.680

> <ROCS_Rank>
359                 

$$$$
untitled-dbase-2285_60
  -OEChem-02082415043D

 28 29  0     0  0  0  0  0  0999 V2000
   12.5608   14.4559   22.7014 C   0  0  0  0  0  0  0  0  0  0  0  0
   11.7437   13.4095   23.1293 C   0  0  0  0  0  0  0  0  0  0  0  0
   12.0073   15.5383   22.0175 C   0  0  0  0  0  0  0  0  0  0  0  0
    9.8195   14.5277   22.1890 C   0  0  0  0  0  0  0  0  0  0  0  0
    8.4432   12.4612   24.2018 C   0  0  0  0  0  0  0  0  0  0  0  0
   10.3731   13.4454   22.8730 C   0  0  0  0  0  0  0  0  0  0  0  0
   10.6366   15.5741   21.7612 C   0  0  0  0  0  0  0  0  0  0  0  0
    9.5320   12.3685   23.3143 C   0  0  0  0  0  0  0  0  0  0  0  0
    7.9724   11.1749   24.3033 C   0  0  0  0  0  0  0  0  0  0  0  0
    8.6894   16.6031   20.8638 C   0  0  0  0  0  0  0  0  0  0  0  0
    9.7408   11.1218   22.8828 N   0  0  0  0  0  0  0  0  0  0  0  0
    8.7768   10.4193   23.5019 N   0  0  0  0  0  0  0  0  0  0  0  0
    7.4384   10.0580   26.6638 N   0  0  0  0  0  0  0  0  0  0  0  0
    5.6693   11.5037   25.4698 O   0  0  0  0  0  0  0  0  0  0  0  0
    6.2466    9.2375   24.5323 O   0  0  0  0  0  0  0  0  0  0  0  0
   10.0975   16.6299   21.0923 O   0  0  0  0  0  0  0  0  0  0  0  0
    6.6428   10.4590   25.2092 S   0  0  0  0  0  0  0  0  0  0  0  0
   13.6283   14.4282   22.9007 H   0  0  0  0  0  0  0  0  0  0  0  0
   12.1908   12.5731   23.6615 H   0  0  0  0  0  0  0  0  0  0  0  0
   12.6487   16.3506   21.6860 H   0  0  0  0  0  0  0  0  0  0  0  0
    8.7514   14.5657   21.9852 H   0  0  0  0  0  0  0  0  0  0  0  0
    8.0502   13.3359   24.7004 H   0  0  0  0  0  0  0  0  0  0  0  0
    8.3904   17.5033   20.3212 H   0  0  0  0  0  0  0  0  0  0  0  0
    8.1649   16.5507   21.8212 H   0  0  0  0  0  0  0  0  0  0  0  0
    8.4429   15.7219   20.2669 H   0  0  0  0  0  0  0  0  0  0  0  0
    8.7263    9.4227   23.3312 H   0  0  0  0  0  0  0  0  0  0  0  0
    8.1080    9.2791   26.6451 H   0  0  0  0  0  0  0  0  0  0  0  0
    7.7128   10.8264   27.2879 H   0  0  0  0  0  0  0  0  0  0  0  0
  1  2  1  0  0  0  0
  1  3  2  0  0  0  0
  2  6  2  0  0  0  0
  3  7  1  0  0  0  0
  4  6  1  0  0  0  0
  4  7  2  0  0  0  0
  5  8  1  0  0  0  0
  5  9  2  0  0  0  0
  6  8  1  0  0  0  0
  7 16  1  0  0  0  0
  8 11  2  0  0  0  0
  9 12  1  0  0  0  0
  9 17  1  0  0  0  0
 10 16  1  0  0  0  0
 11 12  1  0  0  0  0
 13 17  1  0  0  0  0
 14 17  2  0  0  0  0
 15 17  2  0  0  0  0
  1 18  1  0  0  0  0
  2 19  1  0  0  0  0
  3 20  1  0  0  0  0
  4 21  1  0  0  0  0
  5 22  1  0  0  0  0
 10 23  1  0  0  0  0
 10 24  1  0  0  0  0
 10 25  1  0  0  0  0
 12 26  1  0  0  0  0
 13 27  1  0  0  0  0
 13 28  1  0  0  0  0
M  END
> <Mol Weight>
253,28

> <Formula>
C10H11N3O3S

> <ID>
EN300-7424825

> <name>
Sulfonamides

> <LogP>
0,85

> <ROCS_ShapeQuery>
x0446_0A_x1080_0A_x0929_0A_x0812_0A_x0719_0A_x1140_0A_x0528_0A_x0310_0A

> <ROCS_TanimotoCombo>
0.333 

> <ROCS_ShapeTanimoto>
0.208 

> <ROCS_ColorTanimoto>
0.125 

> <ROCS_RefTversky>
0.192 

> <ROCS_RefColorTversky>
0.140 

> <ROCS_RefTverskyCombo>
0.332 

> <ROCS_FitTversky>
1.699 

> <ROCS_FitColorTversky>
0.530 

> <ROCS_FitTverskyCombo>
2.229 

> <ROCS_ColorScore>
-5.014

> <ROCS_Overlap>
2262.392

> <ROCS_Rank>
360                 

$$$$
untitled-dbase-2469_70
  -OEChem-02082415043D

 26 26  0     0  0  0  0  0  0999 V2000
    8.7269    9.8049   23.5109 C   0  0  0  0  0  0  0  0  0  0  0  0
    9.8342   10.6097   23.2430 C   0  0  0  0  0  0  0  0  0  0  0  0
    7.4868   11.7501   24.2289 C   0  0  0  0  0  0  0  0  0  0  0  0
    7.5532   10.3751   24.0038 C   0  0  0  0  0  0  0  0  0  0  0  0
    8.5941   12.5549   23.9610 C   0  0  0  0  0  0  0  0  0  0  0  0
    9.7678   11.9847   23.4680 C   0  0  0  0  0  0  0  0  0  0  0  0
    6.2619   12.3447   24.7405 C   0  0  0  0  0  0  0  0  0  0  0  0
   11.3486   14.7440   21.0178 C   0  0  0  0  0  0  0  0  0  0  0  0
    4.9357   14.3277   24.7436 C   0  0  0  0  0  0  0  0  0  0  0  0
   10.9051   13.4274   21.4980 N   0  0  0  0  0  0  0  0  0  0  0  0
    5.4568   11.7627   25.4794 O   0  0  0  0  0  0  0  0  0  0  0  0
   11.0813   14.1868   23.9533 O   0  0  0  0  0  0  0  0  0  0  0  0
   12.3426   12.1435   23.2062 O   0  0  0  0  0  0  0  0  0  0  0  0
    6.1076   13.6323   24.3047 O   0  0  0  0  0  0  0  0  0  0  0  0
    6.4944    9.5922   24.2554 F   0  0  0  0  0  0  0  0  0  0  0  0
    8.5301   13.8774   24.1774 F   0  0  0  0  0  0  0  0  0  0  0  0
   11.1574   12.9870   23.1299 S   0  0  0  0  0  0  0  0  0  0  0  0
    8.7760    8.7346   23.3335 H   0  0  0  0  0  0  0  0  0  0  0  0
   10.7431   10.1549   22.8583 H   0  0  0  0  0  0  0  0  0  0  0  0
   12.1851   15.0983   21.6380 H   0  0  0  0  0  0  0  0  0  0  0  0
   11.6777   14.6607   19.9715 H   0  0  0  0  0  0  0  0  0  0  0  0
   10.5148   15.4583   21.0842 H   0  0  0  0  0  0  0  0  0  0  0  0
    4.9337   15.3383   24.3278 H   0  0  0  0  0  0  0  0  0  0  0  0
    4.9245   14.3715   25.8356 H   0  0  0  0  0  0  0  0  0  0  0  0
    4.0513   13.7903   24.3933 H   0  0  0  0  0  0  0  0  0  0  0  0
   10.1230   13.0011   20.9861 H   0  0  0  0  0  0  0  0  0  0  0  0
  1  2  2  0  0  0  0
  1  4  1  0  0  0  0
  2  6  1  0  0  0  0
  3  4  2  0  0  0  0
  3  5  1  0  0  0  0
  3  7  1  0  0  0  0
  4 15  1  0  0  0  0
  5  6  2  0  0  0  0
  5 16  1  0  0  0  0
  6 17  1  0  0  0  0
  7 11  2  0  0  0  0
  7 14  1  0  0  0  0
  8 10  1  0  0  0  0
  9 14  1  0  0  0  0
 10 17  1  0  0  0  0
 12 17  2  0  0  0  0
 13 17  2  0  0  0  0
  1 18  1  0  0  0  0
  2 19  1  0  0  0  0
  8 20  1  0  0  0  0
  8 21  1  0  0  0  0
  8 22  1  0  0  0  0
  9 23  1  0  0  0  0
  9 24  1  0  0  0  0
  9 25  1  0  0  0  0
 10 26  1  0  0  0  0
M  END
> <Mol Weight>
265,23

> <Formula>
C9H9F2NO4S

> <ID>
EN300-170018

> <name>
Sulfonamides

> <LogP>
1,09

> <ROCS_ShapeQuery>
x0446_0A_x1080_0A_x0929_0A_x0812_0A_x0719_0A_x1140_0A_x0528_0A_x0310_0A

> <ROCS_TanimotoCombo>
0.333 

> <ROCS_ShapeTanimoto>
0.223 

> <ROCS_ColorTanimoto>
0.109 

> <ROCS_RefTversky>
0.203 

> <ROCS_RefColorTversky>
0.117 

> <ROCS_RefTverskyCombo>
0.320 

> <ROCS_FitTversky>
1.820 

> <ROCS_FitColorTversky>
0.630 

> <ROCS_FitTverskyCombo>
2.450 

> <ROCS_ColorScore>
-4.164

> <ROCS_Overlap>
2394.763

> <ROCS_Rank>
361                 

$$$$
untitled-dbase-1378_9
  -OEChem-02082415043D

 26 26  0     0  0  0  0  0  0999 V2000
    7.6384   12.1370   24.5878 C   0  0  0  0  0  0  0  0  0  0  0  0
    7.5615   10.7582   24.7843 C   0  0  0  0  0  0  0  0  0  0  0  0
    9.5222   10.4524   23.4061 C   0  0  0  0  0  0  0  0  0  0  0  0
    8.6572   12.6735   23.8003 C   0  0  0  0  0  0  0  0  0  0  0  0
    9.5990   11.8312   23.2095 C   0  0  0  0  0  0  0  0  0  0  0  0
    8.5034    9.9159   24.1935 C   0  0  0  0  0  0  0  0  0  0  0  0
    9.4232    7.7676   23.7526 C   0  0  0  0  0  0  0  0  0  0  0  0
    7.0662   16.0361   22.7734 C   0  0  0  0  0  0  0  0  0  0  0  0
   10.6388   12.3546   22.4091 N   0  0  0  0  0  0  0  0  0  0  0  0
    8.7153   14.0907   23.6132 N   0  0  0  0  0  0  0  0  0  0  0  0
    9.2020   15.3844   21.4389 O   0  0  0  0  0  0  0  0  0  0  0  0
    7.2595   13.7809   21.4602 O   0  0  0  0  0  0  0  0  0  0  0  0
    8.4281    8.5705   24.3857 O   0  0  0  0  0  0  0  0  0  0  0  0
    8.1072   14.7400   22.1401 S   0  0  0  0  0  0  0  0  0  0  0  0
    6.8989   12.7837   25.0530 H   0  0  0  0  0  0  0  0  0  0  0  0
    6.7656   10.3460   25.3985 H   0  0  0  0  0  0  0  0  0  0  0  0
   10.2542    9.7910   22.9482 H   0  0  0  0  0  0  0  0  0  0  0  0
    9.2467    6.7150   23.9875 H   0  0  0  0  0  0  0  0  0  0  0  0
   10.4134    8.0692   24.1033 H   0  0  0  0  0  0  0  0  0  0  0  0
    9.3619    7.9125   22.6714 H   0  0  0  0  0  0  0  0  0  0  0  0
    6.6019   16.5483   21.9292 H   0  0  0  0  0  0  0  0  0  0  0  0
    6.3055   15.5854   23.4126 H   0  0  0  0  0  0  0  0  0  0  0  0
    7.6866   16.7273   23.3458 H   0  0  0  0  0  0  0  0  0  0  0  0
   10.6661   13.3369   22.2299 H   0  0  0  0  0  0  0  0  0  0  0  0
   11.2707   11.7240   21.9610 H   0  0  0  0  0  0  0  0  0  0  0  0
    9.5900   14.5244   23.9485 H   0  0  0  0  0  0  0  0  0  0  0  0
  1  2  2  0  0  0  0
  1  4  1  0  0  0  0
  2  6  1  0  0  0  0
  3  5  1  0  0  0  0
  3  6  2  0  0  0  0
  4  5  2  0  0  0  0
  4 10  1  0  0  0  0
  5  9  1  0  0  0  0
  6 13  1  0  0  0  0
  7 13  1  0  0  0  0
  8 14  1  0  0  0  0
 10 14  1  0  0  0  0
 11 14  2  0  0  0  0
 12 14  2  0  0  0  0
  1 15  1  0  0  0  0
  2 16  1  0  0  0  0
  3 17  1  0  0  0  0
  7 18  1  0  0  0  0
  7 19  1  0  0  0  0
  7 20  1  0  0  0  0
  8 21  1  0  0  0  0
  8 22  1  0  0  0  0
  8 23  1  0  0  0  0
  9 24  1  0  0  0  0
  9 25  1  0  0  0  0
 10 26  1  0  0  0  0
M  END
> <Mol Weight>
216,26

> <Formula>
C8H12N2O3S

> <ID>
EN300-43913

> <name>
Sulfonamides

> <LogP>
-0,64

> <ROCS_ShapeQuery>
x0446_0A_x1080_0A_x0929_0A_x0812_0A_x0719_0A_x1140_0A_x0528_0A_x0310_0A

> <ROCS_TanimotoCombo>
0.333 

> <ROCS_ShapeTanimoto>
0.188 

> <ROCS_ColorTanimoto>
0.145 

> <ROCS_RefTversky>
0.174 

> <ROCS_RefColorTversky>
0.157 

> <ROCS_RefTverskyCombo>
0.331 

> <ROCS_FitTversky>
1.743 

> <ROCS_FitColorTversky>
0.657 

> <ROCS_FitTverskyCombo>
2.400 

> <ROCS_ColorScore>
-5.595

> <ROCS_Overlap>
2050.909

> <ROCS_Rank>
362                 

$$$$
untitled-dbase-2572_74
  -OEChem-02082415043D

 33 33  0     0  0  0  0  0  0999 V2000
    9.2776   10.4752   23.1394 C   0  0  0  0  0  0  0  0  0  0  0  0
    8.1193   10.1749   23.8562 C   0  0  0  0  0  0  0  0  0  0  0  0
    7.6965   12.5339   24.1613 C   0  0  0  0  0  0  0  0  0  0  0  0
    9.6454   11.8049   22.9336 C   0  0  0  0  0  0  0  0  0  0  0  0
    7.3288   11.2042   24.3671 C   0  0  0  0  0  0  0  0  0  0  0  0
    8.8548   12.8342   23.4445 C   0  0  0  0  0  0  0  0  0  0  0  0
   14.4798   11.0366   24.3440 C   0  0  0  0  0  0  0  0  0  0  0  0
   13.5509   11.6036   23.2818 C   0  0  0  0  0  0  0  0  0  0  0  0
   12.6486   10.5177   22.6913 C   0  0  0  0  0  0  0  0  0  0  0  0
   11.6638   11.0682   21.6652 C   0  0  0  0  0  0  0  0  0  0  0  0
    7.9979   15.2912   24.0226 N   0  0  0  0  0  0  0  0  0  0  0  0
   10.8044   12.0785   22.2173 N   0  0  0  0  0  0  0  0  0  0  0  0
    6.1490   10.8989   25.0961 N   0  3  0  0  0  0  0  0  0  0  0  0
    5.8355    9.6964   25.2696 O   0  5  0  0  0  0  0  0  0  0  0  0
    5.4521   11.8402   25.5467 O   0  0  0  0  0  0  0  0  0  0  0  0
   10.5216   14.7744   23.9247 O   0  0  0  0  0  0  0  0  0  0  0  0
    9.1880   14.8162   21.7876 O   0  0  0  0  0  0  0  0  0  0  0  0
    9.2828   14.5158   23.2077 S   0  0  0  0  0  0  0  0  0  0  0  0
    9.8859    9.6640   22.7473 H   0  0  0  0  0  0  0  0  0  0  0  0
    7.8425    9.1345   24.0090 H   0  0  0  0  0  0  0  0  0  0  0  0
    7.0808   13.3375   24.5600 H   0  0  0  0  0  0  0  0  0  0  0  0
   15.1084   10.2411   23.9310 H   0  0  0  0  0  0  0  0  0  0  0  0
   15.1363   11.8219   24.7316 H   0  0  0  0  0  0  0  0  0  0  0  0
   13.9110   10.6246   25.1837 H   0  0  0  0  0  0  0  0  0  0  0  0
   12.9373   12.3954   23.7272 H   0  0  0  0  0  0  0  0  0  0  0  0
   14.1547   12.0655   22.4926 H   0  0  0  0  0  0  0  0  0  0  0  0
   13.2664    9.7368   22.2309 H   0  0  0  0  0  0  0  0  0  0  0  0
   12.0800   10.0442   23.5009 H   0  0  0  0  0  0  0  0  0  0  0  0
   11.0299   10.2747   21.2570 H   0  0  0  0  0  0  0  0  0  0  0  0
   12.2078   11.5304   20.8352 H   0  0  0  0  0  0  0  0  0  0  0  0
    8.2044   15.7531   24.9167 H   0  0  0  0  0  0  0  0  0  0  0  0
    7.2937   15.7793   23.4560 H   0  0  0  0  0  0  0  0  0  0  0  0
   11.0543   13.0550   22.0802 H   0  0  0  0  0  0  0  0  0  0  0  0
  1  2  2  0  0  0  0
  1  4  1  0  0  0  0
  2  5  1  0  0  0  0
  3  5  2  0  0  0  0
  3  6  1  0  0  0  0
  4  6  2  0  0  0  0
  4 12  1  0  0  0  0
  5 13  1  0  0  0  0
  6 18  1  0  0  0  0
  7  8  1  0  0  0  0
  8  9  1  0  0  0  0
  9 10  1  0  0  0  0
 10 12  1  0  0  0  0
 11 18  1  0  0  0  0
 13 14  1  0  0  0  0
 13 15  2  0  0  0  0
 16 18  2  0  0  0  0
 17 18  2  0  0  0  0
  1 19  1  0  0  0  0
  2 20  1  0  0  0  0
  3 21  1  0  0  0  0
  7 22  1  0  0  0  0
  7 23  1  0  0  0  0
  7 24  1  0  0  0  0
  8 25  1  0  0  0  0
  8 26  1  0  0  0  0
  9 27  1  0  0  0  0
  9 28  1  0  0  0  0
 10 29  1  0  0  0  0
 10 30  1  0  0  0  0
 11 31  1  0  0  0  0
 11 32  1  0  0  0  0
 12 33  1  0  0  0  0
M  CHG  2  13   1  14  -1
M  END
> <Mol Weight>
273,31

> <Formula>
C10H15N3O4S

> <ID>
EN300-213538

> <name>
Sulfonamides

> <LogP>
1,32

> <ROCS_ShapeQuery>
x0446_0A_x1080_0A_x0929_0A_x0812_0A_x0719_0A_x1140_0A_x0528_0A_x0310_0A

> <ROCS_TanimotoCombo>
0.333 

> <ROCS_ShapeTanimoto>
0.204 

> <ROCS_ColorTanimoto>
0.129 

> <ROCS_RefTversky>
0.188 

> <ROCS_RefColorTversky>
0.145 

> <ROCS_RefTverskyCombo>
0.333 

> <ROCS_FitTversky>
1.659 

> <ROCS_FitColorTversky>
0.545 

> <ROCS_FitTverskyCombo>
2.204 

> <ROCS_ColorScore>
-5.169

> <ROCS_Overlap>
2223.969

> <ROCS_Rank>
363                 

$$$$
untitled-dbase-1176_40
  -OEChem-02082415043D

 27 28  0     0  0  0  0  0  0999 V2000
    9.6072   10.3235   23.6272 C   0  0  0  0  0  0  0  0  0  0  0  0
    8.2428   10.1300   23.8431 C   0  0  0  0  0  0  0  0  0  0  0  0
   10.1378   11.6136   23.6309 C   0  0  0  0  0  0  0  0  0  0  0  0
    7.4090   11.2264   24.0626 C   0  0  0  0  0  0  0  0  0  0  0  0
    9.3040   12.7100   23.8504 C   0  0  0  0  0  0  0  0  0  0  0  0
    7.9395   12.5165   24.0662 C   0  0  0  0  0  0  0  0  0  0  0  0
    7.0441   16.3106   24.0417 C   0  0  0  0  0  0  0  0  0  0  0  0
    8.4771   15.8857   24.2474 C   0  0  0  0  0  0  0  0  0  0  0  0
    7.4929   14.9438   23.6245 C   0  0  0  0  0  0  0  0  0  0  0  0
    7.0304   13.7131   24.3054 C   0  0  0  0  0  0  0  0  0  0  0  0
    6.3339   15.6448   21.3406 N   0  0  0  0  0  0  0  0  0  0  0  0
    8.8961   15.4683   21.4837 O   0  0  0  0  0  0  0  0  0  0  0  0
    7.5016   13.3619   21.5448 O   0  0  0  0  0  0  0  0  0  0  0  0
    7.6920   14.7606   21.8590 S   0  0  0  0  0  0  0  0  0  0  0  0
   10.2565    9.4696   23.4577 H   0  0  0  0  0  0  0  0  0  0  0  0
    7.8297    9.1255   23.8414 H   0  0  0  0  0  0  0  0  0  0  0  0
   11.2001   11.7645   23.4639 H   0  0  0  0  0  0  0  0  0  0  0  0
    6.3471   11.0661   24.2297 H   0  0  0  0  0  0  0  0  0  0  0  0
    9.7261   13.7115   23.8514 H   0  0  0  0  0  0  0  0  0  0  0  0
    6.4189   16.4011   24.9224 H   0  0  0  0  0  0  0  0  0  0  0  0
    6.8458   17.0595   23.2845 H   0  0  0  0  0  0  0  0  0  0  0  0
    9.2333   16.3516   23.6274 H   0  0  0  0  0  0  0  0  0  0  0  0
    8.8000   15.6951   25.2642 H   0  0  0  0  0  0  0  0  0  0  0  0
    6.0043   13.4290   23.9880 H   0  0  0  0  0  0  0  0  0  0  0  0
    6.9430   13.8592   25.4034 H   0  0  0  0  0  0  0  0  0  0  0  0
    6.4937   16.5584   20.8986 H   0  0  0  0  0  0  0  0  0  0  0  0
    5.5439   15.1238   20.9404 H   0  0  0  0  0  0  0  0  0  0  0  0
  1  2  1  0  0  0  0
  1  3  2  0  0  0  0
  2  4  2  0  0  0  0
  3  5  1  0  0  0  0
  4  6  1  0  0  0  0
  5  6  2  0  0  0  0
  6 10  1  0  0  0  0
  7  8  1  0  0  0  0
  7  9  1  0  0  0  0
  8  9  1  0  0  0  0
  9 10  1  0  0  0  0
  9 14  1  0  0  0  0
 11 14  1  0  0  0  0
 12 14  2  0  0  0  0
 13 14  2  0  0  0  0
  1 15  1  0  0  0  0
  2 16  1  0  0  0  0
  3 17  1  0  0  0  0
  4 18  1  0  0  0  0
  5 19  1  0  0  0  0
  7 20  1  0  0  0  0
  7 21  1  0  0  0  0
  8 22  1  0  0  0  0
  8 23  1  0  0  0  0
 10 24  1  0  0  0  0
 10 25  1  0  0  0  0
 11 26  1  0  0  0  0
 11 27  1  0  0  0  0
M  END
> <Mol Weight>
211,28

> <Formula>
C10H13NO2S

> <ID>
EN300-5134640

> <name>
Sulfonamides

> <LogP>
1,32

> <ROCS_ShapeQuery>
x0446_0A_x1080_0A_x0929_0A_x0812_0A_x0719_0A_x1140_0A_x0528_0A_x0310_0A

> <ROCS_TanimotoCombo>
0.332 

> <ROCS_ShapeTanimoto>
0.181 

> <ROCS_ColorTanimoto>
0.151 

> <ROCS_RefTversky>
0.169 

> <ROCS_RefColorTversky>
0.152 

> <ROCS_RefTverskyCombo>
0.321 

> <ROCS_FitTversky>
1.688 

> <ROCS_FitColorTversky>
0.955 

> <ROCS_FitTverskyCombo>
2.643 

> <ROCS_ColorScore>
-5.410

> <ROCS_Overlap>
1990.066

> <ROCS_Rank>
364                 

$$$$
untitled-dbase-1112_1088
  -OEChem-02082415043D

 25 25  0     0  0  0  0  0  0999 V2000
    9.4182   12.5494   23.7640 C   0  0  0  0  0  0  0  0  0  0  0  0
    8.2282   10.8052   24.7167 C   0  0  0  0  0  0  0  0  0  0  0  0
    9.1718   10.2818   23.6625 C   0  0  0  0  0  0  0  0  0  0  0  0
    6.7254   16.2434   21.5482 C   0  0  0  0  0  0  0  0  0  0  0  0
    7.4570   13.1452   25.2311 C   0  0  0  0  0  0  0  0  0  0  0  0
    6.8433   14.1780   24.3008 C   0  0  0  0  0  0  0  0  0  0  0  0
    8.3197   12.2212   24.5278 N   0  0  0  0  0  0  0  0  0  0  0  0
    7.8453   14.9553   23.6231 N   0  0  0  0  0  0  0  0  0  0  0  0
    9.8419   13.6668   23.5025 O   0  0  0  0  0  0  0  0  0  0  0  0
    7.3902   13.7167   21.3930 O   0  0  0  0  0  0  0  0  0  0  0  0
    9.2119   15.4580   21.4707 O   0  0  0  0  0  0  0  0  0  0  0  0
   10.0169   11.3938   23.3237 O   0  0  0  0  0  0  0  0  0  0  0  0
    7.9154   14.9695   21.8995 S   0  0  0  0  0  0  0  0  0  0  0  0
    7.2040   10.4462   24.5846 H   0  0  0  0  0  0  0  0  0  0  0  0
    8.5773   10.5669   25.7265 H   0  0  0  0  0  0  0  0  0  0  0  0
    9.7887    9.4584   24.0334 H   0  0  0  0  0  0  0  0  0  0  0  0
    8.6470    9.9617   22.7566 H   0  0  0  0  0  0  0  0  0  0  0  0
    6.6616   16.3660   20.4659 H   0  0  0  0  0  0  0  0  0  0  0  0
    5.7612   15.9357   21.9557 H   0  0  0  0  0  0  0  0  0  0  0  0
    7.0622   17.1683   22.0188 H   0  0  0  0  0  0  0  0  0  0  0  0
    6.6862   12.5538   25.7354 H   0  0  0  0  0  0  0  0  0  0  0  0
    8.0690   13.6406   25.9913 H   0  0  0  0  0  0  0  0  0  0  0  0
    6.2436   13.6846   23.5299 H   0  0  0  0  0  0  0  0  0  0  0  0
    6.2002   14.8751   24.8476 H   0  0  0  0  0  0  0  0  0  0  0  0
    8.0980   15.8616   24.0743 H   0  0  0  0  0  0  0  0  0  0  0  0
  1  7  1  0  0  0  0
  1  9  2  0  0  0  0
  1 12  1  0  0  0  0
  2  3  1  0  0  0  0
  2  7  1  0  0  0  0
  3 12  1  0  0  0  0
  4 13  1  0  0  0  0
  5  6  1  0  0  0  0
  5  7  1  0  0  0  0
  6  8  1  0  0  0  0
  8 13  1  0  0  0  0
 10 13  2  0  0  0  0
 11 13  2  0  0  0  0
  2 14  1  0  0  0  0
  2 15  1  0  0  0  0
  3 16  1  0  0  0  0
  3 17  1  0  0  0  0
  4 18  1  0  0  0  0
  4 19  1  0  0  0  0
  4 20  1  0  0  0  0
  5 21  1  0  0  0  0
  5 22  1  0  0  0  0
  6 23  1  0  0  0  0
  6 24  1  0  0  0  0
  8 25  1  0  0  0  0
M  END
> <Mol Weight>
208,23

> <Formula>
C6H12N2O4S

> <ID>
EN300-7433955

> <name>
Sulfonamides

> <LogP>
-1,62

> <ROCS_ShapeQuery>
x0446_0A_x1080_0A_x0929_0A_x0812_0A_x0719_0A_x1140_0A_x0528_0A_x0310_0A

> <ROCS_TanimotoCombo>
0.332 

> <ROCS_ShapeTanimoto>
0.187 

> <ROCS_ColorTanimoto>
0.145 

> <ROCS_RefTversky>
0.173 

> <ROCS_RefColorTversky>
0.150 

> <ROCS_RefTverskyCombo>
0.323 

> <ROCS_FitTversky>
1.804 

> <ROCS_FitColorTversky>
0.809 

> <ROCS_FitTverskyCombo>
2.612 

> <ROCS_ColorScore>
-5.347

> <ROCS_Overlap>
2037.794

> <ROCS_Rank>
365                 

$$$$
untitled-dbase-1803_20
  -OEChem-02082415043D

 27 27  0     0  0  0  0  0  0999 V2000
    7.9286   11.7521   24.1925 C   0  0  0  0  0  0  0  0  0  0  0  0
    9.9864   11.8226   22.3102 C   0  0  0  0  0  0  0  0  0  0  0  0
    8.4742   10.5622   23.7108 C   0  0  0  0  0  0  0  0  0  0  0  0
    8.4119   12.9773   23.7331 C   0  0  0  0  0  0  0  0  0  0  0  0
    9.5031   10.5974   22.7697 C   0  0  0  0  0  0  0  0  0  0  0  0
    9.4408   13.0125   22.7919 C   0  0  0  0  0  0  0  0  0  0  0  0
    6.7455   14.6591   23.5082 C   0  0  0  0  0  0  0  0  0  0  0  0
   11.0960    9.5788   21.3272 C   0  0  0  0  0  0  0  0  0  0  0  0
    7.9752    9.3290   24.1840 N   0  0  0  0  0  0  0  0  0  0  0  0
   11.2626   13.9928   21.1112 N   0  0  0  0  0  0  0  0  0  0  0  0
    9.0091   15.1987   21.4475 O   0  0  0  0  0  0  0  0  0  0  0  0
   10.7119   15.2276   23.3042 O   0  0  0  0  0  0  0  0  0  0  0  0
    7.8634   14.1273   24.2161 O   0  0  0  0  0  0  0  0  0  0  0  0
   10.0490    9.4461   22.2861 O   0  0  0  0  0  0  0  0  0  0  0  0
   10.0638   14.5360   22.1999 S   0  0  0  0  0  0  0  0  0  0  0  0
    7.1251   11.7297   24.9251 H   0  0  0  0  0  0  0  0  0  0  0  0
   10.7884   11.8443   21.5764 H   0  0  0  0  0  0  0  0  0  0  0  0
    6.4056   15.5751   23.9975 H   0  0  0  0  0  0  0  0  0  0  0  0
    5.9392   13.9214   23.4915 H   0  0  0  0  0  0  0  0  0  0  0  0
    7.0492   14.8871   22.4838 H   0  0  0  0  0  0  0  0  0  0  0  0
   11.4416    8.5874   21.0244 H   0  0  0  0  0  0  0  0  0  0  0  0
   11.9214   10.1466   21.7639 H   0  0  0  0  0  0  0  0  0  0  0  0
   10.7124   10.1109   20.4534 H   0  0  0  0  0  0  0  0  0  0  0  0
    7.2705    9.3292   24.8924 H   0  0  0  0  0  0  0  0  0  0  0  0
    8.4007    8.4806   23.8718 H   0  0  0  0  0  0  0  0  0  0  0  0
   11.0850   14.1030   20.1054 H   0  0  0  0  0  0  0  0  0  0  0  0
   12.2469   14.1216   21.3755 H   0  0  0  0  0  0  0  0  0  0  0  0
  1  3  1  0  0  0  0
  1  4  2  0  0  0  0
  2  5  1  0  0  0  0
  2  6  2  0  0  0  0
  3  5  2  0  0  0  0
  3  9  1  0  0  0  0
  4  6  1  0  0  0  0
  4 13  1  0  0  0  0
  5 14  1  0  0  0  0
  6 15  1  0  0  0  0
  7 13  1  0  0  0  0
  8 14  1  0  0  0  0
 10 15  1  0  0  0  0
 11 15  2  0  0  0  0
 12 15  2  0  0  0  0
  1 16  1  0  0  0  0
  2 17  1  0  0  0  0
  7 18  1  0  0  0  0
  7 19  1  0  0  0  0
  7 20  1  0  0  0  0
  8 21  1  0  0  0  0
  8 22  1  0  0  0  0
  8 23  1  0  0  0  0
  9 24  1  0  0  0  0
  9 25  1  0  0  0  0
 10 26  1  0  0  0  0
 10 27  1  0  0  0  0
M  END
> <Mol Weight>
232,25

> <Formula>
C8H12N2O4S

> <ID>
EN300-76559

> <name>
Sulfonamides

> <LogP>
-0,56

> <ROCS_ShapeQuery>
x0446_0A_x1080_0A_x0929_0A_x0812_0A_x0719_0A_x1140_0A_x0528_0A_x0310_0A

> <ROCS_TanimotoCombo>
0.332 

> <ROCS_ShapeTanimoto>
0.205 

> <ROCS_ColorTanimoto>
0.128 

> <ROCS_RefTversky>
0.188 

> <ROCS_RefColorTversky>
0.143 

> <ROCS_RefTverskyCombo>
0.331 

> <ROCS_FitTversky>
1.805 

> <ROCS_FitColorTversky>
0.541 

> <ROCS_FitTverskyCombo>
2.346 

> <ROCS_ColorScore>
-5.116

> <ROCS_Overlap>
2212.126

> <ROCS_Rank>
366                 

$$$$
untitled-dbase-438_28
  -OEChem-02082415043D

 22 22  0     1  0  0  0  0  0999 V2000
    9.4844   10.3187   23.3930 C   0  0  0  0  0  0  0  0  0  0  0  0
   10.2946   11.5571   23.7370 C   0  0  0  0  0  0  0  0  0  0  0  0
    7.4930   11.5179   23.7534 C   0  0  0  0  0  0  0  0  0  0  0  0
    8.3026   12.7637   24.1040 C   0  0  2  0  0  0  0  0  0  0  0  0
    7.5686   14.0348   23.7084 C   0  0  0  0  0  0  0  0  0  0  0  0
    6.4366   15.4225   21.7479 N   0  0  0  0  0  0  0  0  0  0  0  0
    8.9913   15.1285   21.8092 O   0  0  0  0  0  0  0  0  0  0  0  0
    7.5268   13.1461   21.2516 O   0  0  0  0  0  0  0  0  0  0  0  0
    8.2400   10.3470   24.0955 O   0  0  0  0  0  0  0  0  0  0  0  0
    9.5502   12.7297   23.3989 O   0  0  0  0  0  0  0  0  0  0  0  0
    7.7608   14.3755   21.9919 S   0  0  0  0  0  0  0  0  0  0  0  0
    9.2809   10.2636   22.3173 H   0  0  0  0  0  0  0  0  0  0  0  0
   10.0232    9.4134   23.6878 H   0  0  0  0  0  0  0  0  0  0  0  0
   10.5362   11.5891   24.8057 H   0  0  0  0  0  0  0  0  0  0  0  0
   11.2312   11.5721   23.1721 H   0  0  0  0  0  0  0  0  0  0  0  0
    6.5534   11.4941   24.3143 H   0  0  0  0  0  0  0  0  0  0  0  0
    7.2534   11.4785   22.6841 H   0  0  0  0  0  0  0  0  0  0  0  0
    8.5185   12.7873   25.1796 H   0  0  0  0  0  0  0  0  0  0  0  0
    7.9611   14.8912   24.2582 H   0  0  0  0  0  0  0  0  0  0  0  0
    6.5004   13.9381   23.9057 H   0  0  0  0  0  0  0  0  0  0  0  0
    6.6377   16.4168   21.5845 H   0  0  0  0  0  0  0  0  0  0  0  0
    5.6403   15.0666   21.2050 H   0  0  0  0  0  0  0  0  0  0  0  0
  1  2  1  0  0  0  0
  1  9  1  0  0  0  0
  2 10  1  0  0  0  0
  3  4  1  0  0  0  0
  3  9  1  0  0  0  0
  4  5  1  0  0  0  0
  4 10  1  0  0  0  0
  5 11  1  0  0  0  0
  6 11  1  0  0  0  0
  7 11  2  0  0  0  0
  8 11  2  0  0  0  0
  1 12  1  0  0  0  0
  1 13  1  0  0  0  0
  2 14  1  0  0  0  0
  2 15  1  0  0  0  0
  3 16  1  0  0  0  0
  3 17  1  0  0  0  0
  4 18  1  0  0  0  0
  5 19  1  0  0  0  0
  5 20  1  0  0  0  0
  6 21  1  0  0  0  0
  6 22  1  0  0  0  0
M  END
> <Mol Weight>
181,21

> <Formula>
C5H11NO4S

> <ID>
EN300-246091

> <name>
Sulfonamides

> <LogP>
-1,59

> <ROCS_ShapeQuery>
x0446_0A_x1080_0A_x0929_0A_x0812_0A_x0719_0A_x1140_0A_x0528_0A_x0310_0A

> <ROCS_TanimotoCombo>
0.332 

> <ROCS_ShapeTanimoto>
0.168 

> <ROCS_ColorTanimoto>
0.164 

> <ROCS_RefTversky>
0.157 

> <ROCS_RefColorTversky>
0.171 

> <ROCS_RefTverskyCombo>
0.328 

> <ROCS_FitTversky>
1.777 

> <ROCS_FitColorTversky>
0.805 

> <ROCS_FitTverskyCombo>
2.581 

> <ROCS_ColorScore>
-6.087

> <ROCS_Overlap>
1847.017

> <ROCS_Rank>
367                 

$$$$
untitled-dbase-2110_28
  -OEChem-02082415043D

 29 29  0     1  0  0  0  0  0999 V2000
    6.2127   13.0423   24.0623 C   0  0  0  0  0  0  0  0  0  0  0  0
    6.8016   12.2198   25.2004 C   0  0  0  0  0  0  0  0  0  0  0  0
    7.2741   13.4021   23.0283 C   0  0  0  0  0  0  0  0  0  0  0  0
    7.5111   10.9750   24.6789 C   0  0  0  0  0  0  0  0  0  0  0  0
    7.9949   12.1571   22.4829 C   0  0  2  0  0  0  0  0  0  0  0  0
    8.5926   11.3186   23.6399 C   0  0  2  0  0  0  0  0  0  0  0  0
    9.0533   12.5901   21.4644 C   0  0  0  0  0  0  0  0  0  0  0  0
    9.2517   10.0266   23.1488 C   0  0  0  0  0  0  0  0  0  0  0  0
   11.2888   13.9616   21.0491 N   0  0  0  0  0  0  0  0  0  0  0  0
    9.0907   15.2014   21.5468 O   0  0  0  0  0  0  0  0  0  0  0  0
   10.2294   13.9043   23.3925 O   0  0  0  0  0  0  0  0  0  0  0  0
    9.7576    9.3492   24.1887 F   0  0  0  0  0  0  0  0  0  0  0  0
    8.3451    9.2605   22.5265 F   0  0  0  0  0  0  0  0  0  0  0  0
   10.2411   10.3170   22.2926 F   0  0  0  0  0  0  0  0  0  0  0  0
    9.8686   14.0542   21.9905 S   0  0  0  0  0  0  0  0  0  0  0  0
    5.4071   12.4764   23.5783 H   0  0  0  0  0  0  0  0  0  0  0  0
    5.7630   13.9576   24.4631 H   0  0  0  0  0  0  0  0  0  0  0  0
    7.5105   12.8341   25.7692 H   0  0  0  0  0  0  0  0  0  0  0  0
    6.0054   11.9271   25.8941 H   0  0  0  0  0  0  0  0  0  0  0  0
    6.7991   13.9490   22.2049 H   0  0  0  0  0  0  0  0  0  0  0  0
    8.0040   14.0849   23.4824 H   0  0  0  0  0  0  0  0  0  0  0  0
    7.9619   10.4409   25.5241 H   0  0  0  0  0  0  0  0  0  0  0  0
    6.7710   10.2970   24.2344 H   0  0  0  0  0  0  0  0  0  0  0  0
    7.2542   11.5430   21.9522 H   0  0  0  0  0  0  0  0  0  0  0  0
    9.3657   11.9164   24.1420 H   0  0  0  0  0  0  0  0  0  0  0  0
    8.5853   12.7940   20.5049 H   0  0  0  0  0  0  0  0  0  0  0  0
    9.8029   11.8113   21.3523 H   0  0  0  0  0  0  0  0  0  0  0  0
   11.9778   13.2402   21.2951 H   0  0  0  0  0  0  0  0  0  0  0  0
   11.2022   14.1238   20.0383 H   0  0  0  0  0  0  0  0  0  0  0  0
  1  2  1  0  0  0  0
  1  3  1  0  0  0  0
  2  4  1  0  0  0  0
  3  5  1  0  0  0  0
  4  6  1  0  0  0  0
  5  6  1  0  0  0  0
  5  7  1  6  0  0  0
  6  8  1  1  0  0  0
  7 15  1  0  0  0  0
  8 12  1  0  0  0  0
  8 13  1  0  0  0  0
  8 14  1  0  0  0  0
  9 15  1  0  0  0  0
 10 15  2  0  0  0  0
 11 15  2  0  0  0  0
  1 16  1  0  0  0  0
  1 17  1  0  0  0  0
  2 18  1  0  0  0  0
  2 19  1  0  0  0  0
  3 20  1  0  0  0  0
  3 21  1  0  0  0  0
  4 22  1  0  0  0  0
  4 23  1  0  0  0  0
  5 24  1  0  0  0  0
  6 25  1  0  0  0  0
  7 26  1  0  0  0  0
  7 27  1  0  0  0  0
  9 28  1  0  0  0  0
  9 29  1  0  0  0  0
M  END
> <Mol Weight>
245,26

> <Formula>
C8H14F3NO2S

> <ID>
EN300-27733638

> <name>
Sulfonamides

> <LogP>
1,30

> <ROCS_ShapeQuery>
x0446_0A_x1080_0A_x0929_0A_x0812_0A_x0719_0A_x1140_0A_x0528_0A_x0310_0A

> <ROCS_TanimotoCombo>
0.332 

> <ROCS_ShapeTanimoto>
0.196 

> <ROCS_ColorTanimoto>
0.136 

> <ROCS_RefTversky>
0.181 

> <ROCS_RefColorTversky>
0.139 

> <ROCS_RefTverskyCombo>
0.320 

> <ROCS_FitTversky>
1.760 

> <ROCS_FitColorTversky>
0.873 

> <ROCS_FitTverskyCombo>
2.634 

> <ROCS_ColorScore>
-4.944

> <ROCS_Overlap>
2129.996

> <ROCS_Rank>
368                 

$$$$
untitled-dbase-797_3
  -OEChem-02082415043D

 22 23  0     0  0  0  0  0  0999 V2000
    9.6527   10.6819   22.3635 C   0  0  0  0  0  0  0  0  0  0  0  0
   10.1325   11.9097   21.9040 C   0  0  0  0  0  0  0  0  0  0  0  0
    8.9087   13.0895   23.6474 C   0  0  0  0  0  0  0  0  0  0  0  0
    8.4494   11.8659   24.0987 C   0  0  0  0  0  0  0  0  0  0  0  0
    8.8190   10.6890   23.4647 C   0  0  0  0  0  0  0  0  0  0  0  0
    9.7640   13.1059   22.5425 C   0  0  0  0  0  0  0  0  0  0  0  0
    7.5001   11.5578   25.1902 C   0  0  0  0  0  0  0  0  0  0  0  0
    7.7225   10.0474   25.2826 C   0  0  0  0  0  0  0  0  0  0  0  0
   11.3585   14.0975   20.6507 N   0  0  0  0  0  0  0  0  0  0  0  0
    9.2825   15.4104   21.4331 O   0  0  0  0  0  0  0  0  0  0  0  0
   11.2591   15.1933   22.9801 O   0  0  0  0  0  0  0  0  0  0  0  0
    8.2615    9.5689   24.0273 O   0  0  0  0  0  0  0  0  0  0  0  0
   10.3925   14.6273   21.9564 S   0  0  0  0  0  0  0  0  0  0  0  0
    9.9261    9.7579   21.8665 H   0  0  0  0  0  0  0  0  0  0  0  0
   10.7998   11.9306   21.0458 H   0  0  0  0  0  0  0  0  0  0  0  0
    8.6158   14.0082   24.1452 H   0  0  0  0  0  0  0  0  0  0  0  0
    7.8077   12.0593   26.1133 H   0  0  0  0  0  0  0  0  0  0  0  0
    6.4609   11.8030   24.9573 H   0  0  0  0  0  0  0  0  0  0  0  0
    8.4117    9.7908   26.0937 H   0  0  0  0  0  0  0  0  0  0  0  0
    6.7772    9.5194   25.4625 H   0  0  0  0  0  0  0  0  0  0  0  0
   11.0300   14.2946   19.6975 H   0  0  0  0  0  0  0  0  0  0  0  0
   12.3793   14.1451   20.7562 H   0  0  0  0  0  0  0  0  0  0  0  0
  1  2  2  0  0  0  0
  1  5  1  0  0  0  0
  2  6  1  0  0  0  0
  3  4  1  0  0  0  0
  3  6  2  0  0  0  0
  4  5  2  0  0  0  0
  4  7  1  0  0  0  0
  5 12  1  0  0  0  0
  6 13  1  0  0  0  0
  7  8  1  0  0  0  0
  8 12  1  0  0  0  0
  9 13  1  0  0  0  0
 10 13  2  0  0  0  0
 11 13  2  0  0  0  0
  1 14  1  0  0  0  0
  2 15  1  0  0  0  0
  3 16  1  0  0  0  0
  7 17  1  0  0  0  0
  7 18  1  0  0  0  0
  8 19  1  0  0  0  0
  8 20  1  0  0  0  0
  9 21  1  0  0  0  0
  9 22  1  0  0  0  0
M  END
> <Mol Weight>
199,22

> <Formula>
C8H9NO3S

> <ID>
EN300-194851

> <name>
Sulfonamides

> <LogP>
0,46

> <ROCS_ShapeQuery>
x0446_0A_x1080_0A_x0929_0A_x0812_0A_x0719_0A_x1140_0A_x0528_0A_x0310_0A

> <ROCS_TanimotoCombo>
0.332 

> <ROCS_ShapeTanimoto>
0.187 

> <ROCS_ColorTanimoto>
0.145 

> <ROCS_RefTversky>
0.173 

> <ROCS_RefColorTversky>
0.154 

> <ROCS_RefTverskyCombo>
0.327 

> <ROCS_FitTversky>
1.766 

> <ROCS_FitColorTversky>
0.721 

> <ROCS_FitTverskyCombo>
2.487 

> <ROCS_ColorScore>
-5.470

> <ROCS_Overlap>
2042.498

> <ROCS_Rank>
369                 

$$$$
untitled-dbase-1722_1188
  -OEChem-02082415043D

 30 30  0     1  0  0  0  0  0999 V2000
    8.0608    9.7596   23.8885 C   0  0  0  0  0  0  0  0  0  0  0  0
    9.4019    9.5704   23.5550 C   0  0  0  0  0  0  0  0  0  0  0  0
    7.6028   11.0283   24.2442 C   0  0  0  0  0  0  0  0  0  0  0  0
   10.2851   10.6498   23.5773 C   0  0  0  0  0  0  0  0  0  0  0  0
    8.4860   12.1077   24.2664 C   0  0  0  0  0  0  0  0  0  0  0  0
    9.8272   11.9184   23.9330 C   0  0  0  0  0  0  0  0  0  0  0  0
    8.7477   15.9353   20.5507 C   0  0  0  0  0  0  0  0  0  0  0  0
   10.7768   13.0800   23.9574 C   0  0  0  0  0  0  0  0  0  0  0  0
    9.8529   14.4100   22.2543 C   0  0  0  0  0  0  0  0  0  0  0  0
    8.7152   15.3878   21.9717 C   0  0  2  0  0  0  0  0  0  0  0  0
    6.1251   15.7460   21.5087 N   0  0  0  0  0  0  0  0  0  0  0  0
    7.1040   13.3683   21.5807 O   0  0  0  0  0  0  0  0  0  0  0  0
    6.9043   14.6937   23.7229 O   0  0  0  0  0  0  0  0  0  0  0  0
   10.0619   14.2700   23.6532 O   0  0  0  0  0  0  0  0  0  0  0  0
    7.1425   14.6290   22.2947 S   0  0  0  0  0  0  0  0  0  0  0  0
    7.3729    8.9193   23.8698 H   0  0  0  0  0  0  0  0  0  0  0  0
    9.7584    8.5828   23.2770 H   0  0  0  0  0  0  0  0  0  0  0  0
    6.5585   11.1762   24.5028 H   0  0  0  0  0  0  0  0  0  0  0  0
   11.3284   10.4929   23.3161 H   0  0  0  0  0  0  0  0  0  0  0  0
    8.1203   13.0925   24.5449 H   0  0  0  0  0  0  0  0  0  0  0  0
    8.6825   15.1238   19.8189 H   0  0  0  0  0  0  0  0  0  0  0  0
    9.6808   16.4794   20.3681 H   0  0  0  0  0  0  0  0  0  0  0  0
    7.9239   16.6329   20.3655 H   0  0  0  0  0  0  0  0  0  0  0  0
   11.2421   13.1850   24.9434 H   0  0  0  0  0  0  0  0  0  0  0  0
   11.5760   12.9429   23.2211 H   0  0  0  0  0  0  0  0  0  0  0  0
    9.6102   13.4224   21.8480 H   0  0  0  0  0  0  0  0  0  0  0  0
   10.7874   14.7527   21.7978 H   0  0  0  0  0  0  0  0  0  0  0  0
    8.7819   16.2210   22.6807 H   0  0  0  0  0  0  0  0  0  0  0  0
    5.6740   15.4515   20.6338 H   0  0  0  0  0  0  0  0  0  0  0  0
    5.5382   16.3542   22.0928 H   0  0  0  0  0  0  0  0  0  0  0  0
  1  2  1  0  0  0  0
  1  3  2  0  0  0  0
  2  4  2  0  0  0  0
  3  5  1  0  0  0  0
  4  6  1  0  0  0  0
  5  6  2  0  0  0  0
  6  8  1  0  0  0  0
  7 10  1  6  0  0  0
  8 14  1  0  0  0  0
  9 10  1  0  0  0  0
  9 14  1  0  0  0  0
 10 15  1  0  0  0  0
 11 15  1  0  0  0  0
 12 15  2  0  0  0  0
 13 15  2  0  0  0  0
  1 16  1  0  0  0  0
  2 17  1  0  0  0  0
  3 18  1  0  0  0  0
  4 19  1  0  0  0  0
  5 20  1  0  0  0  0
  7 21  1  0  0  0  0
  7 22  1  0  0  0  0
  7 23  1  0  0  0  0
  8 24  1  0  0  0  0
  8 25  1  0  0  0  0
  9 26  1  0  0  0  0
  9 27  1  0  0  0  0
 10 28  1  0  0  0  0
 11 29  1  0  0  0  0
 11 30  1  0  0  0  0
M  END
> <Mol Weight>
229,29

> <Formula>
C10H15NO3S

> <ID>
EN300-37104684

> <name>
Sulfonamides

> <LogP>
0,86

> <ROCS_ShapeQuery>
x0446_0A_x1080_0A_x0929_0A_x0812_0A_x0719_0A_x1140_0A_x0528_0A_x0310_0A

> <ROCS_TanimotoCombo>
0.332 

> <ROCS_ShapeTanimoto>
0.194 

> <ROCS_ColorTanimoto>
0.138 

> <ROCS_RefTversky>
0.179 

> <ROCS_RefColorTversky>
0.144 

> <ROCS_RefTverskyCombo>
0.323 

> <ROCS_FitTversky>
1.757 

> <ROCS_FitColorTversky>
0.775 

> <ROCS_FitTverskyCombo>
2.531 

> <ROCS_ColorScore>
-5.124

> <ROCS_Overlap>
2110.781

> <ROCS_Rank>
370                 

$$$$
untitled-dbase-2055_1
  -OEChem-02082415043D

 22 23  0     0  0  0  0  0  0999 V2000
    6.9291   11.9041   20.9817 C   0  0  0  0  0  0  0  0  0  0  0  0
    6.9882   10.8952   21.9387 C   0  0  0  0  0  0  0  0  0  0  0  0
    7.8268   12.9626   21.0447 C   0  0  0  0  0  0  0  0  0  0  0  0
    8.9890   10.0169   24.9397 C   0  0  0  0  0  0  0  0  0  0  0  0
    9.8399   11.1035   24.9262 C   0  0  0  0  0  0  0  0  0  0  0  0
    7.9481   10.9430   22.9639 C   0  0  0  0  0  0  0  0  0  0  0  0
    8.8626   12.0147   23.0342 C   0  0  0  0  0  0  0  0  0  0  0  0
    8.7810   13.0099   22.0641 C   0  0  0  0  0  0  0  0  0  0  0  0
    8.0298    9.9408   23.9401 C   0  0  0  0  0  0  0  0  0  0  0  0
    9.7945   12.0912   24.0030 N   0  0  0  0  0  0  0  0  0  0  0  0
   11.1592   13.7650   21.1265 N   0  0  0  0  0  0  0  0  0  0  0  0
    9.2520   15.4792   21.3905 O   0  0  0  0  0  0  0  0  0  0  0  0
   10.3643   14.5457   23.4494 O   0  0  0  0  0  0  0  0  0  0  0  0
    9.8866   14.3732   22.0877 S   0  0  0  0  0  0  0  0  0  0  0  0
    6.9743    8.5662   23.9833 Cl  0  0  0  0  0  0  0  0  0  0  0  0
    6.1866   11.8637   20.1906 H   0  0  0  0  0  0  0  0  0  0  0  0
    6.2705   10.0840   21.8542 H   0  0  0  0  0  0  0  0  0  0  0  0
    7.7776   13.7476   20.2948 H   0  0  0  0  0  0  0  0  0  0  0  0
    9.0818    9.2611   25.7122 H   0  0  0  0  0  0  0  0  0  0  0  0
   10.6094   11.2164   25.6828 H   0  0  0  0  0  0  0  0  0  0  0  0
   11.2831   14.1612   20.1868 H   0  0  0  0  0  0  0  0  0  0  0  0
   12.0410   13.5224   21.5944 H   0  0  0  0  0  0  0  0  0  0  0  0
  1  2  1  0  0  0  0
  1  3  2  0  0  0  0
  2  6  2  0  0  0  0
  3  8  1  0  0  0  0
  4  5  1  0  0  0  0
  4  9  2  0  0  0  0
  5 10  2  0  0  0  0
  6  7  1  0  0  0  0
  6  9  1  0  0  0  0
  7  8  2  0  0  0  0
  7 10  1  0  0  0  0
  8 14  1  0  0  0  0
  9 15  1  0  0  0  0
 11 14  1  0  0  0  0
 12 14  2  0  0  0  0
 13 14  2  0  0  0  0
  1 16  1  0  0  0  0
  2 17  1  0  0  0  0
  3 18  1  0  0  0  0
  4 19  1  0  0  0  0
  5 20  1  0  0  0  0
 11 21  1  0  0  0  0
 11 22  1  0  0  0  0
M  END
> <Mol Weight>
242,68

> <Formula>
C9H7ClN2O2S

> <ID>
EN300-371993

> <name>
Sulfonamides

> <LogP>
1,34

> <ROCS_ShapeQuery>
x0446_0A_x1080_0A_x0929_0A_x0812_0A_x0719_0A_x1140_0A_x0528_0A_x0310_0A

> <ROCS_TanimotoCombo>
0.332 

> <ROCS_ShapeTanimoto>
0.155 

> <ROCS_ColorTanimoto>
0.177 

> <ROCS_RefTversky>
0.149 

> <ROCS_RefColorTversky>
0.182 

> <ROCS_RefTverskyCombo>
0.331 

> <ROCS_FitTversky>
1.411 

> <ROCS_FitColorTversky>
0.858 

> <ROCS_FitTverskyCombo>
2.269 

> <ROCS_ColorScore>
-6.491

> <ROCS_Overlap>
1752.825

> <ROCS_Rank>
371                 

$$$$
untitled-dbase-1382_241
  -OEChem-02082415043D

 26 26  0     0  0  0  0  0  0999 V2000
    9.4539   10.4739   23.1739 C   0  0  0  0  0  0  0  0  0  0  0  0
    7.8839   11.2400   24.8428 C   0  0  0  0  0  0  0  0  0  0  0  0
    9.9840   11.7608   23.0818 C   0  0  0  0  0  0  0  0  0  0  0  0
    8.4139   12.5270   24.7507 C   0  0  0  0  0  0  0  0  0  0  0  0
    8.4038   10.2135   24.0544 C   0  0  0  0  0  0  0  0  0  0  0  0
    9.4640   12.7873   23.8702 C   0  0  0  0  0  0  0  0  0  0  0  0
   11.3611   14.1538   23.4347 C   0  0  0  0  0  0  0  0  0  0  0  0
   11.6198   15.4523   22.6959 C   0  0  0  0  0  0  0  0  0  0  0  0
    7.8679    8.9123   24.1475 N   0  0  0  0  0  0  0  0  0  0  0  0
   11.3194   14.1753   20.3872 N   0  0  0  0  0  0  0  0  0  0  0  0
    9.2986   15.3087   21.5047 O   0  0  0  0  0  0  0  0  0  0  0  0
   11.1124   16.7377   20.4782 O   0  0  0  0  0  0  0  0  0  0  0  0
    9.9813   14.0431   23.7802 O   0  0  0  0  0  0  0  0  0  0  0  0
   10.6974   15.5431   21.1922 S   0  0  0  0  0  0  0  0  0  0  0  0
    9.8667    9.6814   22.5550 H   0  0  0  0  0  0  0  0  0  0  0  0
    7.0656   11.0482   25.5322 H   0  0  0  0  0  0  0  0  0  0  0  0
   10.8019   11.9575   22.3941 H   0  0  0  0  0  0  0  0  0  0  0  0
    8.0047   13.3225   25.3674 H   0  0  0  0  0  0  0  0  0  0  0  0
   11.6190   13.2973   22.8040 H   0  0  0  0  0  0  0  0  0  0  0  0
   11.9494   14.0910   24.3553 H   0  0  0  0  0  0  0  0  0  0  0  0
   12.6730   15.5589   22.4205 H   0  0  0  0  0  0  0  0  0  0  0  0
   11.3126   16.3105   23.3001 H   0  0  0  0  0  0  0  0  0  0  0  0
    7.1474    8.7280   24.8160 H   0  0  0  0  0  0  0  0  0  0  0  0
    8.2804    8.1755   23.6119 H   0  0  0  0  0  0  0  0  0  0  0  0
   10.7022   13.3608   20.2810 H   0  0  0  0  0  0  0  0  0  0  0  0
   11.9376   14.3340   19.5821 H   0  0  0  0  0  0  0  0  0  0  0  0
  1  3  2  0  0  0  0
  1  5  1  0  0  0  0
  2  4  1  0  0  0  0
  2  5  2  0  0  0  0
  3  6  1  0  0  0  0
  4  6  2  0  0  0  0
  5  9  1  0  0  0  0
  6 13  1  0  0  0  0
  7  8  1  0  0  0  0
  7 13  1  0  0  0  0
  8 14  1  0  0  0  0
 10 14  1  0  0  0  0
 11 14  2  0  0  0  0
 12 14  2  0  0  0  0
  1 15  1  0  0  0  0
  2 16  1  0  0  0  0
  3 17  1  0  0  0  0
  4 18  1  0  0  0  0
  7 19  1  0  0  0  0
  7 20  1  0  0  0  0
  8 21  1  0  0  0  0
  8 22  1  0  0  0  0
  9 23  1  0  0  0  0
  9 24  1  0  0  0  0
 10 25  1  0  0  0  0
 10 26  1  0  0  0  0
M  END
> <Mol Weight>
216,26

> <Formula>
C8H12N2O3S

> <ID>
EN300-269872

> <name>
Sulfonamides

> <LogP>
-0,57

> <ROCS_ShapeQuery>
x0446_0A_x1080_0A_x0929_0A_x0812_0A_x0719_0A_x1140_0A_x0528_0A_x0310_0A

> <ROCS_TanimotoCombo>
0.332 

> <ROCS_ShapeTanimoto>
0.184 

> <ROCS_ColorTanimoto>
0.148 

> <ROCS_RefTversky>
0.171 

> <ROCS_RefColorTversky>
0.160 

> <ROCS_RefTverskyCombo>
0.331 

> <ROCS_FitTversky>
1.721 

> <ROCS_FitColorTversky>
0.671 

> <ROCS_FitTverskyCombo>
2.392 

> <ROCS_ColorScore>
-5.709

> <ROCS_Overlap>
2012.084

> <ROCS_Rank>
372                 

$$$$
untitled-dbase-1355_11
  -OEChem-02082415043D

 22 22  0     0  0  0  0  0  0999 V2000
    8.0281   10.0377   24.1426 C   0  0  0  0  0  0  0  0  0  0  0  0
    9.4202   10.0665   24.2242 C   0  0  0  0  0  0  0  0  0  0  0  0
    7.3311   11.1665   23.7116 C   0  0  0  0  0  0  0  0  0  0  0  0
   10.1155   11.2242   23.8750 C   0  0  0  0  0  0  0  0  0  0  0  0
    8.0264   12.3242   23.3624 C   0  0  0  0  0  0  0  0  0  0  0  0
    9.4186   12.3531   23.4441 C   0  0  0  0  0  0  0  0  0  0  0  0
   11.3646   14.2876   20.5118 C   0  0  0  0  0  0  0  0  0  0  0  0
   11.1060   13.3016   21.5709 N   0  0  0  0  0  0  0  0  0  0  0  0
    7.2870   13.4588   22.9268 N   0  3  0  0  0  0  0  0  0  0  0  0
    6.9038   14.2952   23.7782 O   0  5  0  0  0  0  0  0  0  0  0  0
    7.0405   13.5879   21.7044 O   0  0  0  0  0  0  0  0  0  0  0  0
    9.3996   14.8580   22.7123 O   0  0  0  0  0  0  0  0  0  0  0  0
   11.3451   13.9818   24.0434 O   0  0  0  0  0  0  0  0  0  0  0  0
   10.3341   13.7843   23.0158 S   0  0  0  0  0  0  0  0  0  0  0  0
    7.4869    9.1360   24.4144 H   0  0  0  0  0  0  0  0  0  0  0  0
    9.9630    9.1875   24.5594 H   0  0  0  0  0  0  0  0  0  0  0  0
    6.2459   11.1278   23.6544 H   0  0  0  0  0  0  0  0  0  0  0  0
   11.2003   11.2334   23.9428 H   0  0  0  0  0  0  0  0  0  0  0  0
   11.4407   15.2914   20.9552 H   0  0  0  0  0  0  0  0  0  0  0  0
   12.3075   14.0395   20.0024 H   0  0  0  0  0  0  0  0  0  0  0  0
   10.5394   14.2696   19.7848 H   0  0  0  0  0  0  0  0  0  0  0  0
   11.0165   12.3249   21.2652 H   0  0  0  0  0  0  0  0  0  0  0  0
  1  2  1  0  0  0  0
  1  3  2  0  0  0  0
  2  4  2  0  0  0  0
  3  5  1  0  0  0  0
  4  6  1  0  0  0  0
  5  6  2  0  0  0  0
  5  9  1  0  0  0  0
  6 14  1  0  0  0  0
  7  8  1  0  0  0  0
  8 14  1  0  0  0  0
  9 10  1  0  0  0  0
  9 11  2  0  0  0  0
 12 14  2  0  0  0  0
 13 14  2  0  0  0  0
  1 15  1  0  0  0  0
  2 16  1  0  0  0  0
  3 17  1  0  0  0  0
  4 18  1  0  0  0  0
  7 19  1  0  0  0  0
  7 20  1  0  0  0  0
  7 21  1  0  0  0  0
  8 22  1  0  0  0  0
M  CHG  2   9   1  10  -1
M  END
> <Mol Weight>
216,21

> <Formula>
C7H8N2O4S

> <ID>
EN300-155501

> <name>
Sulfonamides

> <LogP>
0,74

> <ROCS_ShapeQuery>
x0446_0A_x1080_0A_x0929_0A_x0812_0A_x0719_0A_x1140_0A_x0528_0A_x0310_0A

> <ROCS_TanimotoCombo>
0.332 

> <ROCS_ShapeTanimoto>
0.192 

> <ROCS_ColorTanimoto>
0.140 

> <ROCS_RefTversky>
0.177 

> <ROCS_RefColorTversky>
0.149 

> <ROCS_RefTverskyCombo>
0.326 

> <ROCS_FitTversky>
1.759 

> <ROCS_FitColorTversky>
0.702 

> <ROCS_FitTverskyCombo>
2.461 

> <ROCS_ColorScore>
-5.320

> <ROCS_Overlap>
2087.862

> <ROCS_Rank>
373                 

$$$$
untitled-dbase-2832_7
  -OEChem-02082415043D

 19 19  0     0  0  0  0  0  0999 V2000
    8.3869   12.8014   24.0557 C   0  0  0  0  0  0  0  0  0  0  0  0
    9.6631   11.4812   22.4854 C   0  0  0  0  0  0  0  0  0  0  0  0
    7.7934   11.6399   24.5499 C   0  0  0  0  0  0  0  0  0  0  0  0
    8.1348   10.3990   24.0119 C   0  0  0  0  0  0  0  0  0  0  0  0
    9.3217   12.7220   23.0234 C   0  0  0  0  0  0  0  0  0  0  0  0
    9.0696   10.3196   22.9797 C   0  0  0  0  0  0  0  0  0  0  0  0
   11.0890   13.5307   21.1992 N   0  0  0  0  0  0  0  0  0  0  0  0
    6.8423   11.7259   25.6009 N   0  3  0  0  0  0  0  0  0  0  0  0
    5.6286   11.8611   25.3130 O   0  5  0  0  0  0  0  0  0  0  0  0
    7.2418   11.6646   26.7888 O   0  0  0  0  0  0  0  0  0  0  0  0
    9.0341   14.9813   21.7639 O   0  0  0  0  0  0  0  0  0  0  0  0
   10.8879   14.7580   23.4553 O   0  0  0  0  0  0  0  0  0  0  0  0
    7.5600    9.2841   24.4898 F   0  0  0  0  0  0  0  0  0  0  0  0
   10.0644   14.1761   22.4047 S   0  0  0  0  0  0  0  0  0  0  0  0
    9.5406    8.6423   22.2435 Br  0  0  0  0  0  0  0  0  0  0  0  0
    8.1227   13.7705   24.4737 H   0  0  0  0  0  0  0  0  0  0  0  0
   10.3919   11.4259   21.6799 H   0  0  0  0  0  0  0  0  0  0  0  0
   10.8362   13.6896   20.2162 H   0  0  0  0  0  0  0  0  0  0  0  0
   12.1013   13.5360   21.3735 H   0  0  0  0  0  0  0  0  0  0  0  0
  1  3  1  0  0  0  0
  1  5  2  0  0  0  0
  2  5  1  0  0  0  0
  2  6  2  0  0  0  0
  3  4  2  0  0  0  0
  3  8  1  0  0  0  0
  4  6  1  0  0  0  0
  4 13  1  0  0  0  0
  5 14  1  0  0  0  0
  6 15  1  0  0  0  0
  7 14  1  0  0  0  0
  8  9  1  0  0  0  0
  8 10  2  0  0  0  0
 11 14  2  0  0  0  0
 12 14  2  0  0  0  0
  1 16  1  0  0  0  0
  2 17  1  0  0  0  0
  7 18  1  0  0  0  0
  7 19  1  0  0  0  0
M  CHG  2   8   1   9  -1
M  END
> <Mol Weight>
299,07

> <Formula>
C6H4BrFN2O4S

> <ID>
EN300-20838600

> <name>
Sulfonamides

> <LogP>
1,43

> <ROCS_ShapeQuery>
x0446_0A_x1080_0A_x0929_0A_x0812_0A_x0719_0A_x1140_0A_x0528_0A_x0310_0A

> <ROCS_TanimotoCombo>
0.332 

> <ROCS_ShapeTanimoto>
0.198 

> <ROCS_ColorTanimoto>
0.134 

> <ROCS_RefTversky>
0.182 

> <ROCS_RefColorTversky>
0.147 

> <ROCS_RefTverskyCombo>
0.329 

> <ROCS_FitTversky>
1.754 

> <ROCS_FitColorTversky>
0.613 

> <ROCS_FitTverskyCombo>
2.368 

> <ROCS_ColorScore>
-5.229

> <ROCS_Overlap>
2151.585

> <ROCS_Rank>
374                 

$$$$
untitled-dbase-2762_6
  -OEChem-02082415043D

 25 26  0     0  0  0  0  0  0999 V2000
    8.1781   10.2799   23.7847 C   0  0  0  0  0  0  0  0  0  0  0  0
    9.6848   11.9171   22.8443 C   0  0  0  0  0  0  0  0  0  0  0  0
    7.3649   11.3021   24.2914 C   0  0  0  0  0  0  0  0  0  0  0  0
    7.7398   12.6372   24.0876 C   0  0  0  0  0  0  0  0  0  0  0  0
    8.8891   12.9422   23.3537 C   0  0  0  0  0  0  0  0  0  0  0  0
    9.3320   10.5870   23.0629 C   0  0  0  0  0  0  0  0  0  0  0  0
    6.1252   10.9578   25.0667 C   0  0  0  0  0  0  0  0  0  0  0  0
    5.2125   12.1715   25.1751 C   0  0  0  0  0  0  0  0  0  0  0  0
    6.0435   13.3881   25.5502 C   0  0  0  0  0  0  0  0  0  0  0  0
    8.1172   15.4429   23.8589 N   0  0  0  0  0  0  0  0  0  0  0  0
   10.6218   14.8401   23.7642 O   0  0  0  0  0  0  0  0  0  0  0  0
    9.2770   14.8594   21.6338 O   0  0  0  0  0  0  0  0  0  0  0  0
    7.0130   13.7063   24.5463 O   0  0  0  0  0  0  0  0  0  0  0  0
    9.3708   14.6006   23.0621 S   0  0  0  0  0  0  0  0  0  0  0  0
   10.4151    9.1971   22.3788 Br  0  0  0  0  0  0  0  0  0  0  0  0
    7.8989    9.2422   23.9546 H   0  0  0  0  0  0  0  0  0  0  0  0
   10.5817   12.1599   22.2788 H   0  0  0  0  0  0  0  0  0  0  0  0
    5.5833   10.1382   24.5812 H   0  0  0  0  0  0  0  0  0  0  0  0
    6.4205   10.6231   26.0684 H   0  0  0  0  0  0  0  0  0  0  0  0
    4.7277   12.3484   24.2067 H   0  0  0  0  0  0  0  0  0  0  0  0
    4.4271   11.9908   25.9161 H   0  0  0  0  0  0  0  0  0  0  0  0
    5.3905   14.2610   25.6553 H   0  0  0  0  0  0  0  0  0  0  0  0
    6.5559   13.2474   26.5100 H   0  0  0  0  0  0  0  0  0  0  0  0
    7.1838   15.4350   23.4298 H   0  0  0  0  0  0  0  0  0  0  0  0
    8.1021   15.4243   24.8859 H   0  0  0  0  0  0  0  0  0  0  0  0
  1  3  2  0  0  0  0
  1  6  1  0  0  0  0
  2  5  1  0  0  0  0
  2  6  2  0  0  0  0
  3  4  1  0  0  0  0
  3  7  1  0  0  0  0
  4  5  2  0  0  0  0
  4 13  1  0  0  0  0
  5 14  1  0  0  0  0
  6 15  1  0  0  0  0
  7  8  1  0  0  0  0
  8  9  1  0  0  0  0
  9 13  1  0  0  0  0
 10 14  1  0  0  0  0
 11 14  2  0  0  0  0
 12 14  2  0  0  0  0
  1 16  1  0  0  0  0
  2 17  1  0  0  0  0
  7 18  1  0  0  0  0
  7 19  1  0  0  0  0
  8 20  1  0  0  0  0
  8 21  1  0  0  0  0
  9 22  1  0  0  0  0
  9 23  1  0  0  0  0
 10 24  1  0  0  0  0
 10 25  1  0  0  0  0
M  END
> <Mol Weight>
292,15

> <Formula>
C9H10BrNO3S

> <ID>
EN300-4805181

> <name>
Sulfonamides

> <LogP>
1,67

> <ROCS_ShapeQuery>
x0446_0A_x1080_0A_x0929_0A_x0812_0A_x0719_0A_x1140_0A_x0528_0A_x0310_0A

> <ROCS_TanimotoCombo>
0.332 

> <ROCS_ShapeTanimoto>
0.202 

> <ROCS_ColorTanimoto>
0.130 

> <ROCS_RefTversky>
0.186 

> <ROCS_RefColorTversky>
0.142 

> <ROCS_RefTverskyCombo>
0.328 

> <ROCS_FitTversky>
1.786 

> <ROCS_FitColorTversky>
0.596 

> <ROCS_FitTverskyCombo>
2.382 

> <ROCS_ColorScore>
-5.079

> <ROCS_Overlap>
2190.554

> <ROCS_Rank>
375                 

$$$$
untitled-dbase-1008_3
  -OEChem-02082415043D

 22 22  0     0  0  0  0  0  0999 V2000
    9.5691   10.3766   23.3902 C   0  0  0  0  0  0  0  0  0  0  0  0
    8.5577    9.8145   24.1692 C   0  0  0  0  0  0  0  0  0  0  0  0
    7.6549   12.0165   24.5857 C   0  0  0  0  0  0  0  0  0  0  0  0
    9.6234   11.7586   23.2089 C   0  0  0  0  0  0  0  0  0  0  0  0
    8.6663   12.5785   23.8067 C   0  0  0  0  0  0  0  0  0  0  0  0
    7.6006   10.6344   24.7669 C   0  0  0  0  0  0  0  0  0  0  0  0
    7.0213   15.9249   22.8124 C   0  0  0  0  0  0  0  0  0  0  0  0
   10.6557   12.3079   22.4162 N   0  0  0  0  0  0  0  0  0  0  0  0
    8.7010   13.9985   23.6351 N   0  0  0  0  0  0  0  0  0  0  0  0
    9.1709   15.3237   21.4762 O   0  0  0  0  0  0  0  0  0  0  0  0
    7.2555   13.6877   21.4752 O   0  0  0  0  0  0  0  0  0  0  0  0
    6.6302   10.0946   25.5159 F   0  0  0  0  0  0  0  0  0  0  0  0
    8.0854   14.6535   22.1677 S   0  0  0  0  0  0  0  0  0  0  0  0
   10.3096    9.7275   22.9299 H   0  0  0  0  0  0  0  0  0  0  0  0
    8.5156    8.7387   24.3113 H   0  0  0  0  0  0  0  0  0  0  0  0
    6.9040   12.6454   25.0566 H   0  0  0  0  0  0  0  0  0  0  0  0
    6.5504   16.4384   21.9726 H   0  0  0  0  0  0  0  0  0  0  0  0
    6.2668   15.4546   23.4447 H   0  0  0  0  0  0  0  0  0  0  0  0
    7.6286   16.6201   23.3938 H   0  0  0  0  0  0  0  0  0  0  0  0
   10.6670   13.2923   22.2479 H   0  0  0  0  0  0  0  0  0  0  0  0
   11.2987   11.6928   21.9625 H   0  0  0  0  0  0  0  0  0  0  0  0
    9.5675   14.4431   23.9773 H   0  0  0  0  0  0  0  0  0  0  0  0
  1  2  2  0  0  0  0
  1  4  1  0  0  0  0
  2  6  1  0  0  0  0
  3  5  1  0  0  0  0
  3  6  2  0  0  0  0
  4  5  2  0  0  0  0
  4  8  1  0  0  0  0
  5  9  1  0  0  0  0
  6 12  1  0  0  0  0
  7 13  1  0  0  0  0
  9 13  1  0  0  0  0
 10 13  2  0  0  0  0
 11 13  2  0  0  0  0
  1 14  1  0  0  0  0
  2 15  1  0  0  0  0
  3 16  1  0  0  0  0
  7 17  1  0  0  0  0
  7 18  1  0  0  0  0
  7 19  1  0  0  0  0
  8 20  1  0  0  0  0
  8 21  1  0  0  0  0
  9 22  1  0  0  0  0
M  END
> <Mol Weight>
204,22

> <Formula>
C7H9FN2O2S

> <ID>
EN300-125768

> <name>
Sulfonamides

> <LogP>
-0,34

> <ROCS_ShapeQuery>
x0446_0A_x1080_0A_x0929_0A_x0812_0A_x0719_0A_x1140_0A_x0528_0A_x0310_0A

> <ROCS_TanimotoCombo>
0.332 

> <ROCS_ShapeTanimoto>
0.189 

> <ROCS_ColorTanimoto>
0.143 

> <ROCS_RefTversky>
0.174 

> <ROCS_RefColorTversky>
0.152 

> <ROCS_RefTverskyCombo>
0.326 

> <ROCS_FitTversky>
1.807 

> <ROCS_FitColorTversky>
0.715 

> <ROCS_FitTverskyCombo>
2.522 

> <ROCS_ColorScore>
-5.409

> <ROCS_Overlap>
2053.853

> <ROCS_Rank>
376                 

$$$$
untitled-dbase-2370_14
  -OEChem-02082415043D

 21 21  0     0  0  0  0  0  0999 V2000
    9.3022   10.5079   24.6272 C   0  0  0  0  0  0  0  0  0  0  0  0
   10.1043   11.6490   24.6118 C   0  0  0  0  0  0  0  0  0  0  0  0
    8.1202   10.4762   23.8872 C   0  0  0  0  0  0  0  0  0  0  0  0
    9.7244   12.7584   23.8565 C   0  0  0  0  0  0  0  0  0  0  0  0
    7.7403   11.5857   23.1319 C   0  0  0  0  0  0  0  0  0  0  0  0
    8.5424   12.7268   23.1165 C   0  0  0  0  0  0  0  0  0  0  0  0
   11.5463   13.9519   22.8723 C   0  0  0  0  0  0  0  0  0  0  0  0
    7.1171   14.9713   23.3042 N   0  0  0  0  0  0  0  0  0  0  0  0
    9.2353   14.8848   21.8375 O   0  0  0  0  0  0  0  0  0  0  0  0
    7.1726   13.6411   21.0986 O   0  0  0  0  0  0  0  0  0  0  0  0
   10.5233   13.8621   23.8567 O   0  0  0  0  0  0  0  0  0  0  0  0
    6.6019   11.5423   22.4254 F   0  0  0  0  0  0  0  0  0  0  0  0
   11.1905   13.3069   21.7410 F   0  0  0  0  0  0  0  0  0  0  0  0
   12.6648   13.3630   23.3531 F   0  0  0  0  0  0  0  0  0  0  0  0
   11.8415   15.2393   22.5934 F   0  0  0  0  0  0  0  0  0  0  0  0
    8.0488   14.1078   22.1625 S   0  0  0  0  0  0  0  0  0  0  0  0
    9.5979    9.6441   25.2154 H   0  0  0  0  0  0  0  0  0  0  0  0
   11.0238   11.6667   25.1907 H   0  0  0  0  0  0  0  0  0  0  0  0
    7.4956    9.5880   23.8991 H   0  0  0  0  0  0  0  0  0  0  0  0
    7.5061   15.8439   23.6818 H   0  0  0  0  0  0  0  0  0  0  0  0
    6.0979   14.9920   23.1770 H   0  0  0  0  0  0  0  0  0  0  0  0
  1  2  2  0  0  0  0
  1  3  1  0  0  0  0
  2  4  1  0  0  0  0
  3  5  2  0  0  0  0
  4  6  2  0  0  0  0
  4 11  1  0  0  0  0
  5  6  1  0  0  0  0
  5 12  1  0  0  0  0
  6 16  1  0  0  0  0
  7 11  1  0  0  0  0
  7 13  1  0  0  0  0
  7 14  1  0  0  0  0
  7 15  1  0  0  0  0
  8 16  1  0  0  0  0
  9 16  2  0  0  0  0
 10 16  2  0  0  0  0
  1 17  1  0  0  0  0
  2 18  1  0  0  0  0
  3 19  1  0  0  0  0
  8 20  1  0  0  0  0
  8 21  1  0  0  0  0
M  END
> <Mol Weight>
259,17

> <Formula>
C7H5F4NO3S

> <ID>
EN300-212468

> <name>
Sulfonamides

> <LogP>
2,15

> <ROCS_ShapeQuery>
x0446_0A_x1080_0A_x0929_0A_x0812_0A_x0719_0A_x1140_0A_x0528_0A_x0310_0A

> <ROCS_TanimotoCombo>
0.332 

> <ROCS_ShapeTanimoto>
0.197 

> <ROCS_ColorTanimoto>
0.135 

> <ROCS_RefTversky>
0.183 

> <ROCS_RefColorTversky>
0.141 

> <ROCS_RefTverskyCombo>
0.324 

> <ROCS_FitTversky>
1.671 

> <ROCS_FitColorTversky>
0.758 

> <ROCS_FitTverskyCombo>
2.428 

> <ROCS_ColorScore>
-5.012

> <ROCS_Overlap>
2156.317

> <ROCS_Rank>
377                 

$$$$
untitled-dbase-1588_3
  -OEChem-02082415043D

 22 23  0     0  0  0  0  0  0999 V2000
    6.1977   10.8433   23.8295 C   0  0  0  0  0  0  0  0  0  0  0  0
    5.2733   11.8635   23.5960 C   0  0  0  0  0  0  0  0  0  0  0  0
    7.0759   13.4510   23.3350 C   0  0  0  0  0  0  0  0  0  0  0  0
    7.9976   12.4264   23.5691 C   0  0  0  0  0  0  0  0  0  0  0  0
    7.5704   11.1122   23.8187 C   0  0  0  0  0  0  0  0  0  0  0  0
    5.7118   13.1640   23.3494 C   0  0  0  0  0  0  0  0  0  0  0  0
    9.7321   10.3494   24.0381 C   0  0  0  0  0  0  0  0  0  0  0  0
    9.4508   12.7091   23.5576 C   0  0  0  0  0  0  0  0  0  0  0  0
    8.4744   10.0586   24.0573 N   0  0  0  0  0  0  0  0  0  0  0  0
   10.2474   11.6032   23.8035 N   0  0  0  0  0  0  0  0  0  0  0  0
    5.5833   15.7741   22.8246 N   0  0  0  0  0  0  0  0  0  0  0  0
    9.8829   13.8360   23.3455 O   0  0  0  0  0  0  0  0  0  0  0  0
    3.8570   14.1491   21.8124 O   0  0  0  0  0  0  0  0  0  0  0  0
    3.7830   14.6457   24.2813 O   0  0  0  0  0  0  0  0  0  0  0  0
    4.5492   14.4347   23.0612 S   0  0  0  0  0  0  0  0  0  0  0  0
    5.8385    9.8346   24.0191 H   0  0  0  0  0  0  0  0  0  0  0  0
    4.2115   11.6318   23.6093 H   0  0  0  0  0  0  0  0  0  0  0  0
    7.4107   14.4670   23.1430 H   0  0  0  0  0  0  0  0  0  0  0  0
   10.5047    9.5858   24.2142 H   0  0  0  0  0  0  0  0  0  0  0  0
   11.2560   11.7231   23.8110 H   0  0  0  0  0  0  0  0  0  0  0  0
    5.6720   16.1523   21.8735 H   0  0  0  0  0  0  0  0  0  0  0  0
    5.6219   16.4893   23.5610 H   0  0  0  0  0  0  0  0  0  0  0  0
  1  2  2  0  0  0  0
  1  5  1  0  0  0  0
  2  6  1  0  0  0  0
  3  4  1  0  0  0  0
  3  6  2  0  0  0  0
  4  5  2  0  0  0  0
  4  8  1  0  0  0  0
  5  9  1  0  0  0  0
  6 15  1  0  0  0  0
  7  9  2  0  0  0  0
  7 10  1  0  0  0  0
  8 10  1  0  0  0  0
  8 12  2  0  0  0  0
 11 15  1  0  0  0  0
 13 15  2  0  0  0  0
 14 15  2  0  0  0  0
  1 16  1  0  0  0  0
  2 17  1  0  0  0  0
  3 18  1  0  0  0  0
  7 19  1  0  0  0  0
 10 20  1  0  0  0  0
 11 21  1  0  0  0  0
 11 22  1  0  0  0  0
M  END
> <Mol Weight>
225,22

> <Formula>
C8H7N3O3S

> <ID>
EN300-79468

> <name>
Sulfonamides

> <LogP>
-0,67

> <ROCS_ShapeQuery>
x0446_0A_x1080_0A_x0929_0A_x0812_0A_x0719_0A_x1140_0A_x0528_0A_x0310_0A

> <ROCS_TanimotoCombo>
0.332 

> <ROCS_ShapeTanimoto>
0.172 

> <ROCS_ColorTanimoto>
0.160 

> <ROCS_RefTversky>
0.162 

> <ROCS_RefColorTversky>
0.175 

> <ROCS_RefTverskyCombo>
0.337 

> <ROCS_FitTversky>
1.528 

> <ROCS_FitColorTversky>
0.660 

> <ROCS_FitTverskyCombo>
2.187 

> <ROCS_ColorScore>
-6.247

> <ROCS_Overlap>
1911.073

> <ROCS_Rank>
378                 

$$$$
untitled-dbase-950_53
  -OEChem-02082415043D

 23 23  0     0  0  0  0  0  0999 V2000
   10.3713   11.2164   24.3721 C   0  0  0  0  0  0  0  0  0  0  0  0
    9.5775   10.0809   24.3916 C   0  0  0  0  0  0  0  0  0  0  0  0
    7.7416   11.2427   23.6447 C   0  0  0  0  0  0  0  0  0  0  0  0
    9.7888   12.4107   23.9627 C   0  0  0  0  0  0  0  0  0  0  0  0
    8.4493   12.4327   23.5905 C   0  0  0  0  0  0  0  0  0  0  0  0
   11.2509   13.2826   21.6607 C   0  0  0  0  0  0  0  0  0  0  0  0
   11.6923   13.5352   23.0865 C   0  0  0  0  0  0  0  0  0  0  0  0
    8.2730   10.0632   24.0372 N   0  0  0  0  0  0  0  0  0  0  0  0
    8.9470   15.0200   23.1869 N   0  0  0  0  0  0  0  0  0  0  0  0
    7.2965   13.7519   21.6659 O   0  0  0  0  0  0  0  0  0  0  0  0
    6.6429   14.2529   24.0470 O   0  0  0  0  0  0  0  0  0  0  0  0
   10.5447   13.5431   23.9337 O   0  0  0  0  0  0  0  0  0  0  0  0
    7.6627   13.8986   23.0685 S   0  0  0  0  0  0  0  0  0  0  0  0
   11.4135   11.1688   24.6682 H   0  0  0  0  0  0  0  0  0  0  0  0
    9.9841    9.1244   24.7031 H   0  0  0  0  0  0  0  0  0  0  0  0
    6.6932   11.1962   23.3666 H   0  0  0  0  0  0  0  0  0  0  0  0
   10.7464   12.3162   21.5738 H   0  0  0  0  0  0  0  0  0  0  0  0
   10.5684   14.0693   21.3227 H   0  0  0  0  0  0  0  0  0  0  0  0
   12.1108   13.2944   20.9828 H   0  0  0  0  0  0  0  0  0  0  0  0
   12.1960   14.5032   23.1665 H   0  0  0  0  0  0  0  0  0  0  0  0
   12.3734   12.7479   23.4229 H   0  0  0  0  0  0  0  0  0  0  0  0
    9.3594   15.3748   22.3154 H   0  0  0  0  0  0  0  0  0  0  0  0
    8.9127   15.7147   23.9428 H   0  0  0  0  0  0  0  0  0  0  0  0
  1  2  2  0  0  0  0
  1  4  1  0  0  0  0
  2  8  1  0  0  0  0
  3  5  1  0  0  0  0
  3  8  2  0  0  0  0
  4  5  2  0  0  0  0
  4 12  1  0  0  0  0
  5 13  1  0  0  0  0
  6  7  1  0  0  0  0
  7 12  1  0  0  0  0
  9 13  1  0  0  0  0
 10 13  2  0  0  0  0
 11 13  2  0  0  0  0
  1 14  1  0  0  0  0
  2 15  1  0  0  0  0
  3 16  1  0  0  0  0
  6 17  1  0  0  0  0
  6 18  1  0  0  0  0
  6 19  1  0  0  0  0
  7 20  1  0  0  0  0
  7 21  1  0  0  0  0
  9 22  1  0  0  0  0
  9 23  1  0  0  0  0
M  END
> <Mol Weight>
202,23

> <Formula>
C7H10N2O3S

> <ID>
EN300-211042

> <name>
Sulfonamides

> <LogP>
-0,44

> <ROCS_ShapeQuery>
x0446_0A_x1080_0A_x0929_0A_x0812_0A_x0719_0A_x1140_0A_x0528_0A_x0310_0A

> <ROCS_TanimotoCombo>
0.332 

> <ROCS_ShapeTanimoto>
0.184 

> <ROCS_ColorTanimoto>
0.147 

> <ROCS_RefTversky>
0.171 

> <ROCS_RefColorTversky>
0.156 

> <ROCS_RefTverskyCombo>
0.326 

> <ROCS_FitTversky>
1.770 

> <ROCS_FitColorTversky>
0.734 

> <ROCS_FitTverskyCombo>
2.503 

> <ROCS_ColorScore>
-5.549

> <ROCS_Overlap>
2013.273

> <ROCS_Rank>
379                 

$$$$
untitled-dbase-2582_468
  -OEChem-02082415043D

 27 27  0     0  0  0  0  0  0999 V2000
    8.2171   13.9392   21.4073 C   0  0  0  0  0  0  0  0  0  0  0  0
    9.1936   14.2065   20.7622 C   0  0  0  0  0  0  0  0  0  0  0  0
    9.5033   11.4376   23.3567 C   0  0  0  0  0  0  0  0  0  0  0  0
    7.7667   10.8505   24.8422 C   0  0  0  0  0  0  0  0  0  0  0  0
   10.8353   13.4995   22.7942 C   0  0  0  0  0  0  0  0  0  0  0  0
   10.3871   14.5366   19.9715 C   0  0  0  0  0  0  0  0  0  0  0  0
   11.9560   13.8729   21.8339 C   0  0  0  0  0  0  0  0  0  0  0  0
   11.5728   13.6590   20.3710 C   0  0  0  0  0  0  0  0  0  0  0  0
    9.1645   10.1717   23.2351 N   0  0  0  0  0  0  0  0  0  0  0  0
    8.1452    9.8276   24.1057 N   0  0  0  0  0  0  0  0  0  0  0  0
    5.9978    9.2162   25.9844 N   0  0  0  0  0  0  0  0  0  0  0  0
   10.4940   12.1579   22.6480 N   0  0  0  0  0  0  0  0  0  0  0  0
   10.3413   14.3141   23.5666 O   0  0  0  0  0  0  0  0  0  0  0  0
    7.1368   11.0773   27.3572 O   0  0  0  0  0  0  0  0  0  0  0  0
    5.4287   11.7012   25.6133 O   0  0  0  0  0  0  0  0  0  0  0  0
    8.6152   12.3093   24.5370 S   0  0  0  0  0  0  0  0  0  0  0  0
    6.5244   10.8425   26.0530 S   0  0  0  0  0  0  0  0  0  0  0  0
    7.3510   13.7021   21.9797 H   0  0  0  0  0  0  0  0  0  0  0  0
   10.1680   14.4023   18.9058 H   0  0  0  0  0  0  0  0  0  0  0  0
   10.6410   15.5930   20.1169 H   0  0  0  0  0  0  0  0  0  0  0  0
   12.8355   13.2662   22.0815 H   0  0  0  0  0  0  0  0  0  0  0  0
   12.2133   14.9258   22.0013 H   0  0  0  0  0  0  0  0  0  0  0  0
   11.3272   12.6019   20.2043 H   0  0  0  0  0  0  0  0  0  0  0  0
   12.4341   13.8801   19.7270 H   0  0  0  0  0  0  0  0  0  0  0  0
    5.4557    8.9174   25.1645 H   0  0  0  0  0  0  0  0  0  0  0  0
    6.6211    8.4896   26.3573 H   0  0  0  0  0  0  0  0  0  0  0  0
   11.0180   11.6340   21.9501 H   0  0  0  0  0  0  0  0  0  0  0  0
  1  2  3  0  0  0  0
  2  6  1  0  0  0  0
  3  9  2  0  0  0  0
  3 12  1  0  0  0  0
  3 16  1  0  0  0  0
  4 10  2  0  0  0  0
  4 16  1  0  0  0  0
  4 17  1  0  0  0  0
  5  7  1  0  0  0  0
  5 12  1  0  0  0  0
  5 13  2  0  0  0  0
  6  8  1  0  0  0  0
  7  8  1  0  0  0  0
  9 10  1  0  0  0  0
 11 17  1  0  0  0  0
 14 17  2  0  0  0  0
 15 17  2  0  0  0  0
  1 18  1  0  0  0  0
  6 19  1  0  0  0  0
  6 20  1  0  0  0  0
  7 21  1  0  0  0  0
  7 22  1  0  0  0  0
  8 23  1  0  0  0  0
  8 24  1  0  0  0  0
 11 25  1  0  0  0  0
 11 26  1  0  0  0  0
 12 27  1  0  0  0  0
M  END
> <Mol Weight>
274,31

> <Formula>
C8H10N4O3S2

> <ID>
EN300-1718461

> <name>
Sulfonamides

> <LogP>
0,19

> <ROCS_ShapeQuery>
x0446_0A_x1080_0A_x0929_0A_x0812_0A_x0719_0A_x1140_0A_x0528_0A_x0310_0A

> <ROCS_TanimotoCombo>
0.332 

> <ROCS_ShapeTanimoto>
0.185 

> <ROCS_ColorTanimoto>
0.147 

> <ROCS_RefTversky>
0.173 

> <ROCS_RefColorTversky>
0.170 

> <ROCS_RefTverskyCombo>
0.343 

> <ROCS_FitTversky>
1.601 

> <ROCS_FitColorTversky>
0.522 

> <ROCS_FitTverskyCombo>
2.123 

> <ROCS_ColorScore>
-6.078

> <ROCS_Overlap>
2041.295

> <ROCS_Rank>
380                 

$$$$
untitled-dbase-1635_22
  -OEChem-02082415043D

 26 27  0     1  0  0  0  0  0999 V2000
    8.0859   11.1160   25.6101 C   0  0  0  0  0  0  0  0  0  0  0  0
    9.3541   11.4543   24.7945 C   0  0  0  0  0  0  0  0  0  0  0  0
    7.5689   10.3520   24.3705 C   0  0  0  0  0  0  0  0  0  0  0  0
    7.9300   12.4610   22.7921 C   0  0  0  0  0  0  0  0  0  0  0  0
    9.8546   11.4645   21.6707 C   0  0  0  0  0  0  0  0  0  0  0  0
    8.9663   12.7088   21.7028 C   0  0  2  0  0  0  0  0  0  0  0  0
    8.4861   11.2633   23.5221 C   0  0  0  0  0  0  0  0  0  0  0  0
    9.2327   10.4613   22.5484 N   0  0  0  0  0  0  0  0  0  0  0  0
   11.2698   13.8630   21.0240 N   0  0  0  0  0  0  0  0  0  0  0  0
    9.1855   15.3098   21.4473 O   0  0  0  0  0  0  0  0  0  0  0  0
   10.3273   14.1777   23.3967 O   0  0  0  0  0  0  0  0  0  0  0  0
    9.9070   14.1741   22.0030 S   0  0  0  0  0  0  0  0  0  0  0  0
    8.2758   10.4758   26.4767 H   0  0  0  0  0  0  0  0  0  0  0  0
    7.4843   11.9712   25.9222 H   0  0  0  0  0  0  0  0  0  0  0  0
    9.6898   12.4817   24.9397 H   0  0  0  0  0  0  0  0  0  0  0  0
   10.1964   10.7802   24.9248 H   0  0  0  0  0  0  0  0  0  0  0  0
    7.7525    9.2775   24.3624 H   0  0  0  0  0  0  0  0  0  0  0  0
    6.5020   10.5177   24.1938 H   0  0  0  0  0  0  0  0  0  0  0  0
    7.8578   13.3296   23.4647 H   0  0  0  0  0  0  0  0  0  0  0  0
    6.9277   12.2917   22.3753 H   0  0  0  0  0  0  0  0  0  0  0  0
    9.9749   11.0811   20.6444 H   0  0  0  0  0  0  0  0  0  0  0  0
   10.8685   11.6877   22.0442 H   0  0  0  0  0  0  0  0  0  0  0  0
    8.4762   12.8560   20.7259 H   0  0  0  0  0  0  0  0  0  0  0  0
    8.6690    9.8418   21.9793 H   0  0  0  0  0  0  0  0  0  0  0  0
   11.9212   13.1309   21.3326 H   0  0  0  0  0  0  0  0  0  0  0  0
   11.1435   13.9022   20.0051 H   0  0  0  0  0  0  0  0  0  0  0  0
  1  2  1  0  0  0  0
  1  3  1  0  0  0  0
  2  7  1  0  0  0  0
  3  7  1  0  0  0  0
  4  6  1  0  0  0  0
  4  7  1  0  0  0  0
  5  6  1  0  0  0  0
  5  8  1  0  0  0  0
  6 12  1  0  0  0  0
  7  8  1  0  0  0  0
  9 12  1  0  0  0  0
 10 12  2  0  0  0  0
 11 12  2  0  0  0  0
  1 13  1  0  0  0  0
  1 14  1  0  0  0  0
  2 15  1  0  0  0  0
  2 16  1  0  0  0  0
  3 17  1  0  0  0  0
  3 18  1  0  0  0  0
  4 19  1  0  0  0  0
  4 20  1  0  0  0  0
  5 21  1  0  0  0  0
  5 22  1  0  0  0  0
  6 23  1  0  0  0  0
  8 24  1  0  0  0  0
  9 25  1  0  0  0  0
  9 26  1  0  0  0  0
M  END
> <Mol Weight>
226,72

> <Formula>
C7H15ClN2O2S

> <ID>
EN300-27122326

> <name>
Sulfonamides

> <LogP>
-1,09

> <ROCS_ShapeQuery>
x0446_0A_x1080_0A_x0929_0A_x0812_0A_x0719_0A_x1140_0A_x0528_0A_x0310_0A

> <ROCS_TanimotoCombo>
0.332 

> <ROCS_ShapeTanimoto>
0.160 

> <ROCS_ColorTanimoto>
0.171 

> <ROCS_RefTversky>
0.151 

> <ROCS_RefColorTversky>
0.181 

> <ROCS_RefTverskyCombo>
0.332 

> <ROCS_FitTversky>
1.627 

> <ROCS_FitColorTversky>
0.759 

> <ROCS_FitTverskyCombo>
2.387 

> <ROCS_ColorScore>
-6.471

> <ROCS_Overlap>
1779.580

> <ROCS_Rank>
381                 

$$$$
untitled-dbase-2321_28
  -OEChem-02082415043D

 26 27  0     0  0  0  0  0  0999 V2000
    9.7685   14.7784   21.6902 C   0  0  0  0  0  0  0  0  0  0  0  0
    8.7076   14.0373   22.1986 C   0  0  0  0  0  0  0  0  0  0  0  0
    5.9376   11.9679   24.7199 C   0  0  0  0  0  0  0  0  0  0  0  0
    6.6485   10.7698   24.4626 C   0  0  0  0  0  0  0  0  0  0  0  0
   11.1615   13.8436   23.3762 C   0  0  0  0  0  0  0  0  0  0  0  0
   11.0221   14.6853   22.2844 C   0  0  0  0  0  0  0  0  0  0  0  0
    8.9506   13.2244   23.2941 C   0  0  0  0  0  0  0  0  0  0  0  0
    6.7318   13.0144   24.3060 C   0  0  0  0  0  0  0  0  0  0  0  0
    7.8556   11.1207   23.8993 C   0  0  0  0  0  0  0  0  0  0  0  0
   10.1544   13.1081   23.8981 N   0  0  0  0  0  0  0  0  0  0  0  0
    7.8953   12.4876   23.8092 N   0  0  0  0  0  0  0  0  0  0  0  0
   11.6482   16.4306   20.3696 N   0  0  0  0  0  0  0  0  0  0  0  0
   12.7716   16.5699   22.6856 O   0  0  0  0  0  0  0  0  0  0  0  0
   13.3624   14.6691   21.1412 O   0  0  0  0  0  0  0  0  0  0  0  0
    6.5144   14.3237   24.3345 O   0  0  0  0  0  0  0  0  0  0  0  0
    8.8643   10.3639   23.4843 O   0  0  0  0  0  0  0  0  0  0  0  0
   12.3731   15.5977   21.6749 S   0  0  0  0  0  0  0  0  0  0  0  0
    9.6082   15.4246   20.8316 H   0  0  0  0  0  0  0  0  0  0  0  0
    7.7258   14.1069   21.7411 H   0  0  0  0  0  0  0  0  0  0  0  0
    4.9538   12.0569   25.1594 H   0  0  0  0  0  0  0  0  0  0  0  0
    6.3158    9.7615   24.6664 H   0  0  0  0  0  0  0  0  0  0  0  0
   12.1157   13.7290   23.8811 H   0  0  0  0  0  0  0  0  0  0  0  0
   11.4914   17.4411   20.4690 H   0  0  0  0  0  0  0  0  0  0  0  0
   11.8943   16.1406   19.4153 H   0  0  0  0  0  0  0  0  0  0  0  0
    5.6373   14.5448   24.7184 H   0  0  0  0  0  0  0  0  0  0  0  0
    9.6041   10.8997   23.1221 H   0  0  0  0  0  0  0  0  0  0  0  0
  1  2  2  0  0  0  0
  1  6  1  0  0  0  0
  2  7  1  0  0  0  0
  3  4  1  0  0  0  0
  3  8  2  0  0  0  0
  4  9  2  0  0  0  0
  5  6  2  0  0  0  0
  5 10  1  0  0  0  0
  6 17  1  0  0  0  0
  7 10  2  0  0  0  0
  7 11  1  0  0  0  0
  8 11  1  0  0  0  0
  8 15  1  0  0  0  0
  9 11  1  0  0  0  0
  9 16  1  0  0  0  0
 12 17  1  0  0  0  0
 13 17  2  0  0  0  0
 14 17  2  0  0  0  0
  1 18  1  0  0  0  0
  2 19  1  0  0  0  0
  3 20  1  0  0  0  0
  4 21  1  0  0  0  0
  5 22  1  0  0  0  0
 12 23  1  0  0  0  0
 12 24  1  0  0  0  0
 15 25  1  0  0  0  0
 16 26  1  0  0  0  0
M  END
> <Mol Weight>
255,25

> <Formula>
C9H9N3O4S

> <ID>
EN300-1692174

> <name>
Sulfonamides

> <LogP>
0,49

> <ROCS_ShapeQuery>
x0446_0A_x1080_0A_x0929_0A_x0812_0A_x0719_0A_x1140_0A_x0528_0A_x0310_0A

> <ROCS_TanimotoCombo>
0.332 

> <ROCS_ShapeTanimoto>
0.210 

> <ROCS_ColorTanimoto>
0.122 

> <ROCS_RefTversky>
0.193 

> <ROCS_RefColorTversky>
0.143 

> <ROCS_RefTverskyCombo>
0.336 

> <ROCS_FitTversky>
1.693 

> <ROCS_FitColorTversky>
0.451 

> <ROCS_FitTverskyCombo>
2.144 

> <ROCS_ColorScore>
-5.125

> <ROCS_Overlap>
2281.719

> <ROCS_Rank>
382                 

$$$$
untitled-dbase-1417_260
  -OEChem-02082415043D

 26 26  0     0  0  0  0  0  0999 V2000
   10.2279   11.2237   24.1856 C   0  0  0  0  0  0  0  0  0  0  0  0
    8.7504   11.7810   22.3570 C   0  0  0  0  0  0  0  0  0  0  0  0
    9.1707   11.3685   25.0840 C   0  0  0  0  0  0  0  0  0  0  0  0
    7.6932   11.9258   23.2554 C   0  0  0  0  0  0  0  0  0  0  0  0
   10.0178   11.4300   22.8222 C   0  0  0  0  0  0  0  0  0  0  0  0
    7.9034   11.7195   24.6188 C   0  0  0  0  0  0  0  0  0  0  0  0
   11.6070   15.8677   22.5190 C   0  0  0  0  0  0  0  0  0  0  0  0
   11.1608   11.2727   21.8497 C   0  0  0  0  0  0  0  0  0  0  0  0
   11.9315   12.5708   21.6216 C   0  0  0  0  0  0  0  0  0  0  0  0
   11.0756   13.6532   21.1037 N   0  0  0  0  0  0  0  0  0  0  0  0
   10.0251   13.9985   23.4429 O   0  0  0  0  0  0  0  0  0  0  0  0
    9.2477   15.4104   21.5041 O   0  0  0  0  0  0  0  0  0  0  0  0
    6.8874   11.8560   25.4811 F   0  0  0  0  0  0  0  0  0  0  0  0
   10.3011   14.7022   22.2057 S   0  0  0  0  0  0  0  0  0  0  0  0
   11.2119   10.9507   24.5576 H   0  0  0  0  0  0  0  0  0  0  0  0
    8.5773   11.9434   21.2964 H   0  0  0  0  0  0  0  0  0  0  0  0
    9.3339   11.2073   26.1453 H   0  0  0  0  0  0  0  0  0  0  0  0
    6.7065   12.1995   22.8937 H   0  0  0  0  0  0  0  0  0  0  0  0
   11.2404   16.6140   23.2255 H   0  0  0  0  0  0  0  0  0  0  0  0
   12.4568   15.3279   22.9396 H   0  0  0  0  0  0  0  0  0  0  0  0
   11.8824   16.3384   21.5740 H   0  0  0  0  0  0  0  0  0  0  0  0
   10.7574   10.9177   20.8929 H   0  0  0  0  0  0  0  0  0  0  0  0
   11.8412   10.4863   22.2008 H   0  0  0  0  0  0  0  0  0  0  0  0
   12.3519   12.9261   22.5677 H   0  0  0  0  0  0  0  0  0  0  0  0
   12.7546   12.4327   20.9128 H   0  0  0  0  0  0  0  0  0  0  0  0
   11.4134   14.0684   20.2257 H   0  0  0  0  0  0  0  0  0  0  0  0
  1  3  2  0  0  0  0
  1  5  1  0  0  0  0
  2  4  1  0  0  0  0
  2  5  2  0  0  0  0
  3  6  1  0  0  0  0
  4  6  2  0  0  0  0
  5  8  1  0  0  0  0
  6 13  1  0  0  0  0
  7 14  1  0  0  0  0
  8  9  1  0  0  0  0
  9 10  1  0  0  0  0
 10 14  1  0  0  0  0
 11 14  2  0  0  0  0
 12 14  2  0  0  0  0
  1 15  1  0  0  0  0
  2 16  1  0  0  0  0
  3 17  1  0  0  0  0
  4 18  1  0  0  0  0
  7 19  1  0  0  0  0
  7 20  1  0  0  0  0
  7 21  1  0  0  0  0
  8 22  1  0  0  0  0
  8 23  1  0  0  0  0
  9 24  1  0  0  0  0
  9 25  1  0  0  0  0
 10 26  1  0  0  0  0
M  END
> <Mol Weight>
217,26

> <Formula>
C9H12FNO2S

> <ID>
EN300-6721845

> <name>
Sulfonamides

> <LogP>
0,84

> <ROCS_ShapeQuery>
x0446_0A_x1080_0A_x0929_0A_x0812_0A_x0719_0A_x1140_0A_x0528_0A_x0310_0A

> <ROCS_TanimotoCombo>
0.332 

> <ROCS_ShapeTanimoto>
0.178 

> <ROCS_ColorTanimoto>
0.154 

> <ROCS_RefTversky>
0.166 

> <ROCS_RefColorTversky>
0.155 

> <ROCS_RefTverskyCombo>
0.321 

> <ROCS_FitTversky>
1.681 

> <ROCS_FitColorTversky>
0.970 

> <ROCS_FitTverskyCombo>
2.651 

> <ROCS_ColorScore>
-5.492

> <ROCS_Overlap>
1956.932

> <ROCS_Rank>
383                 

$$$$
untitled-dbase-1552_0
  -OEChem-02082415043D

 24 25  0     0  0  0  0  0  0999 V2000
    5.4100   13.3626   25.7294 C   0  0  0  0  0  0  0  0  0  0  0  0
    6.7475   13.7307   25.8746 C   0  0  0  0  0  0  0  0  0  0  0  0
    5.0691   12.2760   24.9238 C   0  0  0  0  0  0  0  0  0  0  0  0
    7.7442   13.0124   25.2141 C   0  0  0  0  0  0  0  0  0  0  0  0
    6.0658   11.5577   24.2633 C   0  0  0  0  0  0  0  0  0  0  0  0
   10.0598   10.6391   22.4662 C   0  0  0  0  0  0  0  0  0  0  0  0
    9.5636    9.5573   23.2181 C   0  0  0  0  0  0  0  0  0  0  0  0
    7.4034   11.9259   24.4085 C   0  0  0  0  0  0  0  0  0  0  0  0
    9.2757   11.7038   22.8377 C   0  0  0  0  0  0  0  0  0  0  0  0
    8.5434    9.9032   24.0077 N   0  0  0  0  0  0  0  0  0  0  0  0
    8.3921   11.2142   23.7541 N   0  0  0  0  0  0  0  0  0  0  0  0
   10.5853   13.3563   21.2071 N   0  0  0  0  0  0  0  0  0  0  0  0
    8.0571   13.6516   21.6153 O   0  0  0  0  0  0  0  0  0  0  0  0
    9.6769   14.1997   23.4655 O   0  0  0  0  0  0  0  0  0  0  0  0
    9.2963   13.3956   22.3216 S   0  0  0  0  0  0  0  0  0  0  0  0
    4.6337   13.9204   26.2448 H   0  0  0  0  0  0  0  0  0  0  0  0
    7.0132   14.5759   26.5028 H   0  0  0  0  0  0  0  0  0  0  0  0
    4.0274   11.9891   24.8124 H   0  0  0  0  0  0  0  0  0  0  0  0
    8.7830   13.3095   25.3365 H   0  0  0  0  0  0  0  0  0  0  0  0
    5.7863   10.7125   23.6391 H   0  0  0  0  0  0  0  0  0  0  0  0
   10.8725   10.6439   21.7547 H   0  0  0  0  0  0  0  0  0  0  0  0
    9.9032    8.5316   23.2235 H   0  0  0  0  0  0  0  0  0  0  0  0
   11.5362   13.2458   21.5797 H   0  0  0  0  0  0  0  0  0  0  0  0
   10.4306   12.8730   20.3139 H   0  0  0  0  0  0  0  0  0  0  0  0
  1  2  1  0  0  0  0
  1  3  2  0  0  0  0
  2  4  2  0  0  0  0
  3  5  1  0  0  0  0
  4  8  1  0  0  0  0
  5  8  2  0  0  0  0
  6  7  1  0  0  0  0
  6  9  2  0  0  0  0
  7 10  2  0  0  0  0
  8 11  1  0  0  0  0
  9 11  1  0  0  0  0
  9 15  1  0  0  0  0
 10 11  1  0  0  0  0
 12 15  1  0  0  0  0
 13 15  2  0  0  0  0
 14 15  2  0  0  0  0
  1 16  1  0  0  0  0
  2 17  1  0  0  0  0
  3 18  1  0  0  0  0
  4 19  1  0  0  0  0
  5 20  1  0  0  0  0
  6 21  1  0  0  0  0
  7 22  1  0  0  0  0
 12 23  1  0  0  0  0
 12 24  1  0  0  0  0
M  END
> <Mol Weight>
223,25

> <Formula>
C9H9N3O2S

> <ID>
EN300-293018

> <name>
Sulfonamides

> <LogP>
0,75

> <ROCS_ShapeQuery>
x0446_0A_x1080_0A_x0929_0A_x0812_0A_x0719_0A_x1140_0A_x0528_0A_x0310_0A

> <ROCS_TanimotoCombo>
0.332 

> <ROCS_ShapeTanimoto>
0.204 

> <ROCS_ColorTanimoto>
0.128 

> <ROCS_RefTversky>
0.187 

> <ROCS_RefColorTversky>
0.137 

> <ROCS_RefTverskyCombo>
0.325 

> <ROCS_FitTversky>
1.765 

> <ROCS_FitColorTversky>
0.647 

> <ROCS_FitTverskyCombo>
2.412 

> <ROCS_ColorScore>
-4.894

> <ROCS_Overlap>
2210.484

> <ROCS_Rank>
384                 

$$$$
untitled-dbase-1098_25
  -OEChem-02082415043D

 30 30  0     1  0  0  0  0  0999 V2000
    8.0756   10.9840   24.6753 C   0  0  0  0  0  0  0  0  0  0  0  0
    7.8927   12.2304   23.8192 C   0  0  0  0  0  0  0  0  0  0  0  0
    9.5265   10.5170   24.6233 C   0  0  0  0  0  0  0  0  0  0  0  0
    8.4214   11.9980   22.4043 C   0  0  1  0  0  0  0  0  0  0  0  0
   10.0470   10.3769   23.1812 C   0  0  0  0  0  0  0  0  0  0  0  0
    9.4551    9.1517   22.4688 C   0  0  0  0  0  0  0  0  0  0  0  0
   11.5745   10.2244   23.2099 C   0  0  0  0  0  0  0  0  0  0  0  0
    8.3587   13.2816   21.5853 C   0  0  0  0  0  0  0  0  0  0  0  0
   10.9365   13.6228   21.0474 N   0  0  0  0  0  0  0  0  0  0  0  0
    9.4176   15.6647   21.4223 O   0  0  0  0  0  0  0  0  0  0  0  0
   10.0221   14.1906   23.3837 O   0  0  0  0  0  0  0  0  0  0  0  0
    9.7871   11.5756   22.4350 O   0  0  0  0  0  0  0  0  0  0  0  0
    9.7018   14.3491   21.9738 S   0  0  0  0  0  0  0  0  0  0  0  0
    7.7905   11.1982   25.7116 H   0  0  0  0  0  0  0  0  0  0  0  0
    7.4095   10.1887   24.3220 H   0  0  0  0  0  0  0  0  0  0  0  0
    6.8351   12.5158   23.7936 H   0  0  0  0  0  0  0  0  0  0  0  0
    8.4437   13.0556   24.2884 H   0  0  0  0  0  0  0  0  0  0  0  0
   10.1308   11.2656   25.1534 H   0  0  0  0  0  0  0  0  0  0  0  0
    9.6372    9.5742   25.1717 H   0  0  0  0  0  0  0  0  0  0  0  0
    7.8176   11.2414   21.8914 H   0  0  0  0  0  0  0  0  0  0  0  0
    9.8506    9.0958   21.4591 H   0  0  0  0  0  0  0  0  0  0  0  0
    8.3739    9.2443   22.4308 H   0  0  0  0  0  0  0  0  0  0  0  0
    9.7240    8.2524   23.0148 H   0  0  0  0  0  0  0  0  0  0  0  0
   11.9466   10.1252   22.1944 H   0  0  0  0  0  0  0  0  0  0  0  0
   11.8383    9.3393   23.7812 H   0  0  0  0  0  0  0  0  0  0  0  0
   12.0162   11.1013   23.6743 H   0  0  0  0  0  0  0  0  0  0  0  0
    7.4364   13.8218   21.7958 H   0  0  0  0  0  0  0  0  0  0  0  0
    8.4135   13.0561   20.5210 H   0  0  0  0  0  0  0  0  0  0  0  0
   11.2964   12.7132   21.3614 H   0  0  0  0  0  0  0  0  0  0  0  0
   10.8848   13.7173   20.0257 H   0  0  0  0  0  0  0  0  0  0  0  0
  1  2  1  0  0  0  0
  1  3  1  0  0  0  0
  2  4  1  0  0  0  0
  3  5  1  0  0  0  0
  4  8  1  0  0  0  0
  4 12  1  0  0  0  0
  5  6  1  0  0  0  0
  5  7  1  0  0  0  0
  5 12  1  0  0  0  0
  8 13  1  0  0  0  0
  9 13  1  0  0  0  0
 10 13  2  0  0  0  0
 11 13  2  0  0  0  0
  1 14  1  0  0  0  0
  1 15  1  0  0  0  0
  2 16  1  0  0  0  0
  2 17  1  0  0  0  0
  3 18  1  0  0  0  0
  3 19  1  0  0  0  0
  4 20  1  0  0  0  0
  6 21  1  0  0  0  0
  6 22  1  0  0  0  0
  6 23  1  0  0  0  0
  7 24  1  0  0  0  0
  7 25  1  0  0  0  0
  7 26  1  0  0  0  0
  8 27  1  0  0  0  0
  8 28  1  0  0  0  0
  9 29  1  0  0  0  0
  9 30  1  0  0  0  0
M  END
> <Mol Weight>
207,29

> <Formula>
C8H17NO3S

> <ID>
EN300-366697

> <name>
Sulfonamides

> <LogP>
0,18

> <ROCS_ShapeQuery>
x0446_0A_x1080_0A_x0929_0A_x0812_0A_x0719_0A_x1140_0A_x0528_0A_x0310_0A

> <ROCS_TanimotoCombo>
0.332 

> <ROCS_ShapeTanimoto>
0.176 

> <ROCS_ColorTanimoto>
0.156 

> <ROCS_RefTversky>
0.164 

> <ROCS_RefColorTversky>
0.164 

> <ROCS_RefTverskyCombo>
0.327 

> <ROCS_FitTversky>
1.729 

> <ROCS_FitColorTversky>
0.771 

> <ROCS_FitTverskyCombo>
2.500 

> <ROCS_ColorScore>
-5.831

> <ROCS_Overlap>
1927.856

> <ROCS_Rank>
385                 

$$$$
untitled-dbase-2716_0
  -OEChem-02082415043D

 22 23  0     0  0  0  0  0  0999 V2000
    8.6111   10.1507   22.8935 C   0  0  0  0  0  0  0  0  0  0  0  0
    7.4528   13.8336   24.5215 C   0  0  0  0  0  0  0  0  0  0  0  0
    7.5253   10.2377   23.7683 C   0  0  0  0  0  0  0  0  0  0  0  0
    9.3224   11.2944   22.5527 C   0  0  0  0  0  0  0  0  0  0  0  0
    6.3701   13.8866   25.3874 C   0  0  0  0  0  0  0  0  0  0  0  0
    7.8536   12.6100   23.9681 C   0  0  0  0  0  0  0  0  0  0  0  0
    7.1268   11.4529   24.3185 C   0  0  0  0  0  0  0  0  0  0  0  0
    8.9457   12.5228   23.0881 C   0  0  0  0  0  0  0  0  0  0  0  0
    5.7212   12.7019   25.6710 C   0  0  0  0  0  0  0  0  0  0  0  0
    6.0757   11.5012   25.1586 N   0  0  0  0  0  0  0  0  0  0  0  0
   11.0313   13.1846   21.5659 N   0  0  0  0  0  0  0  0  0  0  0  0
    9.0388   14.7989   21.8295 O   0  0  0  0  0  0  0  0  0  0  0  0
   10.5873   14.4227   23.7810 O   0  0  0  0  0  0  0  0  0  0  0  0
    9.8956   13.9196   22.6064 S   0  0  0  0  0  0  0  0  0  0  0  0
    4.2352   12.7379   26.8535 Br  0  0  0  0  0  0  0  0  0  0  0  0
    8.8970    9.1871   22.4818 H   0  0  0  0  0  0  0  0  0  0  0  0
    7.9644   14.7649   24.2953 H   0  0  0  0  0  0  0  0  0  0  0  0
    6.9844    9.3271   24.0194 H   0  0  0  0  0  0  0  0  0  0  0  0
   10.1656   11.2147   21.8721 H   0  0  0  0  0  0  0  0  0  0  0  0
    6.0600   14.8341   25.8147 H   0  0  0  0  0  0  0  0  0  0  0  0
   10.9458   13.3644   20.5580 H   0  0  0  0  0  0  0  0  0  0  0  0
   12.0020   13.1065   21.8928 H   0  0  0  0  0  0  0  0  0  0  0  0
  1  3  1  0  0  0  0
  1  4  2  0  0  0  0
  2  5  2  0  0  0  0
  2  6  1  0  0  0  0
  3  7  2  0  0  0  0
  4  8  1  0  0  0  0
  5  9  1  0  0  0  0
  6  7  1  0  0  0  0
  6  8  2  0  0  0  0
  7 10  1  0  0  0  0
  8 14  1  0  0  0  0
  9 10  2  0  0  0  0
  9 15  1  0  0  0  0
 11 14  1  0  0  0  0
 12 14  2  0  0  0  0
 13 14  2  0  0  0  0
  1 16  1  0  0  0  0
  2 17  1  0  0  0  0
  3 18  1  0  0  0  0
  4 19  1  0  0  0  0
  5 20  1  0  0  0  0
 11 21  1  0  0  0  0
 11 22  1  0  0  0  0
M  END
> <Mol Weight>
287,13

> <Formula>
C9H7BrN2O2S

> <ID>
EN300-6746303

> <name>
Sulfonamides

> <LogP>
1,71

> <ROCS_ShapeQuery>
x0446_0A_x1080_0A_x0929_0A_x0812_0A_x0719_0A_x1140_0A_x0528_0A_x0310_0A

> <ROCS_TanimotoCombo>
0.332 

> <ROCS_ShapeTanimoto>
0.192 

> <ROCS_ColorTanimoto>
0.140 

> <ROCS_RefTversky>
0.178 

> <ROCS_RefColorTversky>
0.152 

> <ROCS_RefTverskyCombo>
0.330 

> <ROCS_FitTversky>
1.694 

> <ROCS_FitColorTversky>
0.637 

> <ROCS_FitTverskyCombo>
2.331 

> <ROCS_ColorScore>
-5.430

> <ROCS_Overlap>
2095.586

> <ROCS_Rank>
386                 

$$$$
untitled-dbase-2615_30
  -OEChem-02082415043D

 34 35  0     0  0  0  0  0  0999 V2000
    9.4431   12.3779   23.7657 C   0  0  0  0  0  0  0  0  0  0  0  0
    9.4257   10.0501   23.1190 C   0  0  0  0  0  0  0  0  0  0  0  0
    8.1158   12.2725   24.1812 C   0  0  0  0  0  0  0  0  0  0  0  0
    8.0983    9.9447   23.5345 C   0  0  0  0  0  0  0  0  0  0  0  0
   12.7652   14.3358   22.2246 C   0  0  0  0  0  0  0  0  0  0  0  0
   10.6647   15.3636   21.6622 C   0  0  0  0  0  0  0  0  0  0  0  0
   13.1355   15.5371   22.8071 C   0  0  0  0  0  0  0  0  0  0  0  0
   11.1290   16.5189   22.2701 C   0  0  0  0  0  0  0  0  0  0  0  0
   10.0981   11.2667   23.2346 C   0  0  0  0  0  0  0  0  0  0  0  0
   11.5046   14.2556   21.6434 C   0  0  0  0  0  0  0  0  0  0  0  0
    7.4434   11.0558   24.0656 C   0  0  0  0  0  0  0  0  0  0  0  0
   11.5170   11.3794   22.7896 C   0  0  0  0  0  0  0  0  0  0  0  0
   11.6678   11.7871   21.3188 C   0  0  0  0  0  0  0  0  0  0  0  0
   12.3471   16.6347   22.8450 N   0  0  0  0  0  0  0  0  0  0  0  0
    4.9555   11.3301   23.1490 N   0  0  0  0  0  0  0  0  0  0  0  0
   11.0860   13.0739   21.0459 N   0  0  0  0  0  0  0  0  0  0  0  0
    5.5114    9.5284   24.9069 O   0  0  0  0  0  0  0  0  0  0  0  0
    5.5263   11.9556   25.5820 O   0  0  0  0  0  0  0  0  0  0  0  0
    5.7827   10.9231   24.5876 S   0  0  0  0  0  0  0  0  0  0  0  0
    9.9588   13.3299   23.8593 H   0  0  0  0  0  0  0  0  0  0  0  0
    9.9278    9.1792   22.7060 H   0  0  0  0  0  0  0  0  0  0  0  0
    7.6146   13.1445   24.5931 H   0  0  0  0  0  0  0  0  0  0  0  0
    7.5838    8.9921   23.4396 H   0  0  0  0  0  0  0  0  0  0  0  0
   13.4443   13.4898   22.2270 H   0  0  0  0  0  0  0  0  0  0  0  0
    9.6753   15.3350   21.2181 H   0  0  0  0  0  0  0  0  0  0  0  0
   14.1083   15.6511   23.2742 H   0  0  0  0  0  0  0  0  0  0  0  0
   10.5125   17.4108   22.3120 H   0  0  0  0  0  0  0  0  0  0  0  0
   12.0247   10.4114   22.9381 H   0  0  0  0  0  0  0  0  0  0  0  0
   12.0679   12.0945   23.4245 H   0  0  0  0  0  0  0  0  0  0  0  0
   12.7257   11.8547   21.0458 H   0  0  0  0  0  0  0  0  0  0  0  0
   11.1895   11.0605   20.6537 H   0  0  0  0  0  0  0  0  0  0  0  0
    4.4652   10.5802   22.6463 H   0  0  0  0  0  0  0  0  0  0  0  0
    4.4777   12.2386   23.1082 H   0  0  0  0  0  0  0  0  0  0  0  0
   10.3237   13.1267   20.3756 H   0  0  0  0  0  0  0  0  0  0  0  0
  1  3  2  0  0  0  0
  1  9  1  0  0  0  0
  2  4  1  0  0  0  0
  2  9  2  0  0  0  0
  3 11  1  0  0  0  0
  4 11  2  0  0  0  0
  5  7  2  0  0  0  0
  5 10  1  0  0  0  0
  6  8  1  0  0  0  0
  6 10  2  0  0  0  0
  7 14  1  0  0  0  0
  8 14  2  0  0  0  0
  9 12  1  0  0  0  0
 10 16  1  0  0  0  0
 11 19  1  0  0  0  0
 12 13  1  0  0  0  0
 13 16  1  0  0  0  0
 15 19  1  0  0  0  0
 17 19  2  0  0  0  0
 18 19  2  0  0  0  0
  1 20  1  0  0  0  0
  2 21  1  0  0  0  0
  3 22  1  0  0  0  0
  4 23  1  0  0  0  0
  5 24  1  0  0  0  0
  6 25  1  0  0  0  0
  7 26  1  0  0  0  0
  8 27  1  0  0  0  0
 12 28  1  0  0  0  0
 12 29  1  0  0  0  0
 13 30  1  0  0  0  0
 13 31  1  0  0  0  0
 15 32  1  0  0  0  0
 15 33  1  0  0  0  0
 16 34  1  0  0  0  0
M  END
> <Mol Weight>
277,34

> <Formula>
C13H15N3O2S

> <ID>
EN300-1168619

> <name>
Sulfonamides

> <LogP>
0,70

> <ROCS_ShapeQuery>
x0446_0A_x1080_0A_x0929_0A_x0812_0A_x0719_0A_x1140_0A_x0528_0A_x0310_0A

> <ROCS_TanimotoCombo>
0.332 

> <ROCS_ShapeTanimoto>
0.201 

> <ROCS_ColorTanimoto>
0.130 

> <ROCS_RefTversky>
0.187 

> <ROCS_RefColorTversky>
0.143 

> <ROCS_RefTverskyCombo>
0.330 

> <ROCS_FitTversky>
1.584 

> <ROCS_FitColorTversky>
0.599 

> <ROCS_FitTverskyCombo>
2.183 

> <ROCS_ColorScore>
-5.099

> <ROCS_Overlap>
2211.195

> <ROCS_Rank>
387                 

$$$$
untitled-dbase-1812_23
  -OEChem-02082415043D

 23 23  0     0  0  0  0  0  0999 V2000
    9.0958   10.3329   22.9191 C   0  0  0  0  0  0  0  0  0  0  0  0
    9.6887   11.5003   22.4381 C   0  0  0  0  0  0  0  0  0  0  0  0
    8.3917   12.8045   24.0046 C   0  0  0  0  0  0  0  0  0  0  0  0
    7.7987   11.6371   24.4856 C   0  0  0  0  0  0  0  0  0  0  0  0
    8.1507   10.4013   23.9428 C   0  0  0  0  0  0  0  0  0  0  0  0
    9.3367   12.7360   22.9809 C   0  0  0  0  0  0  0  0  0  0  0  0
    6.8144   11.7129   25.5537 C   0  0  0  0  0  0  0  0  0  0  0  0
    6.5330   11.6831   27.9226 C   0  0  0  0  0  0  0  0  0  0  0  0
   11.1200   13.5623   21.1804 N   0  0  0  0  0  0  0  0  0  0  0  0
    5.5961   11.8421   25.3752 O   0  0  0  0  0  0  0  0  0  0  0  0
    9.0543   15.0022   21.7327 O   0  0  0  0  0  0  0  0  0  0  0  0
   10.8912   14.7745   23.4420 O   0  0  0  0  0  0  0  0  0  0  0  0
    7.4016   11.6222   26.7862 O   0  0  0  0  0  0  0  0  0  0  0  0
    7.5858    9.2732   24.3960 F   0  0  0  0  0  0  0  0  0  0  0  0
   10.0806   14.1964   22.3792 S   0  0  0  0  0  0  0  0  0  0  0  0
    9.3679    9.3708   22.4952 H   0  0  0  0  0  0  0  0  0  0  0  0
   10.4222   11.4354   21.6390 H   0  0  0  0  0  0  0  0  0  0  0  0
    8.1181   13.7688   24.4270 H   0  0  0  0  0  0  0  0  0  0  0  0
    7.1235   11.5999   28.8383 H   0  0  0  0  0  0  0  0  0  0  0  0
    5.8055   10.8691   27.8703 H   0  0  0  0  0  0  0  0  0  0  0  0
    6.0067   12.6405   27.9168 H   0  0  0  0  0  0  0  0  0  0  0  0
   10.8769   13.7266   20.1958 H   0  0  0  0  0  0  0  0  0  0  0  0
   12.1304   13.5699   21.3653 H   0  0  0  0  0  0  0  0  0  0  0  0
  1  2  2  0  0  0  0
  1  5  1  0  0  0  0
  2  6  1  0  0  0  0
  3  4  1  0  0  0  0
  3  6  2  0  0  0  0
  4  5  2  0  0  0  0
  4  7  1  0  0  0  0
  5 14  1  0  0  0  0
  6 15  1  0  0  0  0
  7 10  2  0  0  0  0
  7 13  1  0  0  0  0
  8 13  1  0  0  0  0
  9 15  1  0  0  0  0
 11 15  2  0  0  0  0
 12 15  2  0  0  0  0
  1 16  1  0  0  0  0
  2 17  1  0  0  0  0
  3 18  1  0  0  0  0
  8 19  1  0  0  0  0
  8 20  1  0  0  0  0
  8 21  1  0  0  0  0
  9 22  1  0  0  0  0
  9 23  1  0  0  0  0
M  END
> <Mol Weight>
233,21

> <Formula>
C8H8FNO4S

> <ID>
EN300-28735

> <name>
Sulfonamides

> <LogP>
0,73

> <ROCS_ShapeQuery>
x0446_0A_x1080_0A_x0929_0A_x0812_0A_x0719_0A_x1140_0A_x0528_0A_x0310_0A

> <ROCS_TanimotoCombo>
0.332 

> <ROCS_ShapeTanimoto>
0.189 

> <ROCS_ColorTanimoto>
0.143 

> <ROCS_RefTversky>
0.176 

> <ROCS_RefColorTversky>
0.148 

> <ROCS_RefTverskyCombo>
0.324 

> <ROCS_FitTversky>
1.685 

> <ROCS_FitColorTversky>
0.796 

> <ROCS_FitTverskyCombo>
2.481 

> <ROCS_ColorScore>
-5.264

> <ROCS_Overlap>
2071.215

> <ROCS_Rank>
388                 

$$$$
untitled-dbase-1125_3
  -OEChem-02082415043D

 17 17  0     0  0  0  0  0  0999 V2000
    8.4728   12.8806   24.0395 C   0  0  0  0  0  0  0  0  0  0  0  0
    9.7906   11.6330   22.4529 C   0  0  0  0  0  0  0  0  0  0  0  0
    9.4321   12.8143   22.9667 C   0  0  0  0  0  0  0  0  0  0  0  0
    7.9319   11.7592   24.5368 C   0  0  0  0  0  0  0  0  0  0  0  0
    8.3226   10.4255   23.9769 C   0  0  0  0  0  0  0  0  0  0  0  0
    9.2510   10.4695   22.9449 N   0  0  0  0  0  0  0  0  0  0  0  0
   11.1961   13.6760   21.0880 N   0  0  0  0  0  0  0  0  0  0  0  0
    7.8466    9.3790   24.4104 O   0  0  0  0  0  0  0  0  0  0  0  0
    9.0956   15.0207   21.6666 O   0  0  0  0  0  0  0  0  0  0  0  0
   10.9594   14.8621   23.3469 O   0  0  0  0  0  0  0  0  0  0  0  0
   10.1365   14.2381   22.3197 S   0  0  0  0  0  0  0  0  0  0  0  0
    6.7846   11.7936   25.8151 Cl  0  0  0  0  0  0  0  0  0  0  0  0
    8.2048   13.8577   24.4282 H   0  0  0  0  0  0  0  0  0  0  0  0
   10.5032   11.5110   21.6464 H   0  0  0  0  0  0  0  0  0  0  0  0
    9.5550    9.5970   22.5227 H   0  0  0  0  0  0  0  0  0  0  0  0
   12.2050   13.7851   21.2519 H   0  0  0  0  0  0  0  0  0  0  0  0
   10.9291   13.8909   20.1186 H   0  0  0  0  0  0  0  0  0  0  0  0
  1  3  1  0  0  0  0
  1  4  2  0  0  0  0
  2  3  2  0  0  0  0
  2  6  1  0  0  0  0
  3 11  1  0  0  0  0
  4  5  1  0  0  0  0
  4 12  1  0  0  0  0
  5  6  1  0  0  0  0
  5  8  2  0  0  0  0
  7 11  1  0  0  0  0
  9 11  2  0  0  0  0
 10 11  2  0  0  0  0
  1 13  1  0  0  0  0
  2 14  1  0  0  0  0
  6 15  1  0  0  0  0
  7 16  1  0  0  0  0
  7 17  1  0  0  0  0
M  END
> <Mol Weight>
208,62

> <Formula>
C5H5ClN2O3S

> <ID>
EN300-276920

> <name>
Sulfonamides

> <LogP>
-0,81

> <ROCS_ShapeQuery>
x0446_0A_x1080_0A_x0929_0A_x0812_0A_x0719_0A_x1140_0A_x0528_0A_x0310_0A

> <ROCS_TanimotoCombo>
0.332 

> <ROCS_ShapeTanimoto>
0.179 

> <ROCS_ColorTanimoto>
0.152 

> <ROCS_RefTversky>
0.166 

> <ROCS_RefColorTversky>
0.160 

> <ROCS_RefTverskyCombo>
0.326 

> <ROCS_FitTversky>
1.792 

> <ROCS_FitColorTversky>
0.756 

> <ROCS_FitTverskyCombo>
2.548 

> <ROCS_ColorScore>
-5.715

> <ROCS_Overlap>
1956.376

> <ROCS_Rank>
389                 

$$$$
untitled-dbase-812_18
  -OEChem-02082415043D

 26 26  0     0  0  0  0  0  0999 V2000
    9.5900   10.8933   22.7372 C   0  0  0  0  0  0  0  0  0  0  0  0
    8.0644   10.4447   24.5560 C   0  0  0  0  0  0  0  0  0  0  0  0
    9.5333   12.2568   23.0259 C   0  0  0  0  0  0  0  0  0  0  0  0
    8.0077   11.8081   24.8448 C   0  0  0  0  0  0  0  0  0  0  0  0
    8.8555    9.9873   23.5022 C   0  0  0  0  0  0  0  0  0  0  0  0
    8.7422   12.7142   24.0798 C   0  0  0  0  0  0  0  0  0  0  0  0
    8.9155    8.5294   23.1941 C   0  0  0  0  0  0  0  0  0  0  0  0
    8.6835   14.1720   24.3890 C   0  0  0  0  0  0  0  0  0  0  0  0
    7.5725   14.9138   23.6408 C   0  0  0  0  0  0  0  0  0  0  0  0
    6.3605   15.6847   21.4075 N   0  0  0  0  0  0  0  0  0  0  0  0
    8.9223   15.4618   21.4718 O   0  0  0  0  0  0  0  0  0  0  0  0
    7.4934   13.3784   21.5280 O   0  0  0  0  0  0  0  0  0  0  0  0
    7.7156   14.7682   21.8873 S   0  0  0  0  0  0  0  0  0  0  0  0
   10.2085   10.5459   21.9138 H   0  0  0  0  0  0  0  0  0  0  0  0
    7.4898    9.7454   25.1579 H   0  0  0  0  0  0  0  0  0  0  0  0
   10.1100   12.9553   22.4256 H   0  0  0  0  0  0  0  0  0  0  0  0
    7.3886   12.1561   25.6676 H   0  0  0  0  0  0  0  0  0  0  0  0
    9.7270    8.0529   23.7577 H   0  0  0  0  0  0  0  0  0  0  0  0
    7.9730    8.0286   23.4510 H   0  0  0  0  0  0  0  0  0  0  0  0
    9.0861    8.3549   22.1237 H   0  0  0  0  0  0  0  0  0  0  0  0
    9.6458   14.6425   24.1224 H   0  0  0  0  0  0  0  0  0  0  0  0
    8.5665   14.3449   25.4729 H   0  0  0  0  0  0  0  0  0  0  0  0
    6.5934   14.4965   23.8971 H   0  0  0  0  0  0  0  0  0  0  0  0
    7.5632   15.9827   23.8751 H   0  0  0  0  0  0  0  0  0  0  0  0
    6.5315   16.5993   20.9717 H   0  0  0  0  0  0  0  0  0  0  0  0
    5.5584   15.1803   21.0102 H   0  0  0  0  0  0  0  0  0  0  0  0
  1  3  2  0  0  0  0
  1  5  1  0  0  0  0
  2  4  1  0  0  0  0
  2  5  2  0  0  0  0
  3  6  1  0  0  0  0
  4  6  2  0  0  0  0
  5  7  1  0  0  0  0
  6  8  1  0  0  0  0
  8  9  1  0  0  0  0
  9 13  1  0  0  0  0
 10 13  1  0  0  0  0
 11 13  2  0  0  0  0
 12 13  2  0  0  0  0
  1 14  1  0  0  0  0
  2 15  1  0  0  0  0
  3 16  1  0  0  0  0
  4 17  1  0  0  0  0
  7 18  1  0  0  0  0
  7 19  1  0  0  0  0
  7 20  1  0  0  0  0
  8 21  1  0  0  0  0
  8 22  1  0  0  0  0
  9 23  1  0  0  0  0
  9 24  1  0  0  0  0
 10 25  1  0  0  0  0
 10 26  1  0  0  0  0
M  END
> <Mol Weight>
199,27

> <Formula>
C9H13NO2S

> <ID>
EN300-277231

> <name>
Sulfonamides

> <LogP>
1,14

> <ROCS_ShapeQuery>
x0446_0A_x1080_0A_x0929_0A_x0812_0A_x0719_0A_x1140_0A_x0528_0A_x0310_0A

> <ROCS_TanimotoCombo>
0.332 

> <ROCS_ShapeTanimoto>
0.181 

> <ROCS_ColorTanimoto>
0.151 

> <ROCS_RefTversky>
0.168 

> <ROCS_RefColorTversky>
0.152 

> <ROCS_RefTverskyCombo>
0.320 

> <ROCS_FitTversky>
1.763 

> <ROCS_FitColorTversky>
0.953 

> <ROCS_FitTverskyCombo>
2.716 

> <ROCS_ColorScore>
-5.396

> <ROCS_Overlap>
1977.240

> <ROCS_Rank>
390                 

$$$$
untitled-dbase-2423_21
  -OEChem-02082415043D

 31 32  0     0  0  0  0  0  0999 V2000
   13.9864   10.9357   24.0480 C   0  0  0  0  0  0  0  0  0  0  0  0
   14.5272   12.1143   23.5343 C   0  0  0  0  0  0  0  0  0  0  0  0
   12.6027   10.7875   24.1451 C   0  0  0  0  0  0  0  0  0  0  0  0
    9.6695   12.0113   25.0128 C   0  0  0  0  0  0  0  0  0  0  0  0
    9.6127   11.0667   22.7898 C   0  0  0  0  0  0  0  0  0  0  0  0
    8.2911   11.8299   25.1251 C   0  0  0  0  0  0  0  0  0  0  0  0
    8.2343   10.8853   22.9021 C   0  0  0  0  0  0  0  0  0  0  0  0
   13.6845   13.1449   23.1179 C   0  0  0  0  0  0  0  0  0  0  0  0
   10.3303   11.6297   23.8451 C   0  0  0  0  0  0  0  0  0  0  0  0
   11.7600   11.8181   23.7286 C   0  0  0  0  0  0  0  0  0  0  0  0
    7.5734   11.2669   24.0698 C   0  0  0  0  0  0  0  0  0  0  0  0
   12.3009   12.9968   23.2150 C   0  0  0  0  0  0  0  0  0  0  0  0
    6.0996   11.0732   24.1897 C   0  0  0  0  0  0  0  0  0  0  0  0
   11.0656   13.9094   21.0365 N   0  0  0  0  0  0  0  0  0  0  0  0
   10.0118   14.2255   23.3678 O   0  0  0  0  0  0  0  0  0  0  0  0
   12.0655   15.5494   22.7534 O   0  0  0  0  0  0  0  0  0  0  0  0
    5.6111   11.8330   25.2884 O   0  0  0  0  0  0  0  0  0  0  0  0
   11.2880   14.3229   22.6780 S   0  0  0  0  0  0  0  0  0  0  0  0
   14.6428   10.1331   24.3715 H   0  0  0  0  0  0  0  0  0  0  0  0
   15.6045   12.2292   23.4580 H   0  0  0  0  0  0  0  0  0  0  0  0
   12.1983    9.8619   24.5480 H   0  0  0  0  0  0  0  0  0  0  0  0
   10.2148   12.4521   25.8439 H   0  0  0  0  0  0  0  0  0  0  0  0
   10.1136   10.7636   21.8734 H   0  0  0  0  0  0  0  0  0  0  0  0
    7.7843   12.1311   26.0380 H   0  0  0  0  0  0  0  0  0  0  0  0
    7.6831   10.4453   22.0751 H   0  0  0  0  0  0  0  0  0  0  0  0
   14.1188   14.0579   22.7191 H   0  0  0  0  0  0  0  0  0  0  0  0
    5.5772   11.3973   23.2791 H   0  0  0  0  0  0  0  0  0  0  0  0
    5.8503   10.0158   24.3532 H   0  0  0  0  0  0  0  0  0  0  0  0
   10.1381   13.5766   20.7460 H   0  0  0  0  0  0  0  0  0  0  0  0
   11.5426   14.4801   20.3280 H   0  0  0  0  0  0  0  0  0  0  0  0
    4.6537   11.6792   25.3303 H   0  0  0  0  0  0  0  0  0  0  0  0
  1  2  1  0  0  0  0
  1  3  2  0  0  0  0
  2  8  2  0  0  0  0
  3 10  1  0  0  0  0
  4  6  2  0  0  0  0
  4  9  1  0  0  0  0
  5  7  1  0  0  0  0
  5  9  2  0  0  0  0
  6 11  1  0  0  0  0
  7 11  2  0  0  0  0
  8 12  1  0  0  0  0
  9 10  1  0  0  0  0
 10 12  2  0  0  0  0
 11 13  1  0  0  0  0
 12 18  1  0  0  0  0
 13 17  1  0  0  0  0
 14 18  1  0  0  0  0
 15 18  2  0  0  0  0
 16 18  2  0  0  0  0
  1 19  1  0  0  0  0
  2 20  1  0  0  0  0
  3 21  1  0  0  0  0
  4 22  1  0  0  0  0
  5 23  1  0  0  0  0
  6 24  1  0  0  0  0
  7 25  1  0  0  0  0
  8 26  1  0  0  0  0
 13 27  1  0  0  0  0
 13 28  1  0  0  0  0
 14 29  1  0  0  0  0
 14 30  1  0  0  0  0
 17 31  1  0  0  0  0
M  END
> <Mol Weight>
263,31

> <Formula>
C13H13NO3S

> <ID>
EN300-1699095

> <name>
Sulfonamides

> <LogP>
1,46

> <ROCS_ShapeQuery>
x0446_0A_x1080_0A_x0929_0A_x0812_0A_x0719_0A_x1140_0A_x0528_0A_x0310_0A

> <ROCS_TanimotoCombo>
0.332 

> <ROCS_ShapeTanimoto>
0.198 

> <ROCS_ColorTanimoto>
0.133 

> <ROCS_RefTversky>
0.185 

> <ROCS_RefColorTversky>
0.146 

> <ROCS_RefTverskyCombo>
0.330 

> <ROCS_FitTversky>
1.599 

> <ROCS_FitColorTversky>
0.610 

> <ROCS_FitTverskyCombo>
2.209 

> <ROCS_ColorScore>
-5.192

> <ROCS_Overlap>
2179.700

> <ROCS_Rank>
391                 

$$$$
untitled-dbase-1526_1
  -OEChem-02082415043D

 25 26  0     0  0  0  0  0  0999 V2000
    6.9224   11.9145   20.9856 C   0  0  0  0  0  0  0  0  0  0  0  0
    6.9739   10.9098   21.9474 C   0  0  0  0  0  0  0  0  0  0  0  0
    8.0072    9.9582   23.9545 C   0  0  0  0  0  0  0  0  0  0  0  0
    7.8269   12.9675   21.0446 C   0  0  0  0  0  0  0  0  0  0  0  0
    8.9658   10.0329   24.9548 C   0  0  0  0  0  0  0  0  0  0  0  0
    7.9330   10.9562   22.9735 C   0  0  0  0  0  0  0  0  0  0  0  0
    8.8543   12.0224   23.0397 C   0  0  0  0  0  0  0  0  0  0  0  0
    8.7803   13.0134   22.0648 C   0  0  0  0  0  0  0  0  0  0  0  0
    9.8237   11.1138   24.9371 C   0  0  0  0  0  0  0  0  0  0  0  0
   10.8708   11.2355   25.9934 C   0  0  0  0  0  0  0  0  0  0  0  0
    9.7857   12.0974   24.0092 N   0  0  0  0  0  0  0  0  0  0  0  0
   11.1645   13.7475   21.1259 N   0  0  0  0  0  0  0  0  0  0  0  0
    9.2688   15.4760   21.3789 O   0  0  0  0  0  0  0  0  0  0  0  0
   10.3725   14.5455   23.4438 O   0  0  0  0  0  0  0  0  0  0  0  0
    9.8950   14.3692   22.0826 S   0  0  0  0  0  0  0  0  0  0  0  0
    6.1797   11.8755   20.1946 H   0  0  0  0  0  0  0  0  0  0  0  0
    6.2614   10.0897   21.8922 H   0  0  0  0  0  0  0  0  0  0  0  0
    7.3193    9.1160   23.9439 H   0  0  0  0  0  0  0  0  0  0  0  0
    7.7832   13.7495   20.2912 H   0  0  0  0  0  0  0  0  0  0  0  0
    9.0281    9.2649   25.7179 H   0  0  0  0  0  0  0  0  0  0  0  0
   11.7937   10.7366   25.6744 H   0  0  0  0  0  0  0  0  0  0  0  0
   11.0991   12.2873   26.2076 H   0  0  0  0  0  0  0  0  0  0  0  0
   10.5382   10.7836   26.9367 H   0  0  0  0  0  0  0  0  0  0  0  0
   11.2921   14.1380   20.1843 H   0  0  0  0  0  0  0  0  0  0  0  0
   12.0441   13.5013   21.5960 H   0  0  0  0  0  0  0  0  0  0  0  0
  1  2  2  0  0  0  0
  1  4  1  0  0  0  0
  2  6  1  0  0  0  0
  3  5  2  0  0  0  0
  3  6  1  0  0  0  0
  4  8  2  0  0  0  0
  5  9  1  0  0  0  0
  6  7  2  0  0  0  0
  7  8  1  0  0  0  0
  7 11  1  0  0  0  0
  8 15  1  0  0  0  0
  9 10  1  0  0  0  0
  9 11  2  0  0  0  0
 12 15  1  0  0  0  0
 13 15  2  0  0  0  0
 14 15  2  0  0  0  0
  1 16  1  0  0  0  0
  2 17  1  0  0  0  0
  3 18  1  0  0  0  0
  4 19  1  0  0  0  0
  5 20  1  0  0  0  0
 10 21  1  0  0  0  0
 10 22  1  0  0  0  0
 10 23  1  0  0  0  0
 12 24  1  0  0  0  0
 12 25  1  0  0  0  0
M  END
> <Mol Weight>
222,26

> <Formula>
C10H10N2O2S

> <ID>
EN300-274931

> <name>
Sulfonamides

> <LogP>
0,87

> <ROCS_ShapeQuery>
x0446_0A_x1080_0A_x0929_0A_x0812_0A_x0719_0A_x1140_0A_x0528_0A_x0310_0A

> <ROCS_TanimotoCombo>
0.332 

> <ROCS_ShapeTanimoto>
0.155 

> <ROCS_ColorTanimoto>
0.177 

> <ROCS_RefTversky>
0.148 

> <ROCS_RefColorTversky>
0.182 

> <ROCS_RefTverskyCombo>
0.330 

> <ROCS_FitTversky>
1.401 

> <ROCS_FitColorTversky>
0.857 

> <ROCS_FitTverskyCombo>
2.258 

> <ROCS_ColorScore>
-6.489

> <ROCS_Overlap>
1748.602

> <ROCS_Rank>
392                 

$$$$
untitled-dbase-1530_1
  -OEChem-02082415043D

 25 26  0     0  0  0  0  0  0999 V2000
    6.9291   11.9051   20.9808 C   0  0  0  0  0  0  0  0  0  0  0  0
    6.9875   10.8961   21.9378 C   0  0  0  0  0  0  0  0  0  0  0  0
    7.8273   12.9632   21.0442 C   0  0  0  0  0  0  0  0  0  0  0  0
    8.0283    9.9411   23.9394 C   0  0  0  0  0  0  0  0  0  0  0  0
    9.8386   11.1028   24.9260 C   0  0  0  0  0  0  0  0  0  0  0  0
    7.9472   10.9433   22.9632 C   0  0  0  0  0  0  0  0  0  0  0  0
    8.9872   10.0166   24.9392 C   0  0  0  0  0  0  0  0  0  0  0  0
    8.8622   12.0146   23.0339 C   0  0  0  0  0  0  0  0  0  0  0  0
    8.7813   13.0099   22.0638 C   0  0  0  0  0  0  0  0  0  0  0  0
    9.0933    8.9661   25.9858 C   0  0  0  0  0  0  0  0  0  0  0  0
    9.7939   12.0906   24.0029 N   0  0  0  0  0  0  0  0  0  0  0  0
   11.1596   13.7652   21.1267 N   0  0  0  0  0  0  0  0  0  0  0  0
    9.2525   15.4794   21.3909 O   0  0  0  0  0  0  0  0  0  0  0  0
   10.3644   14.5453   23.4497 O   0  0  0  0  0  0  0  0  0  0  0  0
    9.8869   14.3733   22.0879 S   0  0  0  0  0  0  0  0  0  0  0  0
    6.1863   11.8651   20.1901 H   0  0  0  0  0  0  0  0  0  0  0  0
    6.2797   10.0722   21.8789 H   0  0  0  0  0  0  0  0  0  0  0  0
    7.7781   13.7489   20.2948 H   0  0  0  0  0  0  0  0  0  0  0  0
    7.3397    9.0985   23.9183 H   0  0  0  0  0  0  0  0  0  0  0  0
   10.6111   11.2223   25.6795 H   0  0  0  0  0  0  0  0  0  0  0  0
    9.7792    8.1697   25.6662 H   0  0  0  0  0  0  0  0  0  0  0  0
    9.4639    9.3787   26.9351 H   0  0  0  0  0  0  0  0  0  0  0  0
    8.1155    8.5120   26.2017 H   0  0  0  0  0  0  0  0  0  0  0  0
   11.2837   14.1617   20.1872 H   0  0  0  0  0  0  0  0  0  0  0  0
   12.0413   13.5225   21.5946 H   0  0  0  0  0  0  0  0  0  0  0  0
  1  2  2  0  0  0  0
  1  3  1  0  0  0  0
  2  6  1  0  0  0  0
  3  9  2  0  0  0  0
  4  6  1  0  0  0  0
  4  7  2  0  0  0  0
  5  7  1  0  0  0  0
  5 11  2  0  0  0  0
  6  8  2  0  0  0  0
  7 10  1  0  0  0  0
  8  9  1  0  0  0  0
  8 11  1  0  0  0  0
  9 15  1  0  0  0  0
 12 15  1  0  0  0  0
 13 15  2  0  0  0  0
 14 15  2  0  0  0  0
  1 16  1  0  0  0  0
  2 17  1  0  0  0  0
  3 18  1  0  0  0  0
  4 19  1  0  0  0  0
  5 20  1  0  0  0  0
 10 21  1  0  0  0  0
 10 22  1  0  0  0  0
 10 23  1  0  0  0  0
 12 24  1  0  0  0  0
 12 25  1  0  0  0  0
M  END
> <Mol Weight>
222,26

> <Formula>
C10H10N2O2S

> <ID>
EN300-36099

> <name>
Sulfonamides

> <LogP>
1,25

> <ROCS_ShapeQuery>
x0446_0A_x1080_0A_x0929_0A_x0812_0A_x0719_0A_x1140_0A_x0528_0A_x0310_0A

> <ROCS_TanimotoCombo>
0.332 

> <ROCS_ShapeTanimoto>
0.155 

> <ROCS_ColorTanimoto>
0.177 

> <ROCS_RefTversky>
0.148 

> <ROCS_RefColorTversky>
0.182 

> <ROCS_RefTverskyCombo>
0.330 

> <ROCS_FitTversky>
1.401 

> <ROCS_FitColorTversky>
0.858 

> <ROCS_FitTverskyCombo>
2.258 

> <ROCS_ColorScore>
-6.491

> <ROCS_Overlap>
1747.685

> <ROCS_Rank>
393                 

$$$$
untitled-dbase-2752_9
  -OEChem-02082415043D

 33 34  0     0  0  0  0  0  0999 V2000
    8.9219   10.0781   23.6932 C   0  0  0  0  0  0  0  0  0  0  0  0
   11.8417   16.0870   20.6606 C   0  0  0  0  0  0  0  0  0  0  0  0
   12.5961   13.8194   20.3055 C   0  0  0  0  0  0  0  0  0  0  0  0
    9.8434   10.8229   22.9573 C   0  0  0  0  0  0  0  0  0  0  0  0
   12.9483   16.5651   19.9588 C   0  0  0  0  0  0  0  0  0  0  0  0
   13.7026   14.2975   19.6036 C   0  0  0  0  0  0  0  0  0  0  0  0
    7.9155   10.7255   24.4101 C   0  0  0  0  0  0  0  0  0  0  0  0
    8.7524   12.8625   23.6552 C   0  0  0  0  0  0  0  0  0  0  0  0
   11.6656   14.7142   20.8340 C   0  0  0  0  0  0  0  0  0  0  0  0
   13.8787   15.6703   19.4303 C   0  0  0  0  0  0  0  0  0  0  0  0
    9.7587   12.2151   22.9383 C   0  0  0  0  0  0  0  0  0  0  0  0
    7.8309   12.1177   24.3912 C   0  0  0  0  0  0  0  0  0  0  0  0
   10.5119   14.2158   21.5657 C   0  0  0  0  0  0  0  0  0  0  0  0
   14.9976   16.1537   18.7206 N   0  0  0  0  0  0  0  0  0  0  0  0
    7.3434   13.1580   26.7963 N   0  0  0  0  0  0  0  0  0  0  0  0
   10.6952   12.9722   22.1901 N   0  0  0  0  0  0  0  0  0  0  0  0
    9.4415   14.8387   21.5967 O   0  0  0  0  0  0  0  0  0  0  0  0
    6.3354   14.2282   24.6787 O   0  0  0  0  0  0  0  0  0  0  0  0
    5.4627   12.0009   25.4694 O   0  0  0  0  0  0  0  0  0  0  0  0
    6.5717   12.9274   25.2894 S   0  0  0  0  0  0  0  0  0  0  0  0
    8.9872    8.9941   23.7078 H   0  0  0  0  0  0  0  0  0  0  0  0
   11.1228   16.7931   21.0682 H   0  0  0  0  0  0  0  0  0  0  0  0
   12.4687   12.7477   20.4347 H   0  0  0  0  0  0  0  0  0  0  0  0
   10.6229   10.3074   22.4019 H   0  0  0  0  0  0  0  0  0  0  0  0
   13.0758   17.6368   19.8295 H   0  0  0  0  0  0  0  0  0  0  0  0
   14.4217   13.5915   19.1959 H   0  0  0  0  0  0  0  0  0  0  0  0
    7.2030   10.1358   24.9806 H   0  0  0  0  0  0  0  0  0  0  0  0
    8.6857   13.9481   23.6408 H   0  0  0  0  0  0  0  0  0  0  0  0
   15.6817   15.5049   18.3876 H   0  0  0  0  0  0  0  0  0  0  0  0
   15.1372   17.1410   18.6440 H   0  0  0  0  0  0  0  0  0  0  0  0
    7.6233   14.1125   27.0534 H   0  0  0  0  0  0  0  0  0  0  0  0
    7.0276   12.5896   27.5916 H   0  0  0  0  0  0  0  0  0  0  0  0
   11.6201   12.5606   22.0931 H   0  0  0  0  0  0  0  0  0  0  0  0
  1  4  2  0  0  0  0
  1  7  1  0  0  0  0
  2  5  2  0  0  0  0
  2  9  1  0  0  0  0
  3  6  1  0  0  0  0
  3  9  2  0  0  0  0
  4 11  1  0  0  0  0
  5 10  1  0  0  0  0
  6 10  2  0  0  0  0
  7 12  2  0  0  0  0
  8 11  2  0  0  0  0
  8 12  1  0  0  0  0
  9 13  1  0  0  0  0
 10 14  1  0  0  0  0
 11 16  1  0  0  0  0
 12 20  1  0  0  0  0
 13 16  1  0  0  0  0
 13 17  2  0  0  0  0
 15 20  1  0  0  0  0
 18 20  2  0  0  0  0
 19 20  2  0  0  0  0
  1 21  1  0  0  0  0
  2 22  1  0  0  0  0
  3 23  1  0  0  0  0
  4 24  1  0  0  0  0
  5 25  1  0  0  0  0
  6 26  1  0  0  0  0
  7 27  1  0  0  0  0
  8 28  1  0  0  0  0
 14 29  1  0  0  0  0
 14 30  1  0  0  0  0
 15 31  1  0  0  0  0
 15 32  1  0  0  0  0
 16 33  1  0  0  0  0
M  END
> <Mol Weight>
291,33

> <Formula>
C13H13N3O3S

> <ID>
EN300-01190

> <name>
Sulfonamides

> <LogP>
0,84

> <ROCS_ShapeQuery>
x0446_0A_x1080_0A_x0929_0A_x0812_0A_x0719_0A_x1140_0A_x0528_0A_x0310_0A

> <ROCS_TanimotoCombo>
0.331 

> <ROCS_ShapeTanimoto>
0.202 

> <ROCS_ColorTanimoto>
0.129 

> <ROCS_RefTversky>
0.189 

> <ROCS_RefColorTversky>
0.147 

> <ROCS_RefTverskyCombo>
0.337 

> <ROCS_FitTversky>
1.538 

> <ROCS_FitColorTversky>
0.507 

> <ROCS_FitTverskyCombo>
2.045 

> <ROCS_ColorScore>
-5.278

> <ROCS_Overlap>
2231.592

> <ROCS_Rank>
394                 

$$$$
untitled-dbase-1492_5
  -OEChem-02082415043D

 29 29  0     0  0  0  0  0  0999 V2000
    7.8719   10.2003   24.7226 C   0  0  0  0  0  0  0  0  0  0  0  0
    9.9772   11.3208   24.0311 C   0  0  0  0  0  0  0  0  0  0  0  0
    7.8281   12.6543   24.3498 C   0  0  0  0  0  0  0  0  0  0  0  0
    9.7875   11.3932   22.5150 C   0  0  0  0  0  0  0  0  0  0  0  0
    7.6530   12.7191   22.8315 C   0  0  0  0  0  0  0  0  0  0  0  0
    8.6826   11.4827   24.8196 C   0  0  0  0  0  0  0  0  0  0  0  0
    8.9695   12.6022   22.0663 C   0  0  0  0  0  0  0  0  0  0  0  0
    5.8742    9.1791   25.4646 C   0  0  0  0  0  0  0  0  0  0  0  0
   11.1840   13.7060   21.1023 N   0  0  0  0  0  0  0  0  0  0  0  0
    8.2106    9.2233   24.0684 O   0  0  0  0  0  0  0  0  0  0  0  0
    9.1229   15.1664   21.5878 O   0  0  0  0  0  0  0  0  0  0  0  0
   10.4426   14.2021   23.5150 O   0  0  0  0  0  0  0  0  0  0  0  0
    6.7360   10.3217   25.4670 O   0  0  0  0  0  0  0  0  0  0  0  0
    9.9153   14.1002   22.1683 S   0  0  0  0  0  0  0  0  0  0  0  0
   10.4621   10.3693   24.2830 H   0  0  0  0  0  0  0  0  0  0  0  0
   10.6753   12.1096   24.3376 H   0  0  0  0  0  0  0  0  0  0  0  0
    8.2931   13.5872   24.6917 H   0  0  0  0  0  0  0  0  0  0  0  0
    6.8373   12.6162   24.8194 H   0  0  0  0  0  0  0  0  0  0  0  0
   10.7700   11.3927   22.0280 H   0  0  0  0  0  0  0  0  0  0  0  0
    9.2758   10.4811   22.1823 H   0  0  0  0  0  0  0  0  0  0  0  0
    6.9903   11.9033   22.5170 H   0  0  0  0  0  0  0  0  0  0  0  0
    7.1390   13.6515   22.5684 H   0  0  0  0  0  0  0  0  0  0  0  0
    8.9109   11.6016   25.8720 H   0  0  0  0  0  0  0  0  0  0  0  0
    8.7477   12.4997   20.9971 H   0  0  0  0  0  0  0  0  0  0  0  0
    4.9993    9.3805   26.0875 H   0  0  0  0  0  0  0  0  0  0  0  0
    6.4166    8.3117   25.8489 H   0  0  0  0  0  0  0  0  0  0  0  0
    5.5511    8.9798   24.4401 H   0  0  0  0  0  0  0  0  0  0  0  0
   11.8697   13.0057   21.4105 H   0  0  0  0  0  0  0  0  0  0  0  0
   10.9709   13.6627   20.0981 H   0  0  0  0  0  0  0  0  0  0  0  0
  1  6  1  0  0  0  0
  1 10  2  0  0  0  0
  1 13  1  0  0  0  0
  2  4  1  0  0  0  0
  2  6  1  0  0  0  0
  3  5  1  0  0  0  0
  3  6  1  0  0  0  0
  4  7  1  0  0  0  0
  5  7  1  0  0  0  0
  7 14  1  0  0  0  0
  8 13  1  0  0  0  0
  9 14  1  0  0  0  0
 11 14  2  0  0  0  0
 12 14  2  0  0  0  0
  2 15  1  0  0  0  0
  2 16  1  0  0  0  0
  3 17  1  0  0  0  0
  3 18  1  0  0  0  0
  4 19  1  0  0  0  0
  4 20  1  0  0  0  0
  5 21  1  0  0  0  0
  5 22  1  0  0  0  0
  6 23  1  0  0  0  0
  7 24  1  0  0  0  0
  8 25  1  0  0  0  0
  8 26  1  0  0  0  0
  8 27  1  0  0  0  0
  9 28  1  0  0  0  0
  9 29  1  0  0  0  0
M  END
> <Mol Weight>
221,27

> <Formula>
C8H15NO4S

> <ID>
EN300-1629085

> <name>
Sulfonamides

> <LogP>
-0,06

> <ROCS_ShapeQuery>
x0446_0A_x1080_0A_x0929_0A_x0812_0A_x0719_0A_x1140_0A_x0528_0A_x0310_0A

> <ROCS_TanimotoCombo>
0.331 

> <ROCS_ShapeTanimoto>
0.178 

> <ROCS_ColorTanimoto>
0.153 

> <ROCS_RefTversky>
0.166 

> <ROCS_RefColorTversky>
0.157 

> <ROCS_RefTverskyCombo>
0.324 

> <ROCS_FitTversky>
1.690 

> <ROCS_FitColorTversky>
0.846 

> <ROCS_FitTverskyCombo>
2.536 

> <ROCS_ColorScore>
-5.597

> <ROCS_Overlap>
1960.677

> <ROCS_Rank>
395                 

$$$$
untitled-dbase-1493_26
  -OEChem-02082415043D

 26 27  0     0  0  0  0  0  0999 V2000
    5.5514   10.9064   24.4703 C   0  0  0  0  0  0  0  0  0  0  0  0
    5.3617   12.2840   24.5269 C   0  0  0  0  0  0  0  0  0  0  0  0
    6.8223   10.3858   24.2249 C   0  0  0  0  0  0  0  0  0  0  0  0
    6.4422   13.1462   24.3383 C   0  0  0  0  0  0  0  0  0  0  0  0
    9.2074   10.7322   23.7848 C   0  0  0  0  0  0  0  0  0  0  0  0
   10.2879   11.5944   23.5962 C   0  0  0  0  0  0  0  0  0  0  0  0
    8.8273   13.4927   23.8981 C   0  0  0  0  0  0  0  0  0  0  0  0
    7.9212   11.2388   24.0328 C   0  0  0  0  0  0  0  0  0  0  0  0
    7.7283   12.6397   24.0903 C   0  0  0  0  0  0  0  0  0  0  0  0
   10.0982   12.9720   23.6527 C   0  0  0  0  0  0  0  0  0  0  0  0
   11.2547   13.8923   23.4511 C   0  0  0  0  0  0  0  0  0  0  0  0
   11.3343   13.7864   20.7990 N   0  0  0  0  0  0  0  0  0  0  0  0
    9.4850   15.1293   21.9795 O   0  0  0  0  0  0  0  0  0  0  0  0
   11.8604   15.9905   22.0165 O   0  0  0  0  0  0  0  0  0  0  0  0
   10.9166   14.8858   22.0337 S   0  0  0  0  0  0  0  0  0  0  0  0
    4.7097   10.2361   24.6169 H   0  0  0  0  0  0  0  0  0  0  0  0
    4.3719   12.6884   24.7174 H   0  0  0  0  0  0  0  0  0  0  0  0
    6.9469    9.3055   24.1854 H   0  0  0  0  0  0  0  0  0  0  0  0
    6.2705   14.2197   24.3865 H   0  0  0  0  0  0  0  0  0  0  0  0
    9.3789    9.6587   23.7360 H   0  0  0  0  0  0  0  0  0  0  0  0
   11.2745   11.1807   23.4053 H   0  0  0  0  0  0  0  0  0  0  0  0
    8.6926   14.5724   23.9401 H   0  0  0  0  0  0  0  0  0  0  0  0
   12.1898   13.3510   23.2683 H   0  0  0  0  0  0  0  0  0  0  0  0
   11.4061   14.5630   24.3045 H   0  0  0  0  0  0  0  0  0  0  0  0
   12.3302   13.5700   20.6684 H   0  0  0  0  0  0  0  0  0  0  0  0
   10.7123   12.9837   20.6433 H   0  0  0  0  0  0  0  0  0  0  0  0
  1  2  1  0  0  0  0
  1  3  2  0  0  0  0
  2  4  2  0  0  0  0
  3  8  1  0  0  0  0
  4  9  1  0  0  0  0
  5  6  2  0  0  0  0
  5  8  1  0  0  0  0
  6 10  1  0  0  0  0
  7  9  1  0  0  0  0
  7 10  2  0  0  0  0
  8  9  2  0  0  0  0
 10 11  1  0  0  0  0
 11 15  1  0  0  0  0
 12 15  1  0  0  0  0
 13 15  2  0  0  0  0
 14 15  2  0  0  0  0
  1 16  1  0  0  0  0
  2 17  1  0  0  0  0
  3 18  1  0  0  0  0
  4 19  1  0  0  0  0
  5 20  1  0  0  0  0
  6 21  1  0  0  0  0
  7 22  1  0  0  0  0
 11 23  1  0  0  0  0
 11 24  1  0  0  0  0
 12 25  1  0  0  0  0
 12 26  1  0  0  0  0
M  END
> <Mol Weight>
221,27

> <Formula>
C11H11NO2S

> <ID>
EN300-274066

> <name>
Sulfonamides

> <LogP>
1,33

> <ROCS_ShapeQuery>
x0446_0A_x1080_0A_x0929_0A_x0812_0A_x0719_0A_x1140_0A_x0528_0A_x0310_0A

> <ROCS_TanimotoCombo>
0.331 

> <ROCS_ShapeTanimoto>
0.205 

> <ROCS_ColorTanimoto>
0.126 

> <ROCS_RefTversky>
0.188 

> <ROCS_RefColorTversky>
0.133 

> <ROCS_RefTverskyCombo>
0.321 

> <ROCS_FitTversky>
1.793 

> <ROCS_FitColorTversky>
0.713 

> <ROCS_FitTverskyCombo>
2.506 

> <ROCS_ColorScore>
-4.719

> <ROCS_Overlap>
2219.634

> <ROCS_Rank>
396                 

$$$$
untitled-dbase-1863_0
  -OEChem-02082415043D

 22 23  0     0  0  0  0  0  0999 V2000
    7.9023   10.0741   23.6894 C   0  0  0  0  0  0  0  0  0  0  0  0
    8.1576   12.3210   23.8671 C   0  0  0  0  0  0  0  0  0  0  0  0
    7.2584   11.2502   23.9256 C   0  0  0  0  0  0  0  0  0  0  0  0
    9.3892   11.7857   23.5893 C   0  0  0  0  0  0  0  0  0  0  0  0
    7.5990   13.6694   24.1237 C   0  0  0  0  0  0  0  0  0  0  0  0
    6.0536   13.5172   24.0451 C   0  0  0  0  0  0  0  0  0  0  0  0
    9.2234   10.4166   23.4822 N   0  0  0  0  0  0  0  0  0  0  0  0
   10.9598   12.8188   21.6997 N   0  0  0  0  0  0  0  0  0  0  0  0
    5.4519   11.4003   25.6310 O   0  0  0  0  0  0  0  0  0  0  0  0
    4.8914   11.2393   23.1357 O   0  0  0  0  0  0  0  0  0  0  0  0
   10.9787   13.7849   24.0896 O   0  0  0  0  0  0  0  0  0  0  0  0
   11.9780   11.5102   23.6714 O   0  0  0  0  0  0  0  0  0  0  0  0
    5.6686   11.7411   24.2444 S   0  0  0  0  0  0  0  0  0  0  0  0
   10.9798   12.5209   23.3785 S   0  0  0  0  0  0  0  0  0  0  0  0
    7.5759    9.0453   23.6414 H   0  0  0  0  0  0  0  0  0  0  0  0
    7.8861   14.0012   25.1277 H   0  0  0  0  0  0  0  0  0  0  0  0
    7.9521   14.4128   23.4029 H   0  0  0  0  0  0  0  0  0  0  0  0
    5.5372   14.0884   24.8196 H   0  0  0  0  0  0  0  0  0  0  0  0
    5.6891   13.8094   23.0549 H   0  0  0  0  0  0  0  0  0  0  0  0
    9.9639    9.7592   23.2808 H   0  0  0  0  0  0  0  0  0  0  0  0
   11.0269   12.0105   21.0691 H   0  0  0  0  0  0  0  0  0  0  0  0
   10.3457   13.5658   21.3532 H   0  0  0  0  0  0  0  0  0  0  0  0
  1  3  2  0  0  0  0
  1  7  1  0  0  0  0
  2  3  1  0  0  0  0
  2  4  2  0  0  0  0
  2  5  1  0  0  0  0
  3 13  1  0  0  0  0
  4  7  1  0  0  0  0
  4 14  1  0  0  0  0
  5  6  1  0  0  0  0
  6 13  1  0  0  0  0
  8 14  1  0  0  0  0
  9 13  2  0  0  0  0
 10 13  2  0  0  0  0
 11 14  2  0  0  0  0
 12 14  2  0  0  0  0
  1 15  1  0  0  0  0
  5 16  1  0  0  0  0
  5 17  1  0  0  0  0
  6 18  1  0  0  0  0
  6 19  1  0  0  0  0
  7 20  1  0  0  0  0
  8 21  1  0  0  0  0
  8 22  1  0  0  0  0
M  END
> <Mol Weight>
236,26

> <Formula>
C6H8N2O4S2

> <ID>
EN300-193241

> <name>
Sulfonamides

> <LogP>
-1,22

> <ROCS_ShapeQuery>
x0446_0A_x1080_0A_x0929_0A_x0812_0A_x0719_0A_x1140_0A_x0528_0A_x0310_0A

> <ROCS_TanimotoCombo>
0.331 

> <ROCS_ShapeTanimoto>
0.186 

> <ROCS_ColorTanimoto>
0.145 

> <ROCS_RefTversky>
0.172 

> <ROCS_RefColorTversky>
0.161 

> <ROCS_RefTverskyCombo>
0.333 

> <ROCS_FitTversky>
1.720 

> <ROCS_FitColorTversky>
0.605 

> <ROCS_FitTverskyCombo>
2.325 

> <ROCS_ColorScore>
-5.745

> <ROCS_Overlap>
2031.301

> <ROCS_Rank>
397                 

$$$$
untitled-dbase-1459_15
  -OEChem-02082415043D

 23 23  0     0  0  0  0  0  0999 V2000
    7.9456   11.8609   24.8852 C   0  0  0  0  0  0  0  0  0  0  0  0
    9.5151   12.3104   23.1043 C   0  0  0  0  0  0  0  0  0  0  0  0
    8.0365   10.4944   24.6204 C   0  0  0  0  0  0  0  0  0  0  0  0
    9.6061   10.9439   22.8396 C   0  0  0  0  0  0  0  0  0  0  0  0
    8.6848   12.7689   24.1270 C   0  0  0  0  0  0  0  0  0  0  0  0
    8.8668   10.0359   23.5977 C   0  0  0  0  0  0  0  0  0  0  0  0
    8.5891   14.2300   24.4108 C   0  0  0  0  0  0  0  0  0  0  0  0
    7.4878   14.9384   23.6174 C   0  0  0  0  0  0  0  0  0  0  0  0
    6.3306   15.6509   21.3361 N   0  0  0  0  0  0  0  0  0  0  0  0
    8.8930   15.4787   21.4818 O   0  0  0  0  0  0  0  0  0  0  0  0
    7.5027   13.3691   21.5282 O   0  0  0  0  0  0  0  0  0  0  0  0
    7.6874   14.7684   21.8716 S   0  0  0  0  0  0  0  0  0  0  0  0
    8.9790    8.3502   23.2715 Cl  0  0  0  0  0  0  0  0  0  0  0  0
    7.2962   12.2103   25.6836 H   0  0  0  0  0  0  0  0  0  0  0  0
   10.0946   13.0113   22.5092 H   0  0  0  0  0  0  0  0  0  0  0  0
    7.4548    9.7987   25.2197 H   0  0  0  0  0  0  0  0  0  0  0  0
   10.2571   10.6012   22.0395 H   0  0  0  0  0  0  0  0  0  0  0  0
    9.5501   14.7148   24.1661 H   0  0  0  0  0  0  0  0  0  0  0  0
    8.4356   14.4173   25.4877 H   0  0  0  0  0  0  0  0  0  0  0  0
    6.5093   14.5062   23.8505 H   0  0  0  0  0  0  0  0  0  0  0  0
    7.4511   16.0104   23.8340 H   0  0  0  0  0  0  0  0  0  0  0  0
    6.4977   16.5617   20.8911 H   0  0  0  0  0  0  0  0  0  0  0  0
    5.5507   15.1250   20.9228 H   0  0  0  0  0  0  0  0  0  0  0  0
  1  3  2  0  0  0  0
  1  5  1  0  0  0  0
  2  4  1  0  0  0  0
  2  5  2  0  0  0  0
  3  6  1  0  0  0  0
  4  6  2  0  0  0  0
  5  7  1  0  0  0  0
  6 13  1  0  0  0  0
  7  8  1  0  0  0  0
  8 12  1  0  0  0  0
  9 12  1  0  0  0  0
 10 12  2  0  0  0  0
 11 12  2  0  0  0  0
  1 14  1  0  0  0  0
  2 15  1  0  0  0  0
  3 16  1  0  0  0  0
  4 17  1  0  0  0  0
  7 18  1  0  0  0  0
  7 19  1  0  0  0  0
  8 20  1  0  0  0  0
  8 21  1  0  0  0  0
  9 22  1  0  0  0  0
  9 23  1  0  0  0  0
M  END
> <Mol Weight>
219,68

> <Formula>
C8H10ClNO2S

> <ID>
EN300-256921

> <name>
Sulfonamides

> <LogP>
1,23

> <ROCS_ShapeQuery>
x0446_0A_x1080_0A_x0929_0A_x0812_0A_x0719_0A_x1140_0A_x0528_0A_x0310_0A

> <ROCS_TanimotoCombo>
0.331 

> <ROCS_ShapeTanimoto>
0.180 

> <ROCS_ColorTanimoto>
0.151 

> <ROCS_RefTversky>
0.167 

> <ROCS_RefColorTversky>
0.152 

> <ROCS_RefTverskyCombo>
0.319 

> <ROCS_FitTversky>
1.763 

> <ROCS_FitColorTversky>
0.956 

> <ROCS_FitTverskyCombo>
2.719 

> <ROCS_ColorScore>
-5.413

> <ROCS_Overlap>
1966.290

> <ROCS_Rank>
398                 

$$$$
untitled-dbase-2786_256
  -OEChem-02082415043D

 23 23  0     0  0  0  0  0  0999 V2000
    9.8444   10.7975   24.3735 C   0  0  0  0  0  0  0  0  0  0  0  0
    7.9359   11.3692   23.7716 C   0  0  0  0  0  0  0  0  0  0  0  0
    9.0974   12.1430   24.4220 C   0  0  0  0  0  0  0  0  0  0  0  0
    9.1903   14.4756   24.1186 C   0  0  0  0  0  0  0  0  0  0  0  0
    7.7977   14.7469   23.5837 C   0  0  0  0  0  0  0  0  0  0  0  0
    8.9177   10.3695   23.3069 N   0  0  0  0  0  0  0  0  0  0  0  0
    6.3231   15.6610   21.5734 N   0  0  0  0  0  0  0  0  0  0  0  0
    8.8878   15.6265   21.3779 O   0  0  0  0  0  0  0  0  0  0  0  0
    7.6095   13.4474   21.3246 O   0  0  0  0  0  0  0  0  0  0  0  0
    9.6631   13.2242   23.6553 O   0  0  0  0  0  0  0  0  0  0  0  0
    7.7756   14.8029   21.8183 S   0  0  0  0  0  0  0  0  0  0  0  0
   10.8882   10.8708   24.0509 H   0  0  0  0  0  0  0  0  0  0  0  0
    9.7927   10.1990   25.2854 H   0  0  0  0  0  0  0  0  0  0  0  0
    7.1858   10.9808   24.4636 H   0  0  0  0  0  0  0  0  0  0  0  0
    7.4322   11.9068   22.9618 H   0  0  0  0  0  0  0  0  0  0  0  0
    8.8750   12.4715   25.4489 H   0  0  0  0  0  0  0  0  0  0  0  0
    9.8881   15.2459   23.7759 H   0  0  0  0  0  0  0  0  0  0  0  0
    9.2050   14.4619   25.2127 H   0  0  0  0  0  0  0  0  0  0  0  0
    7.4114   15.7101   23.9293 H   0  0  0  0  0  0  0  0  0  0  0  0
    7.1073   13.9511   23.8770 H   0  0  0  0  0  0  0  0  0  0  0  0
    9.2606   10.5146   22.3558 H   0  0  0  0  0  0  0  0  0  0  0  0
    5.4406   15.1759   21.7771 H   0  0  0  0  0  0  0  0  0  0  0  0
    6.3114   16.6600   21.8132 H   0  0  0  0  0  0  0  0  0  0  0  0
  1  3  1  0  0  0  0
  1  6  1  0  0  0  0
  2  3  1  0  0  0  0
  2  6  1  0  0  0  0
  3 10  1  0  0  0  0
  4  5  1  0  0  0  0
  4 10  1  0  0  0  0
  5 11  1  0  0  0  0
  7 11  1  0  0  0  0
  8 11  2  0  0  0  0
  9 11  2  0  0  0  0
  1 12  1  0  0  0  0
  1 13  1  0  0  0  0
  2 14  1  0  0  0  0
  2 15  1  0  0  0  0
  3 16  1  0  0  0  0
  4 17  1  0  0  0  0
  4 18  1  0  0  0  0
  5 19  1  0  0  0  0
  5 20  1  0  0  0  0
  6 21  1  0  0  0  0
  7 22  1  0  0  0  0
  7 23  1  0  0  0  0
M  END
> <Mol Weight>
294,25

> <Formula>
C7H13F3N2O5S

> <ID>
EN300-6495032

> <name>
Sulfonamides

> <LogP>
-1,91

> <ROCS_ShapeQuery>
x0446_0A_x1080_0A_x0929_0A_x0812_0A_x0719_0A_x1140_0A_x0528_0A_x0310_0A

> <ROCS_TanimotoCombo>
0.331 

> <ROCS_ShapeTanimoto>
0.146 

> <ROCS_ColorTanimoto>
0.185 

> <ROCS_RefTversky>
0.139 

> <ROCS_RefColorTversky>
0.193 

> <ROCS_RefTverskyCombo>
0.332 

> <ROCS_FitTversky>
1.588 

> <ROCS_FitColorTversky>
0.809 

> <ROCS_FitTverskyCombo>
2.398 

> <ROCS_ColorScore>
-6.891

> <ROCS_Overlap>
1635.711

> <ROCS_Rank>
399                 

$$$$
untitled-dbase-2589_1
  -OEChem-02082415043D

 21 21  0     0  0  0  0  0  0999 V2000
    6.5111   11.8136   24.7392 C   0  0  0  0  0  0  0  0  0  0  0  0
    9.9168   12.7434   23.5252 C   0  0  0  0  0  0  0  0  0  0  0  0
   10.5612   11.5081   23.5901 C   0  0  0  0  0  0  0  0  0  0  0  0
    8.5291   10.4911   24.4108 C   0  0  0  0  0  0  0  0  0  0  0  0
    7.8847   11.7265   24.3460 C   0  0  0  0  0  0  0  0  0  0  0  0
    8.5785   12.8527   23.9032 C   0  0  0  0  0  0  0  0  0  0  0  0
    9.8674   10.3819   24.0328 C   0  0  0  0  0  0  0  0  0  0  0  0
    7.9216   14.1934   23.8219 C   0  0  0  0  0  0  0  0  0  0  0  0
    5.3975   11.8843   25.0580 N   0  0  0  0  0  0  0  0  0  0  0  0
    6.4213   15.7415   22.2716 N   0  0  0  0  0  0  0  0  0  0  0  0
    8.8276   15.1625   21.5709 O   0  0  0  0  0  0  0  0  0  0  0  0
    7.0489   13.3689   21.5010 O   0  0  0  0  0  0  0  0  0  0  0  0
    7.6302   14.5484   22.1202 S   0  0  0  0  0  0  0  0  0  0  0  0
   10.7419    8.7086   24.1212 Br  0  0  0  0  0  0  0  0  0  0  0  0
   10.4658   13.6154   23.1794 H   0  0  0  0  0  0  0  0  0  0  0  0
   11.6041   11.4401   23.2921 H   0  0  0  0  0  0  0  0  0  0  0  0
    7.9880    9.6122   24.7563 H   0  0  0  0  0  0  0  0  0  0  0  0
    8.5538   14.9877   24.2309 H   0  0  0  0  0  0  0  0  0  0  0  0
    6.9587   14.2129   24.3422 H   0  0  0  0  0  0  0  0  0  0  0  0
    6.6753   16.7108   22.0444 H   0  0  0  0  0  0  0  0  0  0  0  0
    5.4639   15.4892   21.9970 H   0  0  0  0  0  0  0  0  0  0  0  0
  1  5  1  0  0  0  0
  1  9  3  0  0  0  0
  2  3  2  0  0  0  0
  2  6  1  0  0  0  0
  3  7  1  0  0  0  0
  4  5  1  0  0  0  0
  4  7  2  0  0  0  0
  5  6  2  0  0  0  0
  6  8  1  0  0  0  0
  7 14  1  0  0  0  0
  8 13  1  0  0  0  0
 10 13  1  0  0  0  0
 11 13  2  0  0  0  0
 12 13  2  0  0  0  0
  2 15  1  0  0  0  0
  3 16  1  0  0  0  0
  4 17  1  0  0  0  0
  8 18  1  0  0  0  0
  8 19  1  0  0  0  0
 10 20  1  0  0  0  0
 10 21  1  0  0  0  0
M  END
> <Mol Weight>
275,12

> <Formula>
C8H7BrN2O2S

> <ID>
EN300-1120771

> <name>
Sulfonamides

> <LogP>
0,97

> <ROCS_ShapeQuery>
x0446_0A_x1080_0A_x0929_0A_x0812_0A_x0719_0A_x1140_0A_x0528_0A_x0310_0A

> <ROCS_TanimotoCombo>
0.331 

> <ROCS_ShapeTanimoto>
0.191 

> <ROCS_ColorTanimoto>
0.140 

> <ROCS_RefTversky>
0.177 

> <ROCS_RefColorTversky>
0.148 

> <ROCS_RefTverskyCombo>
0.325 

> <ROCS_FitTversky>
1.788 

> <ROCS_FitColorTversky>
0.699 

> <ROCS_FitTverskyCombo>
2.487 

> <ROCS_ColorScore>
-5.289

> <ROCS_Overlap>
2082.187

> <ROCS_Rank>
400                 

$$$$
untitled-dbase-1821_0
  -OEChem-02082415043D

 22 23  0     0  0  0  0  0  0999 V2000
    7.1186   10.7064   22.1382 C   0  0  0  0  0  0  0  0  0  0  0  0
    7.8311   12.8140   21.1485 C   0  0  0  0  0  0  0  0  0  0  0  0
    8.0924   10.8760   23.1049 C   0  0  0  0  0  0  0  0  0  0  0  0
    8.9216   11.9878   23.0927 C   0  0  0  0  0  0  0  0  0  0  0  0
    8.8175   12.9675   22.1245 C   0  0  0  0  0  0  0  0  0  0  0  0
    6.9862   11.6914   21.1558 C   0  0  0  0  0  0  0  0  0  0  0  0
    8.4917    9.9786   24.2107 C   0  0  0  0  0  0  0  0  0  0  0  0
    9.3794   10.9454   24.9959 C   0  0  0  0  0  0  0  0  0  0  0  0
   11.1611   13.7662   21.1375 N   0  0  0  0  0  0  0  0  0  0  0  0
    9.2114   15.4334   21.3917 O   0  0  0  0  0  0  0  0  0  0  0  0
   10.3767   14.5754   23.4541 O   0  0  0  0  0  0  0  0  0  0  0  0
    9.8424   11.9918   24.1095 O   0  0  0  0  0  0  0  0  0  0  0  0
    9.8771   14.3496   22.1035 S   0  0  0  0  0  0  0  0  0  0  0  0
    5.7686   11.5333   19.9477 Cl  0  0  0  0  0  0  0  0  0  0  0  0
    6.4750    9.8324   22.1529 H   0  0  0  0  0  0  0  0  0  0  0  0
    7.7156   13.5730   20.3773 H   0  0  0  0  0  0  0  0  0  0  0  0
    7.6147    9.6845   24.7960 H   0  0  0  0  0  0  0  0  0  0  0  0
    9.0423    9.0920   23.8867 H   0  0  0  0  0  0  0  0  0  0  0  0
    8.8403   11.3951   25.8362 H   0  0  0  0  0  0  0  0  0  0  0  0
   10.2632   10.4329   25.3971 H   0  0  0  0  0  0  0  0  0  0  0  0
   11.2614   14.1451   20.1879 H   0  0  0  0  0  0  0  0  0  0  0  0
   12.0555   13.5579   21.5979 H   0  0  0  0  0  0  0  0  0  0  0  0
  1  3  2  0  0  0  0
  1  6  1  0  0  0  0
  2  5  1  0  0  0  0
  2  6  2  0  0  0  0
  3  4  1  0  0  0  0
  3  7  1  0  0  0  0
  4  5  2  0  0  0  0
  4 12  1  0  0  0  0
  5 13  1  0  0  0  0
  6 14  1  0  0  0  0
  7  8  1  0  0  0  0
  8 12  1  0  0  0  0
  9 13  1  0  0  0  0
 10 13  2  0  0  0  0
 11 13  2  0  0  0  0
  1 15  1  0  0  0  0
  2 16  1  0  0  0  0
  7 17  1  0  0  0  0
  7 18  1  0  0  0  0
  8 19  1  0  0  0  0
  8 20  1  0  0  0  0
  9 21  1  0  0  0  0
  9 22  1  0  0  0  0
M  END
> <Mol Weight>
233,67

> <Formula>
C8H8ClNO3S

> <ID>
EN300-132673

> <name>
Sulfonamides

> <LogP>
1,07

> <ROCS_ShapeQuery>
x0446_0A_x1080_0A_x0929_0A_x0812_0A_x0719_0A_x1140_0A_x0528_0A_x0310_0A

> <ROCS_TanimotoCombo>
0.331 

> <ROCS_ShapeTanimoto>
0.151 

> <ROCS_ColorTanimoto>
0.180 

> <ROCS_RefTversky>
0.144 

> <ROCS_RefColorTversky>
0.185 

> <ROCS_RefTverskyCombo>
0.329 

> <ROCS_FitTversky>
1.424 

> <ROCS_FitColorTversky>
0.871 

> <ROCS_FitTverskyCombo>
2.295 

> <ROCS_ColorScore>
-6.606

> <ROCS_Overlap>
1698.983

> <ROCS_Rank>
401                 

$$$$
untitled-dbase-2790_13
  -OEChem-02082415043D

 22 22  0     0  0  0  0  0  0999 V2000
    7.3332   11.1678   23.7092 C   0  0  0  0  0  0  0  0  0  0  0  0
    8.0310   10.0392   24.1393 C   0  0  0  0  0  0  0  0  0  0  0  0
   10.1177   11.2266   23.8698 C   0  0  0  0  0  0  0  0  0  0  0  0
    8.0277   12.3258   23.3593 C   0  0  0  0  0  0  0  0  0  0  0  0
    9.4199   12.3552   23.4396 C   0  0  0  0  0  0  0  0  0  0  0  0
    9.4232   10.0686   24.2196 C   0  0  0  0  0  0  0  0  0  0  0  0
   12.4433   13.8232   21.2413 C   0  0  0  0  0  0  0  0  0  0  0  0
   11.1062   13.3065   21.5668 N   0  0  0  0  0  0  0  0  0  0  0  0
    7.2874   13.4598   22.9237 N   0  3  0  0  0  0  0  0  0  0  0  0
    6.9047   14.2966   23.7750 O   0  5  0  0  0  0  0  0  0  0  0  0
    7.0397   13.5882   21.7015 O   0  0  0  0  0  0  0  0  0  0  0  0
    9.3985   14.8605   22.7093 O   0  0  0  0  0  0  0  0  0  0  0  0
   11.3450   13.9854   24.0396 O   0  0  0  0  0  0  0  0  0  0  0  0
   10.3341   13.7877   23.0120 S   0  0  0  0  0  0  0  0  0  0  0  0
   10.3682    8.5399   24.8031 Br  0  0  0  0  0  0  0  0  0  0  0  0
    6.2482   11.1287   23.6497 H   0  0  0  0  0  0  0  0  0  0  0  0
    7.4748    9.1444   24.4067 H   0  0  0  0  0  0  0  0  0  0  0  0
   11.2034   11.2526   23.9315 H   0  0  0  0  0  0  0  0  0  0  0  0
   12.9680   14.0944   22.1693 H   0  0  0  0  0  0  0  0  0  0  0  0
   13.0158   13.0491   20.7093 H   0  0  0  0  0  0  0  0  0  0  0  0
   12.3468   14.7127   20.6014 H   0  0  0  0  0  0  0  0  0  0  0  0
   10.5265   13.0216   20.7679 H   0  0  0  0  0  0  0  0  0  0  0  0
  1  2  2  0  0  0  0
  1  4  1  0  0  0  0
  2  6  1  0  0  0  0
  3  5  1  0  0  0  0
  3  6  2  0  0  0  0
  4  5  2  0  0  0  0
  4  9  1  0  0  0  0
  5 14  1  0  0  0  0
  6 15  1  0  0  0  0
  7  8  1  0  0  0  0
  8 14  1  0  0  0  0
  9 10  1  0  0  0  0
  9 11  2  0  0  0  0
 12 14  2  0  0  0  0
 13 14  2  0  0  0  0
  1 16  1  0  0  0  0
  2 17  1  0  0  0  0
  3 18  1  0  0  0  0
  7 19  1  0  0  0  0
  7 20  1  0  0  0  0
  7 21  1  0  0  0  0
  8 22  1  0  0  0  0
M  CHG  2   9   1  10  -1
M  END
> <Mol Weight>
295,11

> <Formula>
C7H7BrN2O4S

> <ID>
EN300-3381784

> <name>
Sulfonamides

> <LogP>
1,51

> <ROCS_ShapeQuery>
x0446_0A_x1080_0A_x0929_0A_x0812_0A_x0719_0A_x1140_0A_x0528_0A_x0310_0A

> <ROCS_TanimotoCombo>
0.331 

> <ROCS_ShapeTanimoto>
0.194 

> <ROCS_ColorTanimoto>
0.137 

> <ROCS_RefTversky>
0.179 

> <ROCS_RefColorTversky>
0.149 

> <ROCS_RefTverskyCombo>
0.328 

> <ROCS_FitTversky>
1.738 

> <ROCS_FitColorTversky>
0.624 

> <ROCS_FitTverskyCombo>
2.362 

> <ROCS_ColorScore>
-5.320

> <ROCS_Overlap>
2115.187

> <ROCS_Rank>
402                 

$$$$
untitled-dbase-2377_37
  -OEChem-02082415043D

 30 30  0     0  0  0  0  0  0999 V2000
    9.2764   10.4753   23.1369 C   0  0  0  0  0  0  0  0  0  0  0  0
    8.1185   10.1748   23.8542 C   0  0  0  0  0  0  0  0  0  0  0  0
    7.6963   12.5338   24.1609 C   0  0  0  0  0  0  0  0  0  0  0  0
    9.6443   11.8051   22.9317 C   0  0  0  0  0  0  0  0  0  0  0  0
    7.3284   11.2040   24.3662 C   0  0  0  0  0  0  0  0  0  0  0  0
    8.8542   12.8343   23.4436 C   0  0  0  0  0  0  0  0  0  0  0  0
   13.0322   11.7806   24.1730 C   0  0  0  0  0  0  0  0  0  0  0  0
   12.4642   10.6472   23.3308 C   0  0  0  0  0  0  0  0  0  0  0  0
   11.8659   11.1330   22.0160 C   0  0  0  0  0  0  0  0  0  0  0  0
    7.9982   15.2910   24.0236 N   0  0  0  0  0  0  0  0  0  0  0  0
   10.8030   12.0789   22.2149 N   0  0  0  0  0  0  0  0  0  0  0  0
    6.1490   10.8985   25.0957 N   0  3  0  0  0  0  0  0  0  0  0  0
    5.8353    9.6960   25.2686 O   0  5  0  0  0  0  0  0  0  0  0  0
    5.4525   11.8396   25.5472 O   0  0  0  0  0  0  0  0  0  0  0  0
   10.5217   14.7739   23.9240 O   0  0  0  0  0  0  0  0  0  0  0  0
    9.1868   14.8171   21.7877 O   0  0  0  0  0  0  0  0  0  0  0  0
    9.2824   14.5159   23.2075 S   0  0  0  0  0  0  0  0  0  0  0  0
    9.8844    9.6643   22.7441 H   0  0  0  0  0  0  0  0  0  0  0  0
    7.8416    9.1344   24.0066 H   0  0  0  0  0  0  0  0  0  0  0  0
    7.0810   13.3372   24.5604 H   0  0  0  0  0  0  0  0  0  0  0  0
   13.8181   12.3162   23.6309 H   0  0  0  0  0  0  0  0  0  0  0  0
   12.2430   12.4978   24.4207 H   0  0  0  0  0  0  0  0  0  0  0  0
   13.4533   11.4079   25.1118 H   0  0  0  0  0  0  0  0  0  0  0  0
   11.6835   10.1388   23.9085 H   0  0  0  0  0  0  0  0  0  0  0  0
   13.2542    9.9123   23.1360 H   0  0  0  0  0  0  0  0  0  0  0  0
   12.6332   11.6351   21.4184 H   0  0  0  0  0  0  0  0  0  0  0  0
   11.4677   10.2997   21.4286 H   0  0  0  0  0  0  0  0  0  0  0  0
    8.2052   15.7524   24.9178 H   0  0  0  0  0  0  0  0  0  0  0  0
    7.2937   15.7796   23.4577 H   0  0  0  0  0  0  0  0  0  0  0  0
   10.8985   13.0072   21.8102 H   0  0  0  0  0  0  0  0  0  0  0  0
  1  2  2  0  0  0  0
  1  4  1  0  0  0  0
  2  5  1  0  0  0  0
  3  5  2  0  0  0  0
  3  6  1  0  0  0  0
  4  6  2  0  0  0  0
  4 11  1  0  0  0  0
  5 12  1  0  0  0  0
  6 17  1  0  0  0  0
  7  8  1  0  0  0  0
  8  9  1  0  0  0  0
  9 11  1  0  0  0  0
 10 17  1  0  0  0  0
 12 13  1  0  0  0  0
 12 14  2  0  0  0  0
 15 17  2  0  0  0  0
 16 17  2  0  0  0  0
  1 18  1  0  0  0  0
  2 19  1  0  0  0  0
  3 20  1  0  0  0  0
  7 21  1  0  0  0  0
  7 22  1  0  0  0  0
  7 23  1  0  0  0  0
  8 24  1  0  0  0  0
  8 25  1  0  0  0  0
  9 26  1  0  0  0  0
  9 27  1  0  0  0  0
 10 28  1  0  0  0  0
 10 29  1  0  0  0  0
 11 30  1  0  0  0  0
M  CHG  2  12   1  13  -1
M  END
> <Mol Weight>
259,28

> <Formula>
C9H13N3O4S

> <ID>
EN300-213344

> <name>
Sulfonamides

> <LogP>
0,87

> <ROCS_ShapeQuery>
x0446_0A_x1080_0A_x0929_0A_x0812_0A_x0719_0A_x1140_0A_x0528_0A_x0310_0A

> <ROCS_TanimotoCombo>
0.331 

> <ROCS_ShapeTanimoto>
0.202 

> <ROCS_ColorTanimoto>
0.129 

> <ROCS_RefTversky>
0.186 

> <ROCS_RefColorTversky>
0.145 

> <ROCS_RefTverskyCombo>
0.331 

> <ROCS_FitTversky>
1.686 

> <ROCS_FitColorTversky>
0.545 

> <ROCS_FitTverskyCombo>
2.231 

> <ROCS_ColorScore>
-5.169

> <ROCS_Overlap>
2199.714

> <ROCS_Rank>
403                 

$$$$
untitled-dbase-1173_1
  -OEChem-02082415043D

 23 24  0     0  0  0  0  0  0999 V2000
   11.9858   11.9808   23.7817 C   0  0  0  0  0  0  0  0  0  0  0  0
   12.0033   10.5977   24.1470 C   0  0  0  0  0  0  0  0  0  0  0  0
   10.8100   12.7058   23.5045 C   0  0  0  0  0  0  0  0  0  0  0  0
   10.8421    9.8036   24.2706 C   0  0  0  0  0  0  0  0  0  0  0  0
    9.6870   11.8986   23.6344 C   0  0  0  0  0  0  0  0  0  0  0  0
    9.6514   10.5025   23.9991 C   0  0  0  0  0  0  0  0  0  0  0  0
    8.3945   12.2937   23.4350 C   0  0  0  0  0  0  0  0  0  0  0  0
    6.2161   11.0554   23.6007 C   0  0  0  0  0  0  0  0  0  0  0  0
    8.3732   10.0849   24.0149 N   0  0  0  0  0  0  0  0  0  0  0  0
    7.6547   11.1728   23.6754 N   0  0  0  0  0  0  0  0  0  0  0  0
    9.0526   14.8029   22.8219 N   0  0  0  0  0  0  0  0  0  0  0  0
    7.0513   13.6562   21.6708 O   0  0  0  0  0  0  0  0  0  0  0  0
    6.8729   14.3005   24.0999 O   0  0  0  0  0  0  0  0  0  0  0  0
    7.6595   13.8319   22.9754 S   0  0  0  0  0  0  0  0  0  0  0  0
   12.9407   12.5017   23.7159 H   0  0  0  0  0  0  0  0  0  0  0  0
   12.9696   10.1331   24.3411 H   0  0  0  0  0  0  0  0  0  0  0  0
   10.8154   13.7513   23.2304 H   0  0  0  0  0  0  0  0  0  0  0  0
   10.8776    8.7585   24.5486 H   0  0  0  0  0  0  0  0  0  0  0  0
    5.9540   10.7644   22.5801 H   0  0  0  0  0  0  0  0  0  0  0  0
    5.8750   10.2993   24.3134 H   0  0  0  0  0  0  0  0  0  0  0  0
    5.7614   12.0172   23.8539 H   0  0  0  0  0  0  0  0  0  0  0  0
    9.3378   15.0848   21.8761 H   0  0  0  0  0  0  0  0  0  0  0  0
    9.2156   15.5227   23.5365 H   0  0  0  0  0  0  0  0  0  0  0  0
  1  2  1  0  0  0  0
  1  3  2  0  0  0  0
  2  4  2  0  0  0  0
  3  5  1  0  0  0  0
  4  6  1  0  0  0  0
  5  6  1  0  0  0  0
  5  7  2  0  0  0  0
  6  9  2  0  0  0  0
  7 10  1  0  0  0  0
  7 14  1  0  0  0  0
  8 10  1  0  0  0  0
  9 10  1  0  0  0  0
 11 14  1  0  0  0  0
 12 14  2  0  0  0  0
 13 14  2  0  0  0  0
  1 15  1  0  0  0  0
  2 16  1  0  0  0  0
  3 17  1  0  0  0  0
  4 18  1  0  0  0  0
  8 19  1  0  0  0  0
  8 20  1  0  0  0  0
  8 21  1  0  0  0  0
 11 22  1  0  0  0  0
 11 23  1  0  0  0  0
M  END
> <Mol Weight>
211,24

> <Formula>
C8H9N3O2S

> <ID>
EN300-1987745

> <name>
Sulfonamides

> <LogP>
0,47

> <ROCS_ShapeQuery>
x0446_0A_x1080_0A_x0929_0A_x0812_0A_x0719_0A_x1140_0A_x0528_0A_x0310_0A

> <ROCS_TanimotoCombo>
0.331 

> <ROCS_ShapeTanimoto>
0.191 

> <ROCS_ColorTanimoto>
0.140 

> <ROCS_RefTversky>
0.177 

> <ROCS_RefColorTversky>
0.149 

> <ROCS_RefTverskyCombo>
0.326 

> <ROCS_FitTversky>
1.725 

> <ROCS_FitColorTversky>
0.699 

> <ROCS_FitTverskyCombo>
2.424 

> <ROCS_ColorScore>
-5.303

> <ROCS_Overlap>
2084.730

> <ROCS_Rank>
404                 

$$$$
untitled-dbase-1153_14
  -OEChem-02082415043D

 24 24  0     0  0  0  0  0  0999 V2000
    6.4338   11.6469   25.0243 C   0  0  0  0  0  0  0  0  0  0  0  0
    8.2353   10.0704   24.5261 C   0  0  0  0  0  0  0  0  0  0  0  0
    9.3954    9.7353   23.8279 C   0  0  0  0  0  0  0  0  0  0  0  0
    8.1710   12.2045   23.3954 C   0  0  0  0  0  0  0  0  0  0  0  0
    7.6231   11.3049   24.3099 C   0  0  0  0  0  0  0  0  0  0  0  0
    9.9434   10.6349   22.9135 C   0  0  0  0  0  0  0  0  0  0  0  0
    9.3312   11.8695   22.6972 C   0  0  0  0  0  0  0  0  0  0  0  0
   11.1861   10.2509   22.1785 C   0  0  0  0  0  0  0  0  0  0  0  0
   11.7753   14.7035   21.7573 C   0  0  0  0  0  0  0  0  0  0  0  0
    5.4679   11.9246   25.6046 N   0  0  0  0  0  0  0  0  0  0  0  0
    9.8770   12.8043   21.7628 N   0  0  0  0  0  0  0  0  0  0  0  0
    9.2581   15.2871   21.4563 O   0  0  0  0  0  0  0  0  0  0  0  0
   10.0560   14.5303   23.7225 O   0  0  0  0  0  0  0  0  0  0  0  0
   10.0957   14.4323   22.2769 S   0  0  0  0  0  0  0  0  0  0  0  0
    7.8194    9.3582   25.2348 H   0  0  0  0  0  0  0  0  0  0  0  0
    9.8642    8.7706   24.0031 H   0  0  0  0  0  0  0  0  0  0  0  0
    7.6972   13.1693   23.2245 H   0  0  0  0  0  0  0  0  0  0  0  0
   10.9310    9.7398   21.2432 H   0  0  0  0  0  0  0  0  0  0  0  0
   11.7941   11.1323   21.9413 H   0  0  0  0  0  0  0  0  0  0  0  0
   11.8129    9.5834   22.7826 H   0  0  0  0  0  0  0  0  0  0  0  0
   12.0583   15.7226   22.0253 H   0  0  0  0  0  0  0  0  0  0  0  0
   12.4146   13.9821   22.2685 H   0  0  0  0  0  0  0  0  0  0  0  0
   11.8282   14.5635   20.6767 H   0  0  0  0  0  0  0  0  0  0  0  0
    9.5155   12.6998   20.8013 H   0  0  0  0  0  0  0  0  0  0  0  0
  1  5  1  0  0  0  0
  1 10  3  0  0  0  0
  2  3  2  0  0  0  0
  2  5  1  0  0  0  0
  3  6  1  0  0  0  0
  4  5  2  0  0  0  0
  4  7  1  0  0  0  0
  6  7  2  0  0  0  0
  6  8  1  0  0  0  0
  7 11  1  0  0  0  0
  9 14  1  0  0  0  0
 11 14  1  0  0  0  0
 12 14  2  0  0  0  0
 13 14  2  0  0  0  0
  2 15  1  0  0  0  0
  3 16  1  0  0  0  0
  4 17  1  0  0  0  0
  8 18  1  0  0  0  0
  8 19  1  0  0  0  0
  8 20  1  0  0  0  0
  9 21  1  0  0  0  0
  9 22  1  0  0  0  0
  9 23  1  0  0  0  0
 11 24  1  0  0  0  0
M  END
> <Mol Weight>
210,25

> <Formula>
C9H10N2O2S

> <ID>
EN300-1654854

> <name>
Sulfonamides

> <LogP>
0,72

> <ROCS_ShapeQuery>
x0446_0A_x1080_0A_x0929_0A_x0812_0A_x0719_0A_x1140_0A_x0528_0A_x0310_0A

> <ROCS_TanimotoCombo>
0.331 

> <ROCS_ShapeTanimoto>
0.193 

> <ROCS_ColorTanimoto>
0.138 

> <ROCS_RefTversky>
0.178 

> <ROCS_RefColorTversky>
0.144 

> <ROCS_RefTverskyCombo>
0.321 

> <ROCS_FitTversky>
1.787 

> <ROCS_FitColorTversky>
0.772 

> <ROCS_FitTverskyCombo>
2.559 

> <ROCS_ColorScore>
-5.108

> <ROCS_Overlap>
2098.390

> <ROCS_Rank>
405                 

$$$$
untitled-dbase-747_3
  -OEChem-02082415043D

 21 22  0     0  0  0  0  0  0999 V2000
    7.8985    9.9464   25.1382 C   0  0  0  0  0  0  0  0  0  0  0  0
    8.6204    9.2354   24.1816 C   0  0  0  0  0  0  0  0  0  0  0  0
    7.9264   11.3455   25.1628 C   0  0  0  0  0  0  0  0  0  0  0  0
    9.3913    9.8971   23.2215 C   0  0  0  0  0  0  0  0  0  0  0  0
    8.9502   13.4093   23.9393 C   0  0  0  0  0  0  0  0  0  0  0  0
    8.6966   12.0345   24.2049 C   0  0  0  0  0  0  0  0  0  0  0  0
    9.4098   11.2959   23.2583 C   0  0  0  0  0  0  0  0  0  0  0  0
    9.7968   13.4775   22.8570 C   0  0  0  0  0  0  0  0  0  0  0  0
   10.0682   12.1978   22.4531 N   0  0  0  0  0  0  0  0  0  0  0  0
   11.4104   14.0471   20.8132 N   0  0  0  0  0  0  0  0  0  0  0  0
    9.4218   15.5868   21.3793 O   0  0  0  0  0  0  0  0  0  0  0  0
   11.4097   15.5215   22.9258 O   0  0  0  0  0  0  0  0  0  0  0  0
   10.5045   14.8569   22.0090 S   0  0  0  0  0  0  0  0  0  0  0  0
    7.3063    9.4096   25.8746 H   0  0  0  0  0  0  0  0  0  0  0  0
    8.5847    8.1489   24.1811 H   0  0  0  0  0  0  0  0  0  0  0  0
    7.3588   11.8872   25.9140 H   0  0  0  0  0  0  0  0  0  0  0  0
    9.9534    9.3426   22.4775 H   0  0  0  0  0  0  0  0  0  0  0  0
    8.5554   14.2569   24.4827 H   0  0  0  0  0  0  0  0  0  0  0  0
   10.6650   11.9480   21.6765 H   0  0  0  0  0  0  0  0  0  0  0  0
   11.0769   14.0997   19.8429 H   0  0  0  0  0  0  0  0  0  0  0  0
   12.4338   14.0544   20.9014 H   0  0  0  0  0  0  0  0  0  0  0  0
  1  2  1  0  0  0  0
  1  3  2  0  0  0  0
  2  4  2  0  0  0  0
  3  6  1  0  0  0  0
  4  7  1  0  0  0  0
  5  6  1  0  0  0  0
  5  8  2  0  0  0  0
  6  7  2  0  0  0  0
  7  9  1  0  0  0  0
  8  9  1  0  0  0  0
  8 13  1  0  0  0  0
 10 13  1  0  0  0  0
 11 13  2  0  0  0  0
 12 13  2  0  0  0  0
  1 14  1  0  0  0  0
  2 15  1  0  0  0  0
  3 16  1  0  0  0  0
  4 17  1  0  0  0  0
  5 18  1  0  0  0  0
  9 19  1  0  0  0  0
 10 20  1  0  0  0  0
 10 21  1  0  0  0  0
M  END
> <Mol Weight>
196,22

> <Formula>
C8H8N2O2S

> <ID>
EN300-1989103

> <name>
Sulfonamides

> <LogP>
0,77

> <ROCS_ShapeQuery>
x0446_0A_x1080_0A_x0929_0A_x0812_0A_x0719_0A_x1140_0A_x0528_0A_x0310_0A

> <ROCS_TanimotoCombo>
0.331 

> <ROCS_ShapeTanimoto>
0.190 

> <ROCS_ColorTanimoto>
0.141 

> <ROCS_RefTversky>
0.176 

> <ROCS_RefColorTversky>
0.150 

> <ROCS_RefTverskyCombo>
0.325 

> <ROCS_FitTversky>
1.782 

> <ROCS_FitColorTversky>
0.703 

> <ROCS_FitTverskyCombo>
2.485 

> <ROCS_ColorScore>
-5.329

> <ROCS_Overlap>
2069.454

> <ROCS_Rank>
406                 

$$$$
untitled-dbase-577_11
  -OEChem-02082415043D

 24 24  0     0  0  0  0  0  0999 V2000
    7.6412   13.5974   23.7711 C   0  0  0  0  0  0  0  0  0  0  0  0
    9.4818   10.3353   24.3053 C   0  0  0  0  0  0  0  0  0  0  0  0
    8.3038    9.8871   23.4406 C   0  0  0  0  0  0  0  0  0  0  0  0
    9.2750   11.8269   24.5677 C   0  0  0  0  0  0  0  0  0  0  0  0
    7.4395   11.1287   23.2207 C   0  0  0  0  0  0  0  0  0  0  0  0
    8.3915   12.3153   23.4134 C   0  0  0  0  0  0  0  0  0  0  0  0
    9.1977   12.5456   22.1953 C   0  0  0  0  0  0  0  0  0  0  0  0
    7.0715   14.5710   24.0428 N   0  0  0  0  0  0  0  0  0  0  0  0
   11.1826   13.9147   21.0830 N   0  0  0  0  0  0  0  0  0  0  0  0
    8.9701   15.0930   21.6604 O   0  0  0  0  0  0  0  0  0  0  0  0
   10.5144   14.3693   23.5251 O   0  0  0  0  0  0  0  0  0  0  0  0
    9.9257   14.1454   22.2135 S   0  0  0  0  0  0  0  0  0  0  0  0
    9.4876    9.7758   25.2479 H   0  0  0  0  0  0  0  0  0  0  0  0
   10.4410   10.1505   23.8108 H   0  0  0  0  0  0  0  0  0  0  0  0
    8.6375    9.4634   22.4877 H   0  0  0  0  0  0  0  0  0  0  0  0
    7.7334    9.1093   23.9616 H   0  0  0  0  0  0  0  0  0  0  0  0
    8.8383   12.0044   25.5567 H   0  0  0  0  0  0  0  0  0  0  0  0
   10.2511   12.3284   24.5436 H   0  0  0  0  0  0  0  0  0  0  0  0
    7.0493   11.1106   22.1948 H   0  0  0  0  0  0  0  0  0  0  0  0
    6.5801   11.1449   23.9002 H   0  0  0  0  0  0  0  0  0  0  0  0
    8.5691   12.4765   21.3100 H   0  0  0  0  0  0  0  0  0  0  0  0
   10.0015   11.8152   22.1330 H   0  0  0  0  0  0  0  0  0  0  0  0
   11.9741   13.3229   21.3638 H   0  0  0  0  0  0  0  0  0  0  0  0
   10.9223   13.8160   20.0940 H   0  0  0  0  0  0  0  0  0  0  0  0
  1  6  1  0  0  0  0
  1  8  3  0  0  0  0
  2  3  1  0  0  0  0
  2  4  1  0  0  0  0
  3  5  1  0  0  0  0
  4  6  1  0  0  0  0
  5  6  1  0  0  0  0
  6  7  1  0  0  0  0
  7 12  1  0  0  0  0
  9 12  1  0  0  0  0
 10 12  2  0  0  0  0
 11 12  2  0  0  0  0
  2 13  1  0  0  0  0
  2 14  1  0  0  0  0
  3 15  1  0  0  0  0
  3 16  1  0  0  0  0
  4 17  1  0  0  0  0
  4 18  1  0  0  0  0
  5 19  1  0  0  0  0
  5 20  1  0  0  0  0
  7 21  1  0  0  0  0
  7 22  1  0  0  0  0
  9 23  1  0  0  0  0
  9 24  1  0  0  0  0
M  END
> <Mol Weight>
188,25

> <Formula>
C7H12N2O2S

> <ID>
EN300-125023

> <name>
Sulfonamides

> <LogP>
-0,09

> <ROCS_ShapeQuery>
x0446_0A_x1080_0A_x0929_0A_x0812_0A_x0719_0A_x1140_0A_x0528_0A_x0310_0A

> <ROCS_TanimotoCombo>
0.331 

> <ROCS_ShapeTanimoto>
0.169 

> <ROCS_ColorTanimoto>
0.162 

> <ROCS_RefTversky>
0.158 

> <ROCS_RefColorTversky>
0.165 

> <ROCS_RefTverskyCombo>
0.323 

> <ROCS_FitTversky>
1.720 

> <ROCS_FitColorTversky>
0.889 

> <ROCS_FitTverskyCombo>
2.608 

> <ROCS_ColorScore>
-5.878

> <ROCS_Overlap>
1859.373

> <ROCS_Rank>
407                 

$$$$
untitled-dbase-1523_1
  -OEChem-02082415043D

 25 26  0     0  0  0  0  0  0999 V2000
    8.9875   10.0174   24.9404 C   0  0  0  0  0  0  0  0  0  0  0  0
    8.0284    9.9415   23.9407 C   0  0  0  0  0  0  0  0  0  0  0  0
    6.9291   11.9046   20.9815 C   0  0  0  0  0  0  0  0  0  0  0  0
    7.8274   12.9627   21.0444 C   0  0  0  0  0  0  0  0  0  0  0  0
    9.8389   11.1035   24.9267 C   0  0  0  0  0  0  0  0  0  0  0  0
    7.9473   10.9434   22.9642 C   0  0  0  0  0  0  0  0  0  0  0  0
    6.9876   10.8959   21.9388 C   0  0  0  0  0  0  0  0  0  0  0  0
    8.8624   12.0148   23.0344 C   0  0  0  0  0  0  0  0  0  0  0  0
    8.7815   13.0097   22.0639 C   0  0  0  0  0  0  0  0  0  0  0  0
    5.9982    9.7782   21.8271 C   0  0  0  0  0  0  0  0  0  0  0  0
    9.7942   12.0910   24.0033 N   0  0  0  0  0  0  0  0  0  0  0  0
   11.1597   13.7645   21.1264 N   0  0  0  0  0  0  0  0  0  0  0  0
    9.2526   15.4789   21.3901 O   0  0  0  0  0  0  0  0  0  0  0  0
   10.3648   14.5455   23.4491 O   0  0  0  0  0  0  0  0  0  0  0  0
    9.8871   14.3730   22.0875 S   0  0  0  0  0  0  0  0  0  0  0  0
    9.0645    9.2517   25.7034 H   0  0  0  0  0  0  0  0  0  0  0  0
    7.3523    9.0903   23.9416 H   0  0  0  0  0  0  0  0  0  0  0  0
    6.1899   11.8748   20.1857 H   0  0  0  0  0  0  0  0  0  0  0  0
    7.7782   13.7481   20.2949 H   0  0  0  0  0  0  0  0  0  0  0  0
   10.6086   11.2162   25.6832 H   0  0  0  0  0  0  0  0  0  0  0  0
    6.4075    8.9737   21.2072 H   0  0  0  0  0  0  0  0  0  0  0  0
    5.7513    9.3717   22.8142 H   0  0  0  0  0  0  0  0  0  0  0  0
    5.0609   10.1266   21.3787 H   0  0  0  0  0  0  0  0  0  0  0  0
   11.2837   14.1607   20.1867 H   0  0  0  0  0  0  0  0  0  0  0  0
   12.0415   13.5220   21.5943 H   0  0  0  0  0  0  0  0  0  0  0  0
  1  2  2  0  0  0  0
  1  5  1  0  0  0  0
  2  6  1  0  0  0  0
  3  4  2  0  0  0  0
  3  7  1  0  0  0  0
  4  9  1  0  0  0  0
  5 11  2  0  0  0  0
  6  7  2  0  0  0  0
  6  8  1  0  0  0  0
  7 10  1  0  0  0  0
  8  9  2  0  0  0  0
  8 11  1  0  0  0  0
  9 15  1  0  0  0  0
 12 15  1  0  0  0  0
 13 15  2  0  0  0  0
 14 15  2  0  0  0  0
  1 16  1  0  0  0  0
  2 17  1  0  0  0  0
  3 18  1  0  0  0  0
  4 19  1  0  0  0  0
  5 20  1  0  0  0  0
 10 21  1  0  0  0  0
 10 22  1  0  0  0  0
 10 23  1  0  0  0  0
 12 24  1  0  0  0  0
 12 25  1  0  0  0  0
M  END
> <Mol Weight>
222,26

> <Formula>
C10H10N2O2S

> <ID>
EN300-6738314

> <name>
Sulfonamides

> <LogP>
1,25

> <ROCS_ShapeQuery>
x0446_0A_x1080_0A_x0929_0A_x0812_0A_x0719_0A_x1140_0A_x0528_0A_x0310_0A

> <ROCS_TanimotoCombo>
0.331 

> <ROCS_ShapeTanimoto>
0.154 

> <ROCS_ColorTanimoto>
0.177 

> <ROCS_RefTversky>
0.147 

> <ROCS_RefColorTversky>
0.182 

> <ROCS_RefTverskyCombo>
0.330 

> <ROCS_FitTversky>
1.393 

> <ROCS_FitColorTversky>
0.858 

> <ROCS_FitTverskyCombo>
2.250 

> <ROCS_ColorScore>
-6.491

> <ROCS_Overlap>
1738.995

> <ROCS_Rank>
408                 

$$$$
untitled-dbase-2033_0
  -OEChem-02082415043D

 23 24  0     0  0  0  0  0  0999 V2000
    5.8019   13.0620   24.6466 C   0  0  0  0  0  0  0  0  0  0  0  0
    9.7517   10.2414   24.3075 C   0  0  0  0  0  0  0  0  0  0  0  0
    6.5839   12.0152   25.1354 C   0  0  0  0  0  0  0  0  0  0  0  0
    8.5729   10.5948   24.9647 C   0  0  0  0  0  0  0  0  0  0  0  0
    6.1971   13.7528   23.5049 C   0  0  0  0  0  0  0  0  0  0  0  0
   10.1470   10.9322   23.1658 C   0  0  0  0  0  0  0  0  0  0  0  0
    7.7735   11.6459   24.4867 C   0  0  0  0  0  0  0  0  0  0  0  0
    8.1754   12.3483   23.3257 C   0  0  0  0  0  0  0  0  0  0  0  0
    7.3760   13.3994   22.8477 C   0  0  0  0  0  0  0  0  0  0  0  0
    9.3650   11.9790   22.6769 C   0  0  0  0  0  0  0  0  0  0  0  0
    6.2836   15.4338   21.5163 N   0  0  0  0  0  0  0  0  0  0  0  0
    8.8457   15.2080   21.6892 O   0  0  0  0  0  0  0  0  0  0  0  0
    7.5589   13.5839   20.2560 O   0  0  0  0  0  0  0  0  0  0  0  0
    7.6528   14.4191   21.4398 S   0  0  0  0  0  0  0  0  0  0  0  0
   10.0633   12.6811   21.2495 Cl  0  0  0  0  0  0  0  0  0  0  0  0
    4.8836   13.3368   25.1575 H   0  0  0  0  0  0  0  0  0  0  0  0
   10.3609    9.4269   24.6884 H   0  0  0  0  0  0  0  0  0  0  0  0
    6.2558   11.4890   26.0295 H   0  0  0  0  0  0  0  0  0  0  0  0
    8.2845   10.0418   25.8563 H   0  0  0  0  0  0  0  0  0  0  0  0
    5.5688   14.5643   23.1453 H   0  0  0  0  0  0  0  0  0  0  0  0
   11.0716   10.6327   22.6773 H   0  0  0  0  0  0  0  0  0  0  0  0
    6.4277   16.4140   21.7880 H   0  0  0  0  0  0  0  0  0  0  0  0
    5.5492   15.3024   20.8101 H   0  0  0  0  0  0  0  0  0  0  0  0
  1  3  1  0  0  0  0
  1  5  2  0  0  0  0
  2  4  2  0  0  0  0
  2  6  1  0  0  0  0
  3  7  2  0  0  0  0
  4  7  1  0  0  0  0
  5  9  1  0  0  0  0
  6 10  2  0  0  0  0
  7  8  1  0  0  0  0
  8  9  2  0  0  0  0
  8 10  1  0  0  0  0
  9 14  1  0  0  0  0
 10 15  1  0  0  0  0
 11 14  1  0  0  0  0
 12 14  2  0  0  0  0
 13 14  2  0  0  0  0
  1 16  1  0  0  0  0
  2 17  1  0  0  0  0
  3 18  1  0  0  0  0
  4 19  1  0  0  0  0
  5 20  1  0  0  0  0
  6 21  1  0  0  0  0
 11 22  1  0  0  0  0
 11 23  1  0  0  0  0
M  END
> <Mol Weight>
241,69

> <Formula>
C10H8ClNO2S

> <ID>
EN300-9467750

> <name>
Sulfonamides

> <LogP>
2,17

> <ROCS_ShapeQuery>
x0446_0A_x1080_0A_x0929_0A_x0812_0A_x0719_0A_x1140_0A_x0528_0A_x0310_0A

> <ROCS_TanimotoCombo>
0.331 

> <ROCS_ShapeTanimoto>
0.191 

> <ROCS_ColorTanimoto>
0.139 

> <ROCS_RefTversky>
0.178 

> <ROCS_RefColorTversky>
0.145 

> <ROCS_RefTverskyCombo>
0.322 

> <ROCS_FitTversky>
1.690 

> <ROCS_FitColorTversky>
0.779 

> <ROCS_FitTverskyCombo>
2.469 

> <ROCS_ColorScore>
-5.156

> <ROCS_Overlap>
2094.381

> <ROCS_Rank>
409                 

$$$$
untitled-dbase-1122_1
  -OEChem-02082415043D

 22 23  0     0  0  0  0  0  0999 V2000
    6.9293   11.9039   20.9811 C   0  0  0  0  0  0  0  0  0  0  0  0
    8.9878   10.0169   24.9400 C   0  0  0  0  0  0  0  0  0  0  0  0
    6.9879   10.8952   21.9384 C   0  0  0  0  0  0  0  0  0  0  0  0
    8.0288    9.9409   23.9402 C   0  0  0  0  0  0  0  0  0  0  0  0
    7.8274   12.9621   21.0441 C   0  0  0  0  0  0  0  0  0  0  0  0
    9.8391   11.1032   24.9264 C   0  0  0  0  0  0  0  0  0  0  0  0
    7.9476   10.9429   22.9637 C   0  0  0  0  0  0  0  0  0  0  0  0
    8.8624   12.0143   23.0340 C   0  0  0  0  0  0  0  0  0  0  0  0
    8.7814   13.0093   22.0636 C   0  0  0  0  0  0  0  0  0  0  0  0
    9.7942   12.0907   24.0030 N   0  0  0  0  0  0  0  0  0  0  0  0
   11.1596   13.7652   21.1268 N   0  0  0  0  0  0  0  0  0  0  0  0
    9.2521   15.4789   21.3909 O   0  0  0  0  0  0  0  0  0  0  0  0
   10.3641   14.5449   23.4497 O   0  0  0  0  0  0  0  0  0  0  0  0
    9.8867   14.3729   22.0879 S   0  0  0  0  0  0  0  0  0  0  0  0
    6.1869   11.8625   20.1903 H   0  0  0  0  0  0  0  0  0  0  0  0
    9.0650    9.2510   25.7025 H   0  0  0  0  0  0  0  0  0  0  0  0
    6.2809   10.0707   21.8804 H   0  0  0  0  0  0  0  0  0  0  0  0
    7.3450    9.0951   23.9269 H   0  0  0  0  0  0  0  0  0  0  0  0
    7.7787   13.7474   20.2943 H   0  0  0  0  0  0  0  0  0  0  0  0
   10.6088   11.2159   25.6827 H   0  0  0  0  0  0  0  0  0  0  0  0
   11.2837   14.1618   20.1872 H   0  0  0  0  0  0  0  0  0  0  0  0
   12.0414   13.5226   21.5947 H   0  0  0  0  0  0  0  0  0  0  0  0
  1  3  1  0  0  0  0
  1  5  2  0  0  0  0
  2  4  2  0  0  0  0
  2  6  1  0  0  0  0
  3  7  2  0  0  0  0
  4  7  1  0  0  0  0
  5  9  1  0  0  0  0
  6 10  2  0  0  0  0
  7  8  1  0  0  0  0
  8  9  2  0  0  0  0
  8 10  1  0  0  0  0
  9 14  1  0  0  0  0
 11 14  1  0  0  0  0
 12 14  2  0  0  0  0
 13 14  2  0  0  0  0
  1 15  1  0  0  0  0
  2 16  1  0  0  0  0
  3 17  1  0  0  0  0
  4 18  1  0  0  0  0
  5 19  1  0  0  0  0
  6 20  1  0  0  0  0
 11 21  1  0  0  0  0
 11 22  1  0  0  0  0
M  END
> <Mol Weight>
208,24

> <Formula>
C9H8N2O2S

> <ID>
EN300-77791

> <name>
Sulfonamides

> <LogP>
0,74

> <ROCS_ShapeQuery>
x0446_0A_x1080_0A_x0929_0A_x0812_0A_x0719_0A_x1140_0A_x0528_0A_x0310_0A

> <ROCS_TanimotoCombo>
0.331 

> <ROCS_ShapeTanimoto>
0.154 

> <ROCS_ColorTanimoto>
0.177 

> <ROCS_RefTversky>
0.147 

> <ROCS_RefColorTversky>
0.182 

> <ROCS_RefTverskyCombo>
0.329 

> <ROCS_FitTversky>
1.435 

> <ROCS_FitColorTversky>
0.858 

> <ROCS_FitTverskyCombo>
2.292 

> <ROCS_ColorScore>
-6.491

> <ROCS_Overlap>
1732.411

> <ROCS_Rank>
410                 

$$$$
untitled-dbase-899_44
  -OEChem-02082415043D

 24 24  0     0  0  0  0  0  0999 V2000
    8.9289    9.8545   24.1361 C   0  0  0  0  0  0  0  0  0  0  0  0
    9.8869   10.5207   23.3719 C   0  0  0  0  0  0  0  0  0  0  0  0
    7.8991   10.5725   24.7441 C   0  0  0  0  0  0  0  0  0  0  0  0
    9.8153   11.9049   23.2158 C   0  0  0  0  0  0  0  0  0  0  0  0
    7.8274   11.9568   24.5880 C   0  0  0  0  0  0  0  0  0  0  0  0
    8.7855   12.6230   23.8239 C   0  0  0  0  0  0  0  0  0  0  0  0
    6.9356   15.8561   22.8179 C   0  0  0  0  0  0  0  0  0  0  0  0
    6.7146   12.7020   25.2503 C   0  0  0  0  0  0  0  0  0  0  0  0
    8.7302   14.0414   23.6526 N   0  0  0  0  0  0  0  0  0  0  0  0
    9.1294   15.3970   21.4974 O   0  0  0  0  0  0  0  0  0  0  0  0
    7.3243   13.6402   21.4815 O   0  0  0  0  0  0  0  0  0  0  0  0
    5.5741   11.8586   25.3425 O   0  0  0  0  0  0  0  0  0  0  0  0
    8.0847   14.6571   22.1805 S   0  0  0  0  0  0  0  0  0  0  0  0
    8.9856    8.7768   24.2589 H   0  0  0  0  0  0  0  0  0  0  0  0
   10.6894    9.9616   22.8995 H   0  0  0  0  0  0  0  0  0  0  0  0
    7.1581   10.0444   25.3385 H   0  0  0  0  0  0  0  0  0  0  0  0
   10.5693   12.4133   22.6202 H   0  0  0  0  0  0  0  0  0  0  0  0
    6.4389   16.3391   21.9750 H   0  0  0  0  0  0  0  0  0  0  0  0
    6.2084   15.3372   23.4442 H   0  0  0  0  0  0  0  0  0  0  0  0
    7.4923   16.5885   23.4046 H   0  0  0  0  0  0  0  0  0  0  0  0
    6.9974   13.0246   26.2607 H   0  0  0  0  0  0  0  0  0  0  0  0
    6.4467   13.5999   24.6788 H   0  0  0  0  0  0  0  0  0  0  0  0
    9.5637   14.5416   24.0012 H   0  0  0  0  0  0  0  0  0  0  0  0
    4.8770   12.3768   25.7762 H   0  0  0  0  0  0  0  0  0  0  0  0
  1  2  1  0  0  0  0
  1  3  2  0  0  0  0
  2  4  2  0  0  0  0
  3  5  1  0  0  0  0
  4  6  1  0  0  0  0
  5  6  2  0  0  0  0
  5  8  1  0  0  0  0
  6  9  1  0  0  0  0
  7 13  1  0  0  0  0
  8 12  1  0  0  0  0
  9 13  1  0  0  0  0
 10 13  2  0  0  0  0
 11 13  2  0  0  0  0
  1 14  1  0  0  0  0
  2 15  1  0  0  0  0
  3 16  1  0  0  0  0
  4 17  1  0  0  0  0
  7 18  1  0  0  0  0
  7 19  1  0  0  0  0
  7 20  1  0  0  0  0
  8 21  1  0  0  0  0
  8 22  1  0  0  0  0
  9 23  1  0  0  0  0
 12 24  1  0  0  0  0
M  END
> <Mol Weight>
201,24

> <Formula>
C8H11NO3S

> <ID>
EN300-8058703

> <name>
Sulfonamides

> <LogP>
-0,42

> <ROCS_ShapeQuery>
x0446_0A_x1080_0A_x0929_0A_x0812_0A_x0719_0A_x1140_0A_x0528_0A_x0310_0A

> <ROCS_TanimotoCombo>
0.330 

> <ROCS_ShapeTanimoto>
0.188 

> <ROCS_ColorTanimoto>
0.142 

> <ROCS_RefTversky>
0.174 

> <ROCS_RefColorTversky>
0.151 

> <ROCS_RefTverskyCombo>
0.325 

> <ROCS_FitTversky>
1.806 

> <ROCS_FitColorTversky>
0.711 

> <ROCS_FitTverskyCombo>
2.517 

> <ROCS_ColorScore>
-5.379

> <ROCS_Overlap>
2047.156

> <ROCS_Rank>
411                 

$$$$
untitled-dbase-2796_17
  -OEChem-02082415043D

 25 25  0     0  0  0  0  0  0999 V2000
    7.8819   11.7217   24.2251 C   0  0  0  0  0  0  0  0  0  0  0  0
    9.9526   11.7720   22.3563 C   0  0  0  0  0  0  0  0  0  0  0  0
    8.3725   12.9419   23.7605 C   0  0  0  0  0  0  0  0  0  0  0  0
    8.4266   10.5265   23.7553 C   0  0  0  0  0  0  0  0  0  0  0  0
    9.4078   12.9671   22.8261 C   0  0  0  0  0  0  0  0  0  0  0  0
    9.4619   10.5517   22.8209 C   0  0  0  0  0  0  0  0  0  0  0  0
    6.7148   14.6293   23.5143 C   0  0  0  0  0  0  0  0  0  0  0  0
    6.8355    8.7760   23.5108 C   0  0  0  0  0  0  0  0  0  0  0  0
   11.2451   13.9302   21.1523 N   0  0  0  0  0  0  0  0  0  0  0  0
    8.9935   15.1460   21.4644 O   0  0  0  0  0  0  0  0  0  0  0  0
   10.6829   15.1811   23.3332 O   0  0  0  0  0  0  0  0  0  0  0  0
    7.8257   14.0971   24.2330 O   0  0  0  0  0  0  0  0  0  0  0  0
    7.9247    9.3510   24.2291 O   0  0  0  0  0  0  0  0  0  0  0  0
   10.0404   14.4846   22.2287 S   0  0  0  0  0  0  0  0  0  0  0  0
   10.2260    8.9478   22.1605 Br  0  0  0  0  0  0  0  0  0  0  0  0
    7.0748   11.7024   24.9534 H   0  0  0  0  0  0  0  0  0  0  0  0
   10.7597   11.7983   21.6276 H   0  0  0  0  0  0  0  0  0  0  0  0
    6.3755   15.5497   23.9958 H   0  0  0  0  0  0  0  0  0  0  0  0
    5.9055   13.8949   23.4967 H   0  0  0  0  0  0  0  0  0  0  0  0
    7.0264   14.8498   22.4906 H   0  0  0  0  0  0  0  0  0  0  0  0
    6.5318    7.8436   23.9929 H   0  0  0  0  0  0  0  0  0  0  0  0
    7.1398    8.5829   22.4790 H   0  0  0  0  0  0  0  0  0  0  0  0
    5.9969    9.4763   23.5162 H   0  0  0  0  0  0  0  0  0  0  0  0
   11.0752   14.0344   20.1445 H   0  0  0  0  0  0  0  0  0  0  0  0
   12.2280   14.0573   21.4229 H   0  0  0  0  0  0  0  0  0  0  0  0
  1  3  2  0  0  0  0
  1  4  1  0  0  0  0
  2  5  2  0  0  0  0
  2  6  1  0  0  0  0
  3  5  1  0  0  0  0
  3 12  1  0  0  0  0
  4  6  2  0  0  0  0
  4 13  1  0  0  0  0
  5 14  1  0  0  0  0
  6 15  1  0  0  0  0
  7 12  1  0  0  0  0
  8 13  1  0  0  0  0
  9 14  1  0  0  0  0
 10 14  2  0  0  0  0
 11 14  2  0  0  0  0
  1 16  1  0  0  0  0
  2 17  1  0  0  0  0
  7 18  1  0  0  0  0
  7 19  1  0  0  0  0
  7 20  1  0  0  0  0
  8 21  1  0  0  0  0
  8 22  1  0  0  0  0
  8 23  1  0  0  0  0
  9 24  1  0  0  0  0
  9 25  1  0  0  0  0
M  END
> <Mol Weight>
296,14

> <Formula>
C8H10BrNO4S

> <ID>
EN300-90071

> <name>
Sulfonamides

> <LogP>
1,03

> <ROCS_ShapeQuery>
x0446_0A_x1080_0A_x0929_0A_x0812_0A_x0719_0A_x1140_0A_x0528_0A_x0310_0A

> <ROCS_TanimotoCombo>
0.330 

> <ROCS_ShapeTanimoto>
0.200 

> <ROCS_ColorTanimoto>
0.130 

> <ROCS_RefTversky>
0.184 

> <ROCS_RefColorTversky>
0.142 

> <ROCS_RefTverskyCombo>
0.327 

> <ROCS_FitTversky>
1.792 

> <ROCS_FitColorTversky>
0.597 

> <ROCS_FitTverskyCombo>
2.389 

> <ROCS_ColorScore>
-5.084

> <ROCS_Overlap>
2171.798

> <ROCS_Rank>
412                 

$$$$
untitled-dbase-2530_1
  -OEChem-02082415043D

 22 22  0     0  0  0  0  0  0999 V2000
    8.7314    9.6031   24.1644 C   0  0  0  0  0  0  0  0  0  0  0  0
    7.8901   10.5532   24.7432 C   0  0  0  0  0  0  0  0  0  0  0  0
    9.6446   11.2997   22.7068 C   0  0  0  0  0  0  0  0  0  0  0  0
    9.6087    9.9763   23.1462 C   0  0  0  0  0  0  0  0  0  0  0  0
    8.8033   12.2498   23.2856 C   0  0  0  0  0  0  0  0  0  0  0  0
    7.9260   11.8765   24.3038 C   0  0  0  0  0  0  0  0  0  0  0  0
   10.5077    8.9605   22.5269 C   0  0  0  0  0  0  0  0  0  0  0  0
    7.8329   13.5931   26.3409 N   0  0  0  0  0  0  0  0  0  0  0  0
    8.8638   13.5914   22.8165 N   0  3  0  0  0  0  0  0  0  0  0  0
    8.1187   13.9358   21.8690 O   0  5  0  0  0  0  0  0  0  0  0  0
    9.6607   14.3890   23.3644 O   0  0  0  0  0  0  0  0  0  0  0  0
    6.6283   14.1253   24.1248 O   0  0  0  0  0  0  0  0  0  0  0  0
    5.7190   12.3106   25.6173 O   0  0  0  0  0  0  0  0  0  0  0  0
   10.3647    7.7084   23.0541 F   0  0  0  0  0  0  0  0  0  0  0  0
   10.3141    8.8051   21.1837 F   0  0  0  0  0  0  0  0  0  0  0  0
   11.8292    9.2699   22.6727 F   0  0  0  0  0  0  0  0  0  0  0  0
    6.8507   13.0346   25.0606 S   0  0  0  0  0  0  0  0  0  0  0  0
    8.6959    8.5743   24.5129 H   0  0  0  0  0  0  0  0  0  0  0  0
    7.2110   10.2496   25.5358 H   0  0  0  0  0  0  0  0  0  0  0  0
   10.3313   11.5841   21.9122 H   0  0  0  0  0  0  0  0  0  0  0  0
    8.2083   14.5473   26.2781 H   0  0  0  0  0  0  0  0  0  0  0  0
    7.5873   13.3056   27.2961 H   0  0  0  0  0  0  0  0  0  0  0  0
  1  2  2  0  0  0  0
  1  4  1  0  0  0  0
  2  6  1  0  0  0  0
  3  4  2  0  0  0  0
  3  5  1  0  0  0  0
  4  7  1  0  0  0  0
  5  6  2  0  0  0  0
  5  9  1  0  0  0  0
  6 17  1  0  0  0  0
  7 14  1  0  0  0  0
  7 15  1  0  0  0  0
  7 16  1  0  0  0  0
  8 17  1  0  0  0  0
  9 10  1  0  0  0  0
  9 11  2  0  0  0  0
 12 17  2  0  0  0  0
 13 17  2  0  0  0  0
  1 18  1  0  0  0  0
  2 19  1  0  0  0  0
  3 20  1  0  0  0  0
  8 21  1  0  0  0  0
  8 22  1  0  0  0  0
M  CHG  2   9   1  10  -1
M  END
> <Mol Weight>
270,18

> <Formula>
C7H5F3N2O4S

> <ID>
EN300-255293

> <name>
Sulfonamides

> <LogP>
1,40

> <ROCS_ShapeQuery>
x0446_0A_x1080_0A_x0929_0A_x0812_0A_x0719_0A_x1140_0A_x0528_0A_x0310_0A

> <ROCS_TanimotoCombo>
0.330 

> <ROCS_ShapeTanimoto>
0.209 

> <ROCS_ColorTanimoto>
0.122 

> <ROCS_RefTversky>
0.192 

> <ROCS_RefColorTversky>
0.132 

> <ROCS_RefTverskyCombo>
0.324 

> <ROCS_FitTversky>
1.703 

> <ROCS_FitColorTversky>
0.619 

> <ROCS_FitTverskyCombo>
2.322 

> <ROCS_ColorScore>
-4.690

> <ROCS_Overlap>
2267.309

> <ROCS_Rank>
413                 

$$$$
untitled-dbase-2048_92
  -OEChem-02082415043D

 30 31  0     0  0  0  0  0  0999 V2000
    9.5936   10.5335   22.0828 C   0  0  0  0  0  0  0  0  0  0  0  0
    8.7537   10.4499   23.1933 C   0  0  0  0  0  0  0  0  0  0  0  0
   10.1160   11.7673   21.6947 C   0  0  0  0  0  0  0  0  0  0  0  0
    8.9583   12.8340   23.5274 C   0  0  0  0  0  0  0  0  0  0  0  0
    8.4360   11.6001   23.9156 C   0  0  0  0  0  0  0  0  0  0  0  0
    9.7983   12.9175   22.4170 C   0  0  0  0  0  0  0  0  0  0  0  0
    7.2269   12.6856   25.8212 C   0  0  0  0  0  0  0  0  0  0  0  0
    6.6916   10.3770   25.1912 C   0  0  0  0  0  0  0  0  0  0  0  0
    5.7964   13.0796   25.4695 C   0  0  0  0  0  0  0  0  0  0  0  0
    5.2719   10.8473   24.8720 C   0  0  0  0  0  0  0  0  0  0  0  0
    7.5990   11.5168   25.0210 N   0  0  0  0  0  0  0  0  0  0  0  0
   11.3823   14.0086   20.5716 N   0  0  0  0  0  0  0  0  0  0  0  0
    9.3562   15.3097   21.4923 O   0  0  0  0  0  0  0  0  0  0  0  0
   11.3553   14.9289   22.9777 O   0  0  0  0  0  0  0  0  0  0  0  0
    4.9166   11.9699   25.6871 O   0  0  0  0  0  0  0  0  0  0  0  0
   10.4546   14.4615   21.9332 S   0  0  0  0  0  0  0  0  0  0  0  0
    9.8412    9.6380   21.5205 H   0  0  0  0  0  0  0  0  0  0  0  0
    8.3521    9.4834   23.4865 H   0  0  0  0  0  0  0  0  0  0  0  0
   10.7702   11.8210   20.8286 H   0  0  0  0  0  0  0  0  0  0  0  0
    8.7105   13.7311   24.0905 H   0  0  0  0  0  0  0  0  0  0  0  0
    7.8960   13.5253   25.6220 H   0  0  0  0  0  0  0  0  0  0  0  0
    7.2853   12.4299   26.8825 H   0  0  0  0  0  0  0  0  0  0  0  0
    6.7374   10.0303   26.2244 H   0  0  0  0  0  0  0  0  0  0  0  0
    6.9621    9.5585   24.5257 H   0  0  0  0  0  0  0  0  0  0  0  0
    5.4664   13.8950   26.1165 H   0  0  0  0  0  0  0  0  0  0  0  0
    5.7140   13.4192   24.4331 H   0  0  0  0  0  0  0  0  0  0  0  0
    5.1643   11.1095   23.8130 H   0  0  0  0  0  0  0  0  0  0  0  0
    4.5607   10.0438   25.0865 H   0  0  0  0  0  0  0  0  0  0  0  0
   11.0411   14.2845   19.6427 H   0  0  0  0  0  0  0  0  0  0  0  0
   12.4057   14.0231   20.6592 H   0  0  0  0  0  0  0  0  0  0  0  0
  1  2  1  0  0  0  0
  1  3  2  0  0  0  0
  2  5  2  0  0  0  0
  3  6  1  0  0  0  0
  4  5  1  0  0  0  0
  4  6  2  0  0  0  0
  5 11  1  0  0  0  0
  6 16  1  0  0  0  0
  7  9  1  0  0  0  0
  7 11  1  0  0  0  0
  8 10  1  0  0  0  0
  8 11  1  0  0  0  0
  9 15  1  0  0  0  0
 10 15  1  0  0  0  0
 12 16  1  0  0  0  0
 13 16  2  0  0  0  0
 14 16  2  0  0  0  0
  1 17  1  0  0  0  0
  2 18  1  0  0  0  0
  3 19  1  0  0  0  0
  4 20  1  0  0  0  0
  7 21  1  0  0  0  0
  7 22  1  0  0  0  0
  8 23  1  0  0  0  0
  8 24  1  0  0  0  0
  9 25  1  0  0  0  0
  9 26  1  0  0  0  0
 10 27  1  0  0  0  0
 10 28  1  0  0  0  0
 12 29  1  0  0  0  0
 12 30  1  0  0  0  0
M  END
> <Mol Weight>
242,29

> <Formula>
C10H14N2O3S

> <ID>
EN300-39667203

> <name>
Sulfonamides

> <LogP>
0,47

> <ROCS_ShapeQuery>
x0446_0A_x1080_0A_x0929_0A_x0812_0A_x0719_0A_x1140_0A_x0528_0A_x0310_0A

> <ROCS_TanimotoCombo>
0.330 

> <ROCS_ShapeTanimoto>
0.197 

> <ROCS_ColorTanimoto>
0.134 

> <ROCS_RefTversky>
0.182 

> <ROCS_RefColorTversky>
0.143 

> <ROCS_RefTverskyCombo>
0.325 

> <ROCS_FitTversky>
1.691 

> <ROCS_FitColorTversky>
0.673 

> <ROCS_FitTverskyCombo>
2.364 

> <ROCS_ColorScore>
-5.088

> <ROCS_Overlap>
2149.927

> <ROCS_Rank>
414                 

$$$$
untitled-dbase-1796_7
  -OEChem-02082415043D

 23 23  0     0  0  0  0  0  0999 V2000
    6.2422   11.2700   24.4334 C   0  0  0  0  0  0  0  0  0  0  0  0
    6.0290   12.6429   24.5560 C   0  0  0  0  0  0  0  0  0  0  0  0
    7.4236   10.7958   23.8631 C   0  0  0  0  0  0  0  0  0  0  0  0
    8.1784   13.0677   23.5380 C   0  0  0  0  0  0  0  0  0  0  0  0
    6.9970   13.5418   24.1083 C   0  0  0  0  0  0  0  0  0  0  0  0
    8.3917   11.6947   23.4154 C   0  0  0  0  0  0  0  0  0  0  0  0
    6.1055   15.5308   23.1570 C   0  0  0  0  0  0  0  0  0  0  0  0
    9.5588    9.3725   22.8237 N   0  0  0  0  0  0  0  0  0  0  0  0
    9.1580   13.9967   23.0820 N   0  3  0  0  0  0  0  0  0  0  0  0
    9.0998   14.4024   21.8986 O   0  5  0  0  0  0  0  0  0  0  0  0
   10.0456   14.3772   23.8796 O   0  0  0  0  0  0  0  0  0  0  0  0
    9.8877   11.4276   21.3026 O   0  0  0  0  0  0  0  0  0  0  0  0
   10.9735   11.3899   23.5757 O   0  0  0  0  0  0  0  0  0  0  0  0
    6.7629   14.8787   24.2409 O   0  0  0  0  0  0  0  0  0  0  0  0
    9.8587   11.0493   22.7063 S   0  0  0  0  0  0  0  0  0  0  0  0
    5.4881   10.5701   24.7816 H   0  0  0  0  0  0  0  0  0  0  0  0
    5.1064   13.0050   25.0017 H   0  0  0  0  0  0  0  0  0  0  0  0
    7.5775    9.7237   23.7738 H   0  0  0  0  0  0  0  0  0  0  0  0
    5.9805   16.5910   23.3904 H   0  0  0  0  0  0  0  0  0  0  0  0
    5.1306   15.0664   22.9885 H   0  0  0  0  0  0  0  0  0  0  0  0
    6.7164   15.4278   22.2570 H   0  0  0  0  0  0  0  0  0  0  0  0
    9.3594    8.8579   21.9573 H   0  0  0  0  0  0  0  0  0  0  0  0
   10.1001    8.8341   23.5111 H   0  0  0  0  0  0  0  0  0  0  0  0
  1  2  2  0  0  0  0
  1  3  1  0  0  0  0
  2  5  1  0  0  0  0
  3  6  2  0  0  0  0
  4  5  2  0  0  0  0
  4  6  1  0  0  0  0
  4  9  1  0  0  0  0
  5 14  1  0  0  0  0
  6 15  1  0  0  0  0
  7 14  1  0  0  0  0
  8 15  1  0  0  0  0
  9 10  1  0  0  0  0
  9 11  2  0  0  0  0
 12 15  2  0  0  0  0
 13 15  2  0  0  0  0
  1 16  1  0  0  0  0
  2 17  1  0  0  0  0
  3 18  1  0  0  0  0
  7 19  1  0  0  0  0
  7 20  1  0  0  0  0
  7 21  1  0  0  0  0
  8 22  1  0  0  0  0
  8 23  1  0  0  0  0
M  CHG  2   9   1  10  -1
M  END
> <Mol Weight>
232,21

> <Formula>
C7H8N2O5S

> <ID>
EN300-278339

> <name>
Sulfonamides

> <LogP>
0,36

> <ROCS_ShapeQuery>
x0446_0A_x1080_0A_x0929_0A_x0812_0A_x0719_0A_x1140_0A_x0528_0A_x0310_0A

> <ROCS_TanimotoCombo>
0.330 

> <ROCS_ShapeTanimoto>
0.200 

> <ROCS_ColorTanimoto>
0.130 

> <ROCS_RefTversky>
0.184 

> <ROCS_RefColorTversky>
0.143 

> <ROCS_RefTverskyCombo>
0.327 

> <ROCS_FitTversky>
1.757 

> <ROCS_FitColorTversky>
0.597 

> <ROCS_FitTverskyCombo>
2.354 

> <ROCS_ColorScore>
-5.092

> <ROCS_Overlap>
2174.304

> <ROCS_Rank>
415                 

$$$$
untitled-dbase-748_1
  -OEChem-02082415043D

 21 21  0     0  0  0  0  0  0999 V2000
    6.5104   11.8139   24.7393 C   0  0  0  0  0  0  0  0  0  0  0  0
    9.8663   10.3825   24.0334 C   0  0  0  0  0  0  0  0  0  0  0  0
   10.5606   11.5086   23.5916 C   0  0  0  0  0  0  0  0  0  0  0  0
    8.5278   10.4919   24.4108 C   0  0  0  0  0  0  0  0  0  0  0  0
    9.9167   12.7443   23.5273 C   0  0  0  0  0  0  0  0  0  0  0  0
    7.8839   11.7275   24.3465 C   0  0  0  0  0  0  0  0  0  0  0  0
    8.5783   12.8537   23.9048 C   0  0  0  0  0  0  0  0  0  0  0  0
    7.9211   14.1942   23.8226 C   0  0  0  0  0  0  0  0  0  0  0  0
    5.3966   11.8838   25.0578 N   0  0  0  0  0  0  0  0  0  0  0  0
    6.4208   15.7413   22.2713 N   0  0  0  0  0  0  0  0  0  0  0  0
    8.8275   15.1626   21.5715 O   0  0  0  0  0  0  0  0  0  0  0  0
    7.0493   13.3686   21.5019 O   0  0  0  0  0  0  0  0  0  0  0  0
    7.6302   14.5484   22.1207 S   0  0  0  0  0  0  0  0  0  0  0  0
   10.3679    9.4204   24.0835 H   0  0  0  0  0  0  0  0  0  0  0  0
   11.6027   11.4232   23.2978 H   0  0  0  0  0  0  0  0  0  0  0  0
    8.0011    9.6040   24.7529 H   0  0  0  0  0  0  0  0  0  0  0  0
   10.4670   13.6154   23.1817 H   0  0  0  0  0  0  0  0  0  0  0  0
    8.5529   14.9889   24.2315 H   0  0  0  0  0  0  0  0  0  0  0  0
    6.9580   14.2137   24.3426 H   0  0  0  0  0  0  0  0  0  0  0  0
    6.6747   16.7105   22.0438 H   0  0  0  0  0  0  0  0  0  0  0  0
    5.4636   15.4886   21.9965 H   0  0  0  0  0  0  0  0  0  0  0  0
  1  6  1  0  0  0  0
  1  9  3  0  0  0  0
  2  3  1  0  0  0  0
  2  4  2  0  0  0  0
  3  5  2  0  0  0  0
  4  6  1  0  0  0  0
  5  7  1  0  0  0  0
  6  7  2  0  0  0  0
  7  8  1  0  0  0  0
  8 13  1  0  0  0  0
 10 13  1  0  0  0  0
 11 13  2  0  0  0  0
 12 13  2  0  0  0  0
  2 14  1  0  0  0  0
  3 15  1  0  0  0  0
  4 16  1  0  0  0  0
  5 17  1  0  0  0  0
  8 18  1  0  0  0  0
  8 19  1  0  0  0  0
 10 20  1  0  0  0  0
 10 21  1  0  0  0  0
M  END
> <Mol Weight>
196,22

> <Formula>
C8H8N2O2S

> <ID>
EN300-15344

> <name>
Sulfonamides

> <LogP>
0,20

> <ROCS_ShapeQuery>
x0446_0A_x1080_0A_x0929_0A_x0812_0A_x0719_0A_x1140_0A_x0528_0A_x0310_0A

> <ROCS_TanimotoCombo>
0.330 

> <ROCS_ShapeTanimoto>
0.187 

> <ROCS_ColorTanimoto>
0.143 

> <ROCS_RefTversky>
0.173 

> <ROCS_RefColorTversky>
0.149 

> <ROCS_RefTverskyCombo>
0.321 

> <ROCS_FitTversky>
1.795 

> <ROCS_FitColorTversky>
0.800 

> <ROCS_FitTverskyCombo>
2.595 

> <ROCS_ColorScore>
-5.289

> <ROCS_Overlap>
2036.441

> <ROCS_Rank>
416                 

$$$$
untitled-dbase-1395_31
  -OEChem-02082415043D

 23 23  0     1  0  0  0  0  0999 V2000
    8.0925   10.3674   24.5824 C   0  0  0  0  0  0  0  0  0  0  0  0
    9.6143   10.3595   22.7339 C   0  0  0  0  0  0  0  0  0  0  0  0
    8.4181   11.8344   24.8298 C   0  0  0  0  0  0  0  0  0  0  0  0
    9.9555   11.8289   22.9992 C   0  0  1  0  0  0  0  0  0  0  0  0
    9.2204   12.7997   22.0761 C   0  0  0  0  0  0  0  0  0  0  0  0
    8.2515   10.0428   23.1646 N   0  0  0  0  0  0  0  0  0  0  0  0
   11.2842   14.0223   20.9371 N   0  0  0  0  0  0  0  0  0  0  0  0
    9.1188   15.3257   21.4158 O   0  0  0  0  0  0  0  0  0  0  0  0
   10.5971   14.6247   23.3417 O   0  0  0  0  0  0  0  0  0  0  0  0
    9.7356   12.1506   24.3786 O   0  0  0  0  0  0  0  0  0  0  0  0
   10.0215   14.3658   22.0314 S   0  0  0  0  0  0  0  0  0  0  0  0
    8.7508    9.7285   25.1809 H   0  0  0  0  0  0  0  0  0  0  0  0
    7.0612   10.1506   24.8876 H   0  0  0  0  0  0  0  0  0  0  0  0
    9.7105   10.1264   21.6612 H   0  0  0  0  0  0  0  0  0  0  0  0
   10.3205    9.7022   23.2629 H   0  0  0  0  0  0  0  0  0  0  0  0
    7.7163   12.4707   24.2757 H   0  0  0  0  0  0  0  0  0  0  0  0
    8.3238   12.0975   25.8937 H   0  0  0  0  0  0  0  0  0  0  0  0
   11.0696   11.9738   22.8077 H   0  0  0  0  0  0  0  0  0  0  0  0
    8.2012   12.9615   22.4267 H   0  0  0  0  0  0  0  0  0  0  0  0
    9.1965   12.4131   21.0574 H   0  0  0  0  0  0  0  0  0  0  0  0
    8.0874    9.0457   23.0339 H   0  0  0  0  0  0  0  0  0  0  0  0
   12.0429   13.4098   21.2607 H   0  0  0  0  0  0  0  0  0  0  0  0
   11.0361   13.8875   19.9492 H   0  0  0  0  0  0  0  0  0  0  0  0
  1  3  1  0  0  0  0
  1  6  1  0  0  0  0
  2  4  1  0  0  0  0
  2  6  1  0  0  0  0
  3 10  1  0  0  0  0
  4  5  1  6  0  0  0
  4 10  1  0  0  0  0
  5 11  1  0  0  0  0
  7 11  1  0  0  0  0
  8 11  2  0  0  0  0
  9 11  2  0  0  0  0
  1 12  1  0  0  0  0
  1 13  1  0  0  0  0
  2 14  1  0  0  0  0
  2 15  1  0  0  0  0
  3 16  1  0  0  0  0
  3 17  1  0  0  0  0
  4 18  1  0  0  0  0
  5 19  1  0  0  0  0
  5 20  1  0  0  0  0
  6 21  1  0  0  0  0
  7 22  1  0  0  0  0
  7 23  1  0  0  0  0
M  END
> <Mol Weight>
216,68

> <Formula>
C5H13ClN2O3S

> <ID>
EN300-28338720

> <name>
Sulfonamides

> <LogP>
-1,91

> <ROCS_ShapeQuery>
x0446_0A_x1080_0A_x0929_0A_x0812_0A_x0719_0A_x1140_0A_x0528_0A_x0310_0A

> <ROCS_TanimotoCombo>
0.330 

> <ROCS_ShapeTanimoto>
0.161 

> <ROCS_ColorTanimoto>
0.169 

> <ROCS_RefTversky>
0.151 

> <ROCS_RefColorTversky>
0.179 

> <ROCS_RefTverskyCombo>
0.330 

> <ROCS_FitTversky>
1.718 

> <ROCS_FitColorTversky>
0.751 

> <ROCS_FitTverskyCombo>
2.468 

> <ROCS_ColorScore>
-6.391

> <ROCS_Overlap>
1780.806

> <ROCS_Rank>
417                 

$$$$
untitled-dbase-2403_219
  -OEChem-02082415043D

 28 28  0     0  0  0  0  0  0999 V2000
    8.0973   10.9131   24.3314 C   0  0  0  0  0  0  0  0  0  0  0  0
    9.1410   10.4681   23.5200 C   0  0  0  0  0  0  0  0  0  0  0  0
    8.1934   13.0798   23.2667 C   0  0  0  0  0  0  0  0  0  0  0  0
    7.6235   12.2190   24.2046 C   0  0  0  0  0  0  0  0  0  0  0  0
    9.2372   12.6348   22.4554 C   0  0  0  0  0  0  0  0  0  0  0  0
    9.7110   11.3289   22.5821 C   0  0  0  0  0  0  0  0  0  0  0  0
    6.5367   12.6825   25.0527 C   0  0  0  0  0  0  0  0  0  0  0  0
    7.7007   14.6456   26.1987 C   0  0  0  0  0  0  0  0  0  0  0  0
   12.0764   15.3954   21.7872 C   0  0  0  0  0  0  0  0  0  0  0  0
    6.4799   14.1706   25.4264 C   0  0  0  0  0  0  0  0  0  0  0  0
   11.4599   14.0715   21.9540 N   0  0  0  0  0  0  0  0  0  0  0  0
    5.6515   11.9277   25.4897 O   0  0  0  0  0  0  0  0  0  0  0  0
   10.0769   13.0727   20.0236 O   0  0  0  0  0  0  0  0  0  0  0  0
    9.1255   14.9809   21.3570 O   0  0  0  0  0  0  0  0  0  0  0  0
    9.9151   13.7606   21.2957 S   0  0  0  0  0  0  0  0  0  0  0  0
   11.0004   10.7295   21.6024 Cl  0  0  0  0  0  0  0  0  0  0  0  0
    7.6610   10.2347   25.0598 H   0  0  0  0  0  0  0  0  0  0  0  0
    9.4979    9.4473   23.6316 H   0  0  0  0  0  0  0  0  0  0  0  0
    7.8226   14.0978   23.1700 H   0  0  0  0  0  0  0  0  0  0  0  0
    7.8193   14.0840   27.1313 H   0  0  0  0  0  0  0  0  0  0  0  0
    8.6065   14.5085   25.6000 H   0  0  0  0  0  0  0  0  0  0  0  0
    7.6169   15.7072   26.4535 H   0  0  0  0  0  0  0  0  0  0  0  0
   11.2896   16.1529   21.6555 H   0  0  0  0  0  0  0  0  0  0  0  0
   12.6722   15.6373   22.6797 H   0  0  0  0  0  0  0  0  0  0  0  0
   12.7290   15.3870   20.9018 H   0  0  0  0  0  0  0  0  0  0  0  0
    6.3991   14.7563   24.5043 H   0  0  0  0  0  0  0  0  0  0  0  0
    5.5890   14.3395   26.0409 H   0  0  0  0  0  0  0  0  0  0  0  0
   12.1085   13.2857   22.0853 H   0  0  0  0  0  0  0  0  0  0  0  0
  1  2  2  0  0  0  0
  1  4  1  0  0  0  0
  2  6  1  0  0  0  0
  3  4  2  0  0  0  0
  3  5  1  0  0  0  0
  4  7  1  0  0  0  0
  5  6  2  0  0  0  0
  5 15  1  0  0  0  0
  6 16  1  0  0  0  0
  7 10  1  0  0  0  0
  7 12  2  0  0  0  0
  8 10  1  0  0  0  0
  9 11  1  0  0  0  0
 11 15  1  0  0  0  0
 13 15  2  0  0  0  0
 14 15  2  0  0  0  0
  1 17  1  0  0  0  0
  2 18  1  0  0  0  0
  3 19  1  0  0  0  0
  8 20  1  0  0  0  0
  8 21  1  0  0  0  0
  8 22  1  0  0  0  0
  9 23  1  0  0  0  0
  9 24  1  0  0  0  0
  9 25  1  0  0  0  0
 10 26  1  0  0  0  0
 10 27  1  0  0  0  0
 11 28  1  0  0  0  0
M  END
> <Mol Weight>
261,72

> <Formula>
C10H12ClNO3S

> <ID>
EN300-195109

> <name>
Sulfonamides

> <LogP>
1,67

> <ROCS_ShapeQuery>
x0446_0A_x1080_0A_x0929_0A_x0812_0A_x0719_0A_x1140_0A_x0528_0A_x0310_0A

> <ROCS_TanimotoCombo>
0.330 

> <ROCS_ShapeTanimoto>
0.198 

> <ROCS_ColorTanimoto>
0.132 

> <ROCS_RefTversky>
0.183 

> <ROCS_RefColorTversky>
0.141 

> <ROCS_RefTverskyCombo>
0.324 

> <ROCS_FitTversky>
1.734 

> <ROCS_FitColorTversky>
0.665 

> <ROCS_FitTverskyCombo>
2.400 

> <ROCS_ColorScore>
-5.032

> <ROCS_Overlap>
2159.518

> <ROCS_Rank>
418                 

$$$$
untitled-dbase-2044_3
  -OEChem-02082415043D

 26 27  0     1  0  0  0  0  0999 V2000
   10.4289   10.3599   23.2055 C   0  0  0  0  0  0  0  0  0  0  0  0
   11.3190   11.3408   22.7671 C   0  0  0  0  0  0  0  0  0  0  0  0
    9.7482   13.0606   23.4120 C   0  0  0  0  0  0  0  0  0  0  0  0
    8.8559   12.0759   23.8412 C   0  0  0  0  0  0  0  0  0  0  0  0
    9.1919   10.7288   23.7359 C   0  0  0  0  0  0  0  0  0  0  0  0
   10.9787   12.6897   22.8696 C   0  0  0  0  0  0  0  0  0  0  0  0
    6.7033   11.5162   24.8011 C   0  0  0  0  0  0  0  0  0  0  0  0
    7.0217   10.0830   24.3824 C   0  0  1  0  0  0  0  0  0  0  0  0
    6.2266    9.7350   23.1256 C   0  0  0  0  0  0  0  0  0  0  0  0
    7.6374   12.4478   24.4152 N   0  0  0  0  0  0  0  0  0  0  0  0
   11.5909   14.0801   20.6799 N   0  0  0  0  0  0  0  0  0  0  0  0
    5.6548   11.8053   25.3761 O   0  0  0  0  0  0  0  0  0  0  0  0
   11.8023   15.1540   23.0139 O   0  0  0  0  0  0  0  0  0  0  0  0
   13.4358   13.3624   22.3286 O   0  0  0  0  0  0  0  0  0  0  0  0
    8.3792    9.7239   24.1762 O   0  0  0  0  0  0  0  0  0  0  0  0
   12.0883   13.9141   22.3061 S   0  0  0  0  0  0  0  0  0  0  0  0
   10.7056    9.3108   23.1309 H   0  0  0  0  0  0  0  0  0  0  0  0
   12.2725   11.0418   22.3403 H   0  0  0  0  0  0  0  0  0  0  0  0
    9.4853   14.1129   23.4978 H   0  0  0  0  0  0  0  0  0  0  0  0
    6.6247    9.4327   25.1993 H   0  0  0  0  0  0  0  0  0  0  0  0
    6.5706   10.3414   22.2880 H   0  0  0  0  0  0  0  0  0  0  0  0
    5.1668    9.9277   23.2908 H   0  0  0  0  0  0  0  0  0  0  0  0
    6.3614    8.6819   22.8798 H   0  0  0  0  0  0  0  0  0  0  0  0
    7.4369   13.4377   24.5510 H   0  0  0  0  0  0  0  0  0  0  0  0
   11.0946   14.9391   20.4131 H   0  0  0  0  0  0  0  0  0  0  0  0
   12.2101   13.7137   19.9467 H   0  0  0  0  0  0  0  0  0  0  0  0
  1  2  2  0  0  0  0
  1  5  1  0  0  0  0
  2  6  1  0  0  0  0
  3  4  1  0  0  0  0
  3  6  2  0  0  0  0
  4  5  2  0  0  0  0
  4 10  1  0  0  0  0
  5 15  1  0  0  0  0
  6 16  1  0  0  0  0
  7  8  1  0  0  0  0
  7 10  1  0  0  0  0
  7 12  2  0  0  0  0
  8  9  1  0  0  0  0
  8 15  1  0  0  0  0
 11 16  1  0  0  0  0
 13 16  2  0  0  0  0
 14 16  2  0  0  0  0
  1 17  1  0  0  0  0
  2 18  1  0  0  0  0
  3 19  1  0  0  0  0
  8 20  1  0  0  0  0
  9 21  1  0  0  0  0
  9 22  1  0  0  0  0
  9 23  1  0  0  0  0
 10 24  1  0  0  0  0
 11 25  1  0  0  0  0
 11 26  1  0  0  0  0
M  END
> <Mol Weight>
242,25

> <Formula>
C9H10N2O4S

> <ID>
EN300-65209

> <name>
Sulfonamides

> <LogP>
-0,07

> <ROCS_ShapeQuery>
x0446_0A_x1080_0A_x0929_0A_x0812_0A_x0719_0A_x1140_0A_x0528_0A_x0310_0A

> <ROCS_TanimotoCombo>
0.330 

> <ROCS_ShapeTanimoto>
0.213 

> <ROCS_ColorTanimoto>
0.118 

> <ROCS_RefTversky>
0.194 

> <ROCS_RefColorTversky>
0.133 

> <ROCS_RefTverskyCombo>
0.328 

> <ROCS_FitTversky>
1.780 

> <ROCS_FitColorTversky>
0.503 

> <ROCS_FitTverskyCombo>
2.283 

> <ROCS_ColorScore>
-4.762

> <ROCS_Overlap>
2293.728

> <ROCS_Rank>
419                 

$$$$
untitled-dbase-928_79
  -OEChem-02082415043D

 24 24  0     0  0  0  0  0  0999 V2000
    8.2308    9.9704   24.4863 C   0  0  0  0  0  0  0  0  0  0  0  0
    8.1243   11.0529   25.3594 C   0  0  0  0  0  0  0  0  0  0  0  0
    8.9181   10.1118   23.2807 C   0  0  0  0  0  0  0  0  0  0  0  0
    8.7050   12.2768   25.0271 C   0  0  0  0  0  0  0  0  0  0  0  0
    9.4988   11.3357   22.9483 C   0  0  0  0  0  0  0  0  0  0  0  0
    9.3922   12.4182   23.8215 C   0  0  0  0  0  0  0  0  0  0  0  0
    9.3267   14.7888   24.0005 C   0  0  0  0  0  0  0  0  0  0  0  0
    7.8933   14.8716   23.5132 C   0  0  0  0  0  0  0  0  0  0  0  0
    6.2416   15.6005   21.5659 N   0  0  0  0  0  0  0  0  0  0  0  0
    8.7786   15.9251   21.2920 O   0  0  0  0  0  0  0  0  0  0  0  0
    7.8130   13.5906   21.2372 O   0  0  0  0  0  0  0  0  0  0  0  0
    9.9576   13.6127   23.4959 O   0  0  0  0  0  0  0  0  0  0  0  0
    7.8060   14.9490   21.7506 S   0  0  0  0  0  0  0  0  0  0  0  0
    7.7793    9.0171   24.7450 H   0  0  0  0  0  0  0  0  0  0  0  0
    7.5890   10.9430   26.2982 H   0  0  0  0  0  0  0  0  0  0  0  0
    9.0008    9.2683   22.6013 H   0  0  0  0  0  0  0  0  0  0  0  0
    8.6171   13.1166   25.7110 H   0  0  0  0  0  0  0  0  0  0  0  0
   10.0314   11.4405   22.0070 H   0  0  0  0  0  0  0  0  0  0  0  0
    9.8998   15.6533   23.6510 H   0  0  0  0  0  0  0  0  0  0  0  0
    9.3789   14.7618   25.0932 H   0  0  0  0  0  0  0  0  0  0  0  0
    7.3890   15.7669   23.8882 H   0  0  0  0  0  0  0  0  0  0  0  0
    7.3296   13.9837   23.8126 H   0  0  0  0  0  0  0  0  0  0  0  0
    5.4418   14.9948   21.7872 H   0  0  0  0  0  0  0  0  0  0  0  0
    6.0997   16.5847   21.8244 H   0  0  0  0  0  0  0  0  0  0  0  0
  1  2  1  0  0  0  0
  1  3  2  0  0  0  0
  2  4  2  0  0  0  0
  3  5  1  0  0  0  0
  4  6  1  0  0  0  0
  5  6  2  0  0  0  0
  6 12  1  0  0  0  0
  7  8  1  0  0  0  0
  7 12  1  0  0  0  0
  8 13  1  0  0  0  0
  9 13  1  0  0  0  0
 10 13  2  0  0  0  0
 11 13  2  0  0  0  0
  1 14  1  0  0  0  0
  2 15  1  0  0  0  0
  3 16  1  0  0  0  0
  4 17  1  0  0  0  0
  5 18  1  0  0  0  0
  7 19  1  0  0  0  0
  7 20  1  0  0  0  0
  8 21  1  0  0  0  0
  8 22  1  0  0  0  0
  9 23  1  0  0  0  0
  9 24  1  0  0  0  0
M  END
> <Mol Weight>
201,24

> <Formula>
C8H11NO3S

> <ID>
EN300-93385

> <name>
Sulfonamides

> <LogP>
0,26

> <ROCS_ShapeQuery>
x0446_0A_x1080_0A_x0929_0A_x0812_0A_x0719_0A_x1140_0A_x0528_0A_x0310_0A

> <ROCS_TanimotoCombo>
0.330 

> <ROCS_ShapeTanimoto>
0.171 

> <ROCS_ColorTanimoto>
0.160 

> <ROCS_RefTversky>
0.160 

> <ROCS_RefColorTversky>
0.163 

> <ROCS_RefTverskyCombo>
0.323 

> <ROCS_FitTversky>
1.671 

> <ROCS_FitColorTversky>
0.878 

> <ROCS_FitTverskyCombo>
2.550 

> <ROCS_ColorScore>
-5.807

> <ROCS_Overlap>
1883.114

> <ROCS_Rank>
420                 

$$$$
untitled-dbase-1596_9
  -OEChem-02082415043D

 30 31  0     1  0  0  0  0  0999 V2000
    9.0298   10.0842   24.7070 C   0  0  0  0  0  0  0  0  0  0  0  0
    9.6054   10.0188   23.4382 C   0  0  0  0  0  0  0  0  0  0  0  0
    8.2418   11.1798   25.0598 C   0  0  0  0  0  0  0  0  0  0  0  0
    9.3932   11.0491   22.5221 C   0  0  0  0  0  0  0  0  0  0  0  0
    8.0295   12.2101   24.1437 C   0  0  0  0  0  0  0  0  0  0  0  0
    8.6052   12.1447   22.8748 C   0  0  0  0  0  0  0  0  0  0  0  0
    6.4284   14.6896   20.8492 C   0  0  0  0  0  0  0  0  0  0  0  0
    5.8030   13.4302   21.3697 C   0  0  0  0  0  0  0  0  0  0  0  0
    7.0415   13.9809   22.0307 C   0  0  0  0  0  0  0  0  0  0  0  0
   12.0367   12.9035   21.8629 C   0  0  0  0  0  0  0  0  0  0  0  0
    8.3753   13.2602   21.8840 C   0  0  1  0  0  0  0  0  0  0  0  0
   10.9355   13.5795   21.1538 N   0  0  0  0  0  0  0  0  0  0  0  0
    9.3753   15.6293   21.3962 O   0  0  0  0  0  0  0  0  0  0  0  0
   10.1295   14.3836   23.4544 O   0  0  0  0  0  0  0  0  0  0  0  0
    9.7365   14.3911   22.0583 S   0  0  0  0  0  0  0  0  0  0  0  0
    9.1940    9.2813   25.4197 H   0  0  0  0  0  0  0  0  0  0  0  0
   10.2181    9.1653   23.1629 H   0  0  0  0  0  0  0  0  0  0  0  0
    7.7925   11.2306   26.0471 H   0  0  0  0  0  0  0  0  0  0  0  0
    9.8459   10.9897   21.5358 H   0  0  0  0  0  0  0  0  0  0  0  0
    7.4143   13.0599   24.4273 H   0  0  0  0  0  0  0  0  0  0  0  0
    6.9371   14.6409   19.8944 H   0  0  0  0  0  0  0  0  0  0  0  0
    5.9120   15.6235   21.0347 H   0  0  0  0  0  0  0  0  0  0  0  0
    4.8665   13.5159   21.9069 H   0  0  0  0  0  0  0  0  0  0  0  0
    5.8936   12.5357   20.7660 H   0  0  0  0  0  0  0  0  0  0  0  0
    6.9301   14.4398   23.0055 H   0  0  0  0  0  0  0  0  0  0  0  0
   11.6592   12.4733   22.8022 H   0  0  0  0  0  0  0  0  0  0  0  0
   12.4427   12.1012   21.2293 H   0  0  0  0  0  0  0  0  0  0  0  0
   12.8305   13.6316   22.0862 H   0  0  0  0  0  0  0  0  0  0  0  0
    8.4436   12.8721   20.8607 H   0  0  0  0  0  0  0  0  0  0  0  0
   11.2146   14.0082   20.2617 H   0  0  0  0  0  0  0  0  0  0  0  0
  1  2  1  0  0  0  0
  1  3  2  0  0  0  0
  2  4  2  0  0  0  0
  3  5  1  0  0  0  0
  4  6  1  0  0  0  0
  5  6  2  0  0  0  0
  6 11  1  0  0  0  0
  7  8  1  0  0  0  0
  7  9  1  0  0  0  0
  8  9  1  0  0  0  0
  9 11  1  0  0  0  0
 10 12  1  0  0  0  0
 11 15  1  0  0  0  0
 12 15  1  0  0  0  0
 13 15  2  0  0  0  0
 14 15  2  0  0  0  0
  1 16  1  0  0  0  0
  2 17  1  0  0  0  0
  3 18  1  0  0  0  0
  4 19  1  0  0  0  0
  5 20  1  0  0  0  0
  7 21  1  0  0  0  0
  7 22  1  0  0  0  0
  8 23  1  0  0  0  0
  8 24  1  0  0  0  0
  9 25  1  0  0  0  0
 10 26  1  0  0  0  0
 10 27  1  0  0  0  0
 10 28  1  0  0  0  0
 11 29  1  0  0  0  0
 12 30  1  0  0  0  0
M  END
> <Mol Weight>
225,31

> <Formula>
C11H15NO2S

> <ID>
EN300-680556

> <name>
Sulfonamides

> <LogP>
1,56

> <ROCS_ShapeQuery>
x0446_0A_x1080_0A_x0929_0A_x0812_0A_x0719_0A_x1140_0A_x0528_0A_x0310_0A

> <ROCS_TanimotoCombo>
0.330 

> <ROCS_ShapeTanimoto>
0.183 

> <ROCS_ColorTanimoto>
0.147 

> <ROCS_RefTversky>
0.171 

> <ROCS_RefColorTversky>
0.149 

> <ROCS_RefTverskyCombo>
0.319 

> <ROCS_FitTversky>
1.660 

> <ROCS_FitColorTversky>
0.933 

> <ROCS_FitTverskyCombo>
2.593 

> <ROCS_ColorScore>
-5.281

> <ROCS_Overlap>
2013.662

> <ROCS_Rank>
421                 

$$$$
untitled-dbase-2779_6
  -OEChem-02082415043D

 23 23  0     0  0  0  0  0  0999 V2000
    7.7450   11.5634   24.1512 C   0  0  0  0  0  0  0  0  0  0  0  0
    8.1535   10.3646   23.5666 C   0  0  0  0  0  0  0  0  0  0  0  0
    9.7504   11.5695   22.2118 C   0  0  0  0  0  0  0  0  0  0  0  0
    8.3391   12.7652   23.7659 C   0  0  0  0  0  0  0  0  0  0  0  0
    9.3418   12.7683   22.7963 C   0  0  0  0  0  0  0  0  0  0  0  0
    9.1562   10.3677   22.5970 C   0  0  0  0  0  0  0  0  0  0  0  0
    7.8839   13.9974   24.3963 C   0  0  0  0  0  0  0  0  0  0  0  0
    8.5789   15.8558   25.7174 C   0  0  0  0  0  0  0  0  0  0  0  0
   11.2141   13.6643   21.1241 N   0  0  0  0  0  0  0  0  0  0  0  0
    6.7225   14.4194   24.3452 O   0  0  0  0  0  0  0  0  0  0  0  0
    9.1139   15.0763   21.6154 O   0  0  0  0  0  0  0  0  0  0  0  0
   10.8582   14.7947   23.4115 O   0  0  0  0  0  0  0  0  0  0  0  0
    8.9026   14.6292   25.0538 O   0  0  0  0  0  0  0  0  0  0  0  0
   10.1109   14.2560   22.2856 S   0  0  0  0  0  0  0  0  0  0  0  0
    9.7096    8.7439   21.8037 Br  0  0  0  0  0  0  0  0  0  0  0  0
    6.9613   11.5484   24.9045 H   0  0  0  0  0  0  0  0  0  0  0  0
    7.6809    9.4369   23.8784 H   0  0  0  0  0  0  0  0  0  0  0  0
   10.5313   11.5761   21.4547 H   0  0  0  0  0  0  0  0  0  0  0  0
    9.4734   16.2567   26.2005 H   0  0  0  0  0  0  0  0  0  0  0  0
    7.8002   15.6736   26.4622 H   0  0  0  0  0  0  0  0  0  0  0  0
    8.2136   16.5737   24.9792 H   0  0  0  0  0  0  0  0  0  0  0  0
   11.0230   13.8625   20.1343 H   0  0  0  0  0  0  0  0  0  0  0  0
   12.2131   13.6691   21.3630 H   0  0  0  0  0  0  0  0  0  0  0  0
  1  2  2  0  0  0  0
  1  4  1  0  0  0  0
  2  6  1  0  0  0  0
  3  5  1  0  0  0  0
  3  6  2  0  0  0  0
  4  5  2  0  0  0  0
  4  7  1  0  0  0  0
  5 14  1  0  0  0  0
  6 15  1  0  0  0  0
  7 10  2  0  0  0  0
  7 13  1  0  0  0  0
  8 13  1  0  0  0  0
  9 14  1  0  0  0  0
 11 14  2  0  0  0  0
 12 14  2  0  0  0  0
  1 16  1  0  0  0  0
  2 17  1  0  0  0  0
  3 18  1  0  0  0  0
  8 19  1  0  0  0  0
  8 20  1  0  0  0  0
  8 21  1  0  0  0  0
  9 22  1  0  0  0  0
  9 23  1  0  0  0  0
M  END
> <Mol Weight>
294,12

> <Formula>
C8H8BrNO4S

> <ID>
EN300-286196

> <name>
Sulfonamides

> <LogP>
1,35

> <ROCS_ShapeQuery>
x0446_0A_x1080_0A_x0929_0A_x0812_0A_x0719_0A_x1140_0A_x0528_0A_x0310_0A

> <ROCS_TanimotoCombo>
0.330 

> <ROCS_ShapeTanimoto>
0.191 

> <ROCS_ColorTanimoto>
0.140 

> <ROCS_RefTversky>
0.177 

> <ROCS_RefColorTversky>
0.148 

> <ROCS_RefTverskyCombo>
0.325 

> <ROCS_FitTversky>
1.711 

> <ROCS_FitColorTversky>
0.699 

> <ROCS_FitTverskyCombo>
2.411 

> <ROCS_ColorScore>
-5.290

> <ROCS_Overlap>
2083.240

> <ROCS_Rank>
422                 

$$$$
untitled-dbase-2100_1
  -OEChem-02082415043D

 28 28  0     0  0  0  0  0  0999 V2000
   10.4513   11.3931   22.1205 C   0  0  0  0  0  0  0  0  0  0  0  0
    9.7193   10.4677   22.8644 C   0  0  0  0  0  0  0  0  0  0  0  0
    8.7930   13.0852   22.5939 C   0  0  0  0  0  0  0  0  0  0  0  0
    9.9881   12.7019   21.9853 C   0  0  0  0  0  0  0  0  0  0  0  0
    8.5242   10.8509   23.4730 C   0  0  0  0  0  0  0  0  0  0  0  0
    8.0610   12.1597   23.3377 C   0  0  0  0  0  0  0  0  0  0  0  0
   10.4186   14.9734   20.9956 C   0  0  0  0  0  0  0  0  0  0  0  0
   11.4700   15.6354   20.1408 C   0  0  0  0  0  0  0  0  0  0  0  0
    8.3772    8.6179   24.2777 C   0  0  0  0  0  0  0  0  0  0  0  0
    5.4451   12.3177   22.8508 N   0  0  0  0  0  0  0  0  0  0  0  0
   10.7208   13.6275   21.2411 N   0  0  0  0  0  0  0  0  0  0  0  0
    9.4444   15.6038   21.3938 O   0  0  0  0  0  0  0  0  0  0  0  0
    6.3052   11.7866   25.2222 O   0  0  0  0  0  0  0  0  0  0  0  0
    6.6152   14.1063   24.2890 O   0  0  0  0  0  0  0  0  0  0  0  0
    7.8257    9.9303   24.1953 O   0  0  0  0  0  0  0  0  0  0  0  0
    6.5658   12.6653   24.0920 S   0  0  0  0  0  0  0  0  0  0  0  0
   11.3817   11.0841   21.6508 H   0  0  0  0  0  0  0  0  0  0  0  0
   10.0851    9.4495   22.9660 H   0  0  0  0  0  0  0  0  0  0  0  0
    8.4327   14.1060   22.4883 H   0  0  0  0  0  0  0  0  0  0  0  0
   11.2100   15.5271   19.0840 H   0  0  0  0  0  0  0  0  0  0  0  0
   12.4410   15.1640   20.3169 H   0  0  0  0  0  0  0  0  0  0  0  0
   11.5420   16.6974   20.3933 H   0  0  0  0  0  0  0  0  0  0  0  0
    7.7228    7.9841   24.8813 H   0  0  0  0  0  0  0  0  0  0  0  0
    9.3715    8.6671   24.7286 H   0  0  0  0  0  0  0  0  0  0  0  0
    8.4561    8.2016   23.2706 H   0  0  0  0  0  0  0  0  0  0  0  0
    4.8081   11.5231   22.9861 H   0  0  0  0  0  0  0  0  0  0  0  0
    5.0224   13.1078   22.3486 H   0  0  0  0  0  0  0  0  0  0  0  0
   11.5916   13.2854   20.8189 H   0  0  0  0  0  0  0  0  0  0  0  0
  1  2  2  0  0  0  0
  1  4  1  0  0  0  0
  2  5  1  0  0  0  0
  3  4  2  0  0  0  0
  3  6  1  0  0  0  0
  4 11  1  0  0  0  0
  5  6  2  0  0  0  0
  5 15  1  0  0  0  0
  6 16  1  0  0  0  0
  7  8  1  0  0  0  0
  7 11  1  0  0  0  0
  7 12  2  0  0  0  0
  9 15  1  0  0  0  0
 10 16  1  0  0  0  0
 13 16  2  0  0  0  0
 14 16  2  0  0  0  0
  1 17  1  0  0  0  0
  2 18  1  0  0  0  0
  3 19  1  0  0  0  0
  8 20  1  0  0  0  0
  8 21  1  0  0  0  0
  8 22  1  0  0  0  0
  9 23  1  0  0  0  0
  9 24  1  0  0  0  0
  9 25  1  0  0  0  0
 10 26  1  0  0  0  0
 10 27  1  0  0  0  0
 11 28  1  0  0  0  0
M  END
> <Mol Weight>
244,27

> <Formula>
C9H12N2O4S

> <ID>
EN300-06011

> <name>
Sulfonamides

> <LogP>
-0,34

> <ROCS_ShapeQuery>
x0446_0A_x1080_0A_x0929_0A_x0812_0A_x0719_0A_x1140_0A_x0528_0A_x0310_0A

> <ROCS_TanimotoCombo>
0.330 

> <ROCS_ShapeTanimoto>
0.188 

> <ROCS_ColorTanimoto>
0.142 

> <ROCS_RefTversky>
0.175 

> <ROCS_RefColorTversky>
0.154 

> <ROCS_RefTverskyCombo>
0.329 

> <ROCS_FitTversky>
1.632 

> <ROCS_FitColorTversky>
0.647 

> <ROCS_FitTverskyCombo>
2.279 

> <ROCS_ColorScore>
-5.507

> <ROCS_Overlap>
2065.371

> <ROCS_Rank>
423                 

$$$$
untitled-dbase-2024_2
  -OEChem-02082415043D

 31 32  0     1  0  0  0  0  0999 V2000
    5.5675   13.0392   25.1338 C   0  0  0  0  0  0  0  0  0  0  0  0
    6.2672   12.2934   26.0766 C   0  0  0  0  0  0  0  0  0  0  0  0
    6.0479   13.1366   23.8287 C   0  0  0  0  0  0  0  0  0  0  0  0
    7.4486   11.6474   25.7147 C   0  0  0  0  0  0  0  0  0  0  0  0
    7.2311   12.4833   23.4488 C   0  0  0  0  0  0  0  0  0  0  0  0
    7.9470   11.7398   24.4043 C   0  0  0  0  0  0  0  0  0  0  0  0
    7.7313   12.6544   22.0377 C   0  0  0  0  0  0  0  0  0  0  0  0
    8.8062   11.6439   21.6411 C   0  0  0  0  0  0  0  0  0  0  0  0
    9.2184   11.0048   24.0520 C   0  0  2  0  0  0  0  0  0  0  0  0
    9.8577   11.4537   22.7326 C   0  0  2  0  0  0  0  0  0  0  0  0
   10.0456    8.8054   24.0866 C   0  0  0  0  0  0  0  0  0  0  0  0
   11.0389   13.3656   21.3257 N   0  0  0  0  0  0  0  0  0  0  0  0
   10.0377   13.8944   23.6354 O   0  0  0  0  0  0  0  0  0  0  0  0
   12.1318   12.4884   23.4828 O   0  0  0  0  0  0  0  0  0  0  0  0
    8.8896    9.6172   23.9587 O   0  0  0  0  0  0  0  0  0  0  0  0
   10.8502   12.9076   22.9546 S   0  0  0  0  0  0  0  0  0  0  0  0
    4.6496   13.5476   25.4142 H   0  0  0  0  0  0  0  0  0  0  0  0
    5.8937   12.2137   27.0931 H   0  0  0  0  0  0  0  0  0  0  0  0
    5.4952   13.7321   23.1056 H   0  0  0  0  0  0  0  0  0  0  0  0
    7.9804   11.0686   26.4653 H   0  0  0  0  0  0  0  0  0  0  0  0
    6.8719   12.5658   21.3535 H   0  0  0  0  0  0  0  0  0  0  0  0
    8.1421   13.6681   21.9065 H   0  0  0  0  0  0  0  0  0  0  0  0
    8.3231   10.6794   21.3993 H   0  0  0  0  0  0  0  0  0  0  0  0
    9.2961   11.9687   20.7029 H   0  0  0  0  0  0  0  0  0  0  0  0
    9.9146   11.1316   24.8868 H   0  0  0  0  0  0  0  0  0  0  0  0
   10.5853   10.6701   22.3985 H   0  0  0  0  0  0  0  0  0  0  0  0
    9.7626    7.7526   24.0113 H   0  0  0  0  0  0  0  0  0  0  0  0
   10.5220    8.9975   25.0513 H   0  0  0  0  0  0  0  0  0  0  0  0
   10.7433    9.0512   23.2825 H   0  0  0  0  0  0  0  0  0  0  0  0
   10.5383   14.2017   21.0004 H   0  0  0  0  0  0  0  0  0  0  0  0
   11.9644   13.2440   20.8965 H   0  0  0  0  0  0  0  0  0  0  0  0
  1  2  1  0  0  0  0
  1  3  2  0  0  0  0
  2  4  2  0  0  0  0
  3  5  1  0  0  0  0
  4  6  1  0  0  0  0
  5  6  2  0  0  0  0
  5  7  1  0  0  0  0
  6  9  1  0  0  0  0
  7  8  1  0  0  0  0
  8 10  1  0  0  0  0
  9 10  1  0  0  0  0
  9 15  1  0  0  0  0
 10 16  1  0  0  0  0
 11 15  1  0  0  0  0
 12 16  1  0  0  0  0
 13 16  2  0  0  0  0
 14 16  2  0  0  0  0
  1 17  1  0  0  0  0
  2 18  1  0  0  0  0
  3 19  1  0  0  0  0
  4 20  1  0  0  0  0
  7 21  1  0  0  0  0
  7 22  1  0  0  0  0
  8 23  1  0  0  0  0
  8 24  1  0  0  0  0
  9 25  1  0  0  0  0
 10 26  1  0  0  0  0
 11 27  1  0  0  0  0
 11 28  1  0  0  0  0
 11 29  1  0  0  0  0
 12 30  1  0  0  0  0
 12 31  1  0  0  0  0
M  END
> <Mol Weight>
241,31

> <Formula>
C11H15NO3S

> <ID>
EN300-1719151

> <name>
Sulfonamides

> <LogP>
1,05

> <ROCS_ShapeQuery>
x0446_0A_x1080_0A_x0929_0A_x0812_0A_x0719_0A_x1140_0A_x0528_0A_x0310_0A

> <ROCS_TanimotoCombo>
0.330 

> <ROCS_ShapeTanimoto>
0.204 

> <ROCS_ColorTanimoto>
0.126 

> <ROCS_RefTversky>
0.188 

> <ROCS_RefColorTversky>
0.135 

> <ROCS_RefTverskyCombo>
0.323 

> <ROCS_FitTversky>
1.746 

> <ROCS_FitColorTversky>
0.638 

> <ROCS_FitTverskyCombo>
2.384 

> <ROCS_ColorScore>
-4.827

> <ROCS_Overlap>
2217.124

> <ROCS_Rank>
424                 

$$$$
untitled-dbase-1424_13
  -OEChem-02082415043D

 20 20  0     0  0  0  0  0  0999 V2000
    7.8226   12.8442   24.9513 C   0  0  0  0  0  0  0  0  0  0  0  0
    7.9393   11.4898   24.6391 C   0  0  0  0  0  0  0  0  0  0  0  0
    8.5118   13.7953   24.1989 C   0  0  0  0  0  0  0  0  0  0  0  0
    8.7452   11.0864   23.5745 C   0  0  0  0  0  0  0  0  0  0  0  0
    9.4344   12.0375   22.8221 C   0  0  0  0  0  0  0  0  0  0  0  0
    9.3177   13.3919   23.1343 C   0  0  0  0  0  0  0  0  0  0  0  0
   10.9826   13.6304   21.0664 N   0  0  0  0  0  0  0  0  0  0  0  0
    8.8516    9.7006   23.2731 N   0  3  0  0  0  0  0  0  0  0  0  0
    8.2162    8.8776   23.9738 O   0  5  0  0  0  0  0  0  0  0  0  0
    9.5779    9.3429   22.3158 O   0  0  0  0  0  0  0  0  0  0  0  0
    9.1876   15.4254   21.5152 O   0  0  0  0  0  0  0  0  0  0  0  0
   11.1575   15.2348   23.0743 O   0  0  0  0  0  0  0  0  0  0  0  0
   10.2246   11.6441   21.7809 O   0  0  0  0  0  0  0  0  0  0  0  0
   10.1707   14.6068   22.2086 S   0  0  0  0  0  0  0  0  0  0  0  0
    7.1961   13.1581   25.7813 H   0  0  0  0  0  0  0  0  0  0  0  0
    7.3963   10.7601   25.2348 H   0  0  0  0  0  0  0  0  0  0  0  0
    8.4131   14.8479   24.4515 H   0  0  0  0  0  0  0  0  0  0  0  0
   11.7671   13.0549   21.3961 H   0  0  0  0  0  0  0  0  0  0  0  0
   10.4227   13.1855   20.3288 H   0  0  0  0  0  0  0  0  0  0  0  0
   10.2023   10.6792   21.6927 H   0  0  0  0  0  0  0  0  0  0  0  0
  1  2  1  0  0  0  0
  1  3  2  0  0  0  0
  2  4  2  0  0  0  0
  3  6  1  0  0  0  0
  4  5  1  0  0  0  0
  4  8  1  0  0  0  0
  5  6  2  0  0  0  0
  5 13  1  0  0  0  0
  6 14  1  0  0  0  0
  7 14  1  0  0  0  0
  8  9  1  0  0  0  0
  8 10  2  0  0  0  0
 11 14  2  0  0  0  0
 12 14  2  0  0  0  0
  1 15  1  0  0  0  0
  2 16  1  0  0  0  0
  3 17  1  0  0  0  0
  7 18  1  0  0  0  0
  7 19  1  0  0  0  0
 13 20  1  0  0  0  0
M  CHG  2   8   1   9  -1
M  END
> <Mol Weight>
218,18

> <Formula>
C6H6N2O5S

> <ID>
EN300-207255

> <name>
Sulfonamides

> <LogP>
0,22

> <ROCS_ShapeQuery>
x0446_0A_x1080_0A_x0929_0A_x0812_0A_x0719_0A_x1140_0A_x0528_0A_x0310_0A

> <ROCS_TanimotoCombo>
0.330 

> <ROCS_ShapeTanimoto>
0.200 

> <ROCS_ColorTanimoto>
0.130 

> <ROCS_RefTversky>
0.184 

> <ROCS_RefColorTversky>
0.146 

> <ROCS_RefTverskyCombo>
0.329 

> <ROCS_FitTversky>
1.813 

> <ROCS_FitColorTversky>
0.549 

> <ROCS_FitTverskyCombo>
2.362 

> <ROCS_ColorScore>
-5.207

> <ROCS_Overlap>
2164.327

> <ROCS_Rank>
425                 

$$$$
untitled-dbase-1010_62
  -OEChem-02082415043D

 22 22  0     0  0  0  0  0  0999 V2000
    7.1565   11.5431   24.2218 C   0  0  0  0  0  0  0  0  0  0  0  0
    7.8485   10.3475   24.0637 C   0  0  0  0  0  0  0  0  0  0  0  0
    9.2171   12.7068   23.9847 C   0  0  0  0  0  0  0  0  0  0  0  0
    7.8465   12.7497   24.1829 C   0  0  0  0  0  0  0  0  0  0  0  0
    9.2190   10.4122   23.8706 C   0  0  0  0  0  0  0  0  0  0  0  0
    7.1353   14.0451   24.3495 C   0  0  0  0  0  0  0  0  0  0  0  0
    7.7935   15.2118   23.6045 C   0  0  0  0  0  0  0  0  0  0  0  0
    9.9237   11.5651   23.8270 N   0  0  0  0  0  0  0  0  0  0  0  0
    6.2407   15.4067   21.4593 N   0  0  0  0  0  0  0  0  0  0  0  0
    8.7511   15.9400   21.2851 O   0  0  0  0  0  0  0  0  0  0  0  0
    8.0102   13.5452   21.6037 O   0  0  0  0  0  0  0  0  0  0  0  0
    9.8998    9.2661   23.7167 F   0  0  0  0  0  0  0  0  0  0  0  0
    7.8387   14.9652   21.8570 S   0  0  0  0  0  0  0  0  0  0  0  0
    6.0808   11.5252   24.3741 H   0  0  0  0  0  0  0  0  0  0  0  0
    7.3309    9.3956   24.0897 H   0  0  0  0  0  0  0  0  0  0  0  0
    9.8079   13.6166   23.9449 H   0  0  0  0  0  0  0  0  0  0  0  0
    7.0939   14.3103   25.4217 H   0  0  0  0  0  0  0  0  0  0  0  0
    6.0792   13.9682   24.0322 H   0  0  0  0  0  0  0  0  0  0  0  0
    7.2298   16.1370   23.7620 H   0  0  0  0  0  0  0  0  0  0  0  0
    8.8243   15.3765   23.9328 H   0  0  0  0  0  0  0  0  0  0  0  0
    5.4847   14.7700   21.7396 H   0  0  0  0  0  0  0  0  0  0  0  0
    5.9895   16.4009   21.5225 H   0  0  0  0  0  0  0  0  0  0  0  0
  1  2  2  0  0  0  0
  1  4  1  0  0  0  0
  2  5  1  0  0  0  0
  3  4  2  0  0  0  0
  3  8  1  0  0  0  0
  4  6  1  0  0  0  0
  5  8  2  0  0  0  0
  5 12  1  0  0  0  0
  6  7  1  0  0  0  0
  7 13  1  0  0  0  0
  9 13  1  0  0  0  0
 10 13  2  0  0  0  0
 11 13  2  0  0  0  0
  1 14  1  0  0  0  0
  2 15  1  0  0  0  0
  3 16  1  0  0  0  0
  6 17  1  0  0  0  0
  6 18  1  0  0  0  0
  7 19  1  0  0  0  0
  7 20  1  0  0  0  0
  9 21  1  0  0  0  0
  9 22  1  0  0  0  0
M  END
> <Mol Weight>
204,22

> <Formula>
C7H9FN2O2S

> <ID>
EN300-7443177

> <name>
Sulfonamides

> <LogP>
-0,05

> <ROCS_ShapeQuery>
x0446_0A_x1080_0A_x0929_0A_x0812_0A_x0719_0A_x1140_0A_x0528_0A_x0310_0A

> <ROCS_TanimotoCombo>
0.330 

> <ROCS_ShapeTanimoto>
0.184 

> <ROCS_ColorTanimoto>
0.146 

> <ROCS_RefTversky>
0.170 

> <ROCS_RefColorTversky>
0.151 

> <ROCS_RefTverskyCombo>
0.322 

> <ROCS_FitTversky>
1.775 

> <ROCS_FitColorTversky>
0.814 

> <ROCS_FitTverskyCombo>
2.589 

> <ROCS_ColorScore>
-5.380

> <ROCS_Overlap>
2007.909

> <ROCS_Rank>
426                 

$$$$
untitled-dbase-2208_13
  -OEChem-02082415043D

 22 22  0     0  0  0  0  0  0999 V2000
    8.3155   12.9727   24.0697 C   0  0  0  0  0  0  0  0  0  0  0  0
    9.5398   11.5181   22.6408 C   0  0  0  0  0  0  0  0  0  0  0  0
    7.6647   11.8611   24.5933 C   0  0  0  0  0  0  0  0  0  0  0  0
    9.2722   12.8065   23.0745 C   0  0  0  0  0  0  0  0  0  0  0  0
    8.0042   10.6150   24.0914 C   0  0  0  0  0  0  0  0  0  0  0  0
    6.6647   12.0459   25.6348 C   0  0  0  0  0  0  0  0  0  0  0  0
    6.3119   12.8756   27.8425 C   0  0  0  0  0  0  0  0  0  0  0  0
    8.9283   10.4141   23.1253 N   0  0  0  0  0  0  0  0  0  0  0  0
   11.1290   13.4066   21.2588 N   0  0  0  0  0  0  0  0  0  0  0  0
    5.4788   11.7076   25.5330 O   0  0  0  0  0  0  0  0  0  0  0  0
    9.1433   14.9970   21.6751 O   0  0  0  0  0  0  0  0  0  0  0  0
   10.9366   14.7781   23.4311 O   0  0  0  0  0  0  0  0  0  0  0  0
    7.1996   12.6406   26.7442 O   0  0  0  0  0  0  0  0  0  0  0  0
   10.1077   14.1741   22.3949 S   0  0  0  0  0  0  0  0  0  0  0  0
    7.2720    9.1632   24.6551 Cl  0  0  0  0  0  0  0  0  0  0  0  0
    8.0785   13.9689   24.4357 H   0  0  0  0  0  0  0  0  0  0  0  0
   10.2762   11.3253   21.8668 H   0  0  0  0  0  0  0  0  0  0  0  0
    6.8597   13.3519   28.6593 H   0  0  0  0  0  0  0  0  0  0  0  0
    5.8878   11.9262   28.1789 H   0  0  0  0  0  0  0  0  0  0  0  0
    5.5062   13.5360   27.5134 H   0  0  0  0  0  0  0  0  0  0  0  0
   10.9114   13.5187   20.2610 H   0  0  0  0  0  0  0  0  0  0  0  0
   12.1351   13.3683   21.4625 H   0  0  0  0  0  0  0  0  0  0  0  0
  1  3  1  0  0  0  0
  1  4  2  0  0  0  0
  2  4  1  0  0  0  0
  2  8  2  0  0  0  0
  3  5  2  0  0  0  0
  3  6  1  0  0  0  0
  4 14  1  0  0  0  0
  5  8  1  0  0  0  0
  5 15  1  0  0  0  0
  6 10  2  0  0  0  0
  6 13  1  0  0  0  0
  7 13  1  0  0  0  0
  9 14  1  0  0  0  0
 11 14  2  0  0  0  0
 12 14  2  0  0  0  0
  1 16  1  0  0  0  0
  2 17  1  0  0  0  0
  7 18  1  0  0  0  0
  7 19  1  0  0  0  0
  7 20  1  0  0  0  0
  9 21  1  0  0  0  0
  9 22  1  0  0  0  0
M  END
> <Mol Weight>
250,65

> <Formula>
C7H7ClN2O4S

> <ID>
EN300-42619

> <name>
Sulfonamides

> <LogP>
0,19

> <ROCS_ShapeQuery>
x0446_0A_x1080_0A_x0929_0A_x0812_0A_x0719_0A_x1140_0A_x0528_0A_x0310_0A

> <ROCS_TanimotoCombo>
0.330 

> <ROCS_ShapeTanimoto>
0.187 

> <ROCS_ColorTanimoto>
0.143 

> <ROCS_RefTversky>
0.174 

> <ROCS_RefColorTversky>
0.152 

> <ROCS_RefTverskyCombo>
0.326 

> <ROCS_FitTversky>
1.681 

> <ROCS_FitColorTversky>
0.715 

> <ROCS_FitTverskyCombo>
2.396 

> <ROCS_ColorScore>
-5.408

> <ROCS_Overlap>
2050.431

> <ROCS_Rank>
427                 

$$$$
untitled-dbase-1233_30
  -OEChem-02082415043D

 29 29  0     1  0  0  0  0  0999 V2000
    8.8141   10.0427   23.5563 C   0  0  0  0  0  0  0  0  0  0  0  0
    8.0129   10.5085   24.5987 C   0  0  0  0  0  0  0  0  0  0  0  0
    9.5546   10.9428   22.7899 C   0  0  0  0  0  0  0  0  0  0  0  0
    7.9520   11.8744   24.8748 C   0  0  0  0  0  0  0  0  0  0  0  0
    9.4936   12.3087   23.0659 C   0  0  0  0  0  0  0  0  0  0  0  0
    8.6924   12.7745   24.1084 C   0  0  0  0  0  0  0  0  0  0  0  0
    7.5295   16.4772   23.9780 C   0  0  0  0  0  0  0  0  0  0  0  0
    5.0355   14.9175   21.2345 C   0  0  0  0  0  0  0  0  0  0  0  0
    8.6267   14.2534   24.4065 C   0  0  0  0  0  0  0  0  0  0  0  0
    7.5192   14.9899   23.6391 C   0  0  2  0  0  0  0  0  0  0  0  0
    6.3247   15.6263   21.3245 N   0  0  0  0  0  0  0  0  0  0  0  0
    8.9038   15.4828   21.4734 O   0  0  0  0  0  0  0  0  0  0  0  0
    7.5269   13.3741   21.5911 O   0  0  0  0  0  0  0  0  0  0  0  0
    7.7010   14.7842   21.8822 S   0  0  0  0  0  0  0  0  0  0  0  0
    8.8625    8.9789   23.3424 H   0  0  0  0  0  0  0  0  0  0  0  0
    7.4372    9.8077   25.1963 H   0  0  0  0  0  0  0  0  0  0  0  0
   10.1793   10.5804   21.9790 H   0  0  0  0  0  0  0  0  0  0  0  0
    7.3249   12.2283   25.6888 H   0  0  0  0  0  0  0  0  0  0  0  0
   10.0739   13.0026   22.4635 H   0  0  0  0  0  0  0  0  0  0  0  0
    8.5014   16.9248   23.7458 H   0  0  0  0  0  0  0  0  0  0  0  0
    6.7599   17.0181   23.4163 H   0  0  0  0  0  0  0  0  0  0  0  0
    7.3328   16.6358   25.0438 H   0  0  0  0  0  0  0  0  0  0  0  0
    4.9526   14.1994   22.0636 H   0  0  0  0  0  0  0  0  0  0  0  0
    4.2123   15.6446   21.2957 H   0  0  0  0  0  0  0  0  0  0  0  0
    4.9791   14.3796   20.2766 H   0  0  0  0  0  0  0  0  0  0  0  0
    9.6000   14.7169   24.1980 H   0  0  0  0  0  0  0  0  0  0  0  0
    8.4687   14.3651   25.4875 H   0  0  0  0  0  0  0  0  0  0  0  0
    6.5333   14.5789   23.8847 H   0  0  0  0  0  0  0  0  0  0  0  0
    6.4736   16.3179   20.5782 H   0  0  0  0  0  0  0  0  0  0  0  0
  1  2  1  0  0  0  0
  1  3  2  0  0  0  0
  2  4  2  0  0  0  0
  3  5  1  0  0  0  0
  4  6  1  0  0  0  0
  5  6  2  0  0  0  0
  6  9  1  0  0  0  0
  7 10  1  0  0  0  0
  8 11  1  0  0  0  0
  9 10  1  0  0  0  0
 10 14  1  0  0  0  0
 11 14  1  0  0  0  0
 12 14  2  0  0  0  0
 13 14  2  0  0  0  0
  1 15  1  0  0  0  0
  2 16  1  0  0  0  0
  3 17  1  0  0  0  0
  4 18  1  0  0  0  0
  5 19  1  0  0  0  0
  7 20  1  0  0  0  0
  7 21  1  0  0  0  0
  7 22  1  0  0  0  0
  8 23  1  0  0  0  0
  8 24  1  0  0  0  0
  8 25  1  0  0  0  0
  9 26  1  0  0  0  0
  9 27  1  0  0  0  0
 10 28  1  0  0  0  0
 11 29  1  0  0  0  0
M  END
> <Mol Weight>
213,30

> <Formula>
C10H15NO2S

> <ID>
EN300-680111

> <name>
Sulfonamides

> <LogP>
1,42

> <ROCS_ShapeQuery>
x0446_0A_x1080_0A_x0929_0A_x0812_0A_x0719_0A_x1140_0A_x0528_0A_x0310_0A

> <ROCS_TanimotoCombo>
0.330 

> <ROCS_ShapeTanimoto>
0.179 

> <ROCS_ColorTanimoto>
0.151 

> <ROCS_RefTversky>
0.166 

> <ROCS_RefColorTversky>
0.152 

> <ROCS_RefTverskyCombo>
0.319 

> <ROCS_FitTversky>
1.693 

> <ROCS_FitColorTversky>
0.956 

> <ROCS_FitTverskyCombo>
2.650 

> <ROCS_ColorScore>
-5.415

> <ROCS_Overlap>
1963.038

> <ROCS_Rank>
428                 

$$$$
untitled-dbase-1544_6
  -OEChem-02082415043D

 21 21  0     0  0  0  0  0  0999 V2000
    9.4623   10.5375   22.7250 C   0  0  0  0  0  0  0  0  0  0  0  0
    9.9772   11.7375   22.2348 C   0  0  0  0  0  0  0  0  0  0  0  0
    8.5388   10.5501   23.7704 C   0  0  0  0  0  0  0  0  0  0  0  0
    8.1305   11.7628   24.3257 C   0  0  0  0  0  0  0  0  0  0  0  0
    8.6455   12.9629   23.8355 C   0  0  0  0  0  0  0  0  0  0  0  0
    9.5688   12.9502   22.7900 C   0  0  0  0  0  0  0  0  0  0  0  0
    8.4985    8.1762   23.6329 C   0  0  0  0  0  0  0  0  0  0  0  0
   11.2587   13.8733   20.9469 N   0  0  0  0  0  0  0  0  0  0  0  0
    9.1311   15.1972   21.5520 O   0  0  0  0  0  0  0  0  0  0  0  0
   11.0195   15.0714   23.2150 O   0  0  0  0  0  0  0  0  0  0  0  0
    8.0370    9.3783   24.2475 O   0  0  0  0  0  0  0  0  0  0  0  0
    7.2432   11.7814   25.3299 F   0  0  0  0  0  0  0  0  0  0  0  0
    8.2450   14.1219   24.3762 F   0  0  0  0  0  0  0  0  0  0  0  0
   10.2162   14.4498   22.1717 S   0  0  0  0  0  0  0  0  0  0  0  0
    9.7845    9.5961   22.2885 H   0  0  0  0  0  0  0  0  0  0  0  0
   10.6957   11.7162   21.4197 H   0  0  0  0  0  0  0  0  0  0  0  0
    8.0199    7.3163   24.1078 H   0  0  0  0  0  0  0  0  0  0  0  0
    9.5842    8.1062   23.7374 H   0  0  0  0  0  0  0  0  0  0  0  0
    8.2370    8.1962   22.5723 H   0  0  0  0  0  0  0  0  0  0  0  0
   10.9826   14.0238   19.9689 H   0  0  0  0  0  0  0  0  0  0  0  0
   12.2715   13.9367   21.1069 H   0  0  0  0  0  0  0  0  0  0  0  0
  1  2  2  0  0  0  0
  1  3  1  0  0  0  0
  2  6  1  0  0  0  0
  3  4  2  0  0  0  0
  3 11  1  0  0  0  0
  4  5  1  0  0  0  0
  4 12  1  0  0  0  0
  5  6  2  0  0  0  0
  5 13  1  0  0  0  0
  6 14  1  0  0  0  0
  7 11  1  0  0  0  0
  8 14  1  0  0  0  0
  9 14  2  0  0  0  0
 10 14  2  0  0  0  0
  1 15  1  0  0  0  0
  2 16  1  0  0  0  0
  7 17  1  0  0  0  0
  7 18  1  0  0  0  0
  7 19  1  0  0  0  0
  8 20  1  0  0  0  0
  8 21  1  0  0  0  0
M  END
> <Mol Weight>
223,19

> <Formula>
C7H7F2NO3S

> <ID>
EN300-274975

> <name>
Sulfonamides

> <LogP>
0,71

> <ROCS_ShapeQuery>
x0446_0A_x1080_0A_x0929_0A_x0812_0A_x0719_0A_x1140_0A_x0528_0A_x0310_0A

> <ROCS_TanimotoCombo>
0.330 

> <ROCS_ShapeTanimoto>
0.198 

> <ROCS_ColorTanimoto>
0.132 

> <ROCS_RefTversky>
0.182 

> <ROCS_RefColorTversky>
0.138 

> <ROCS_RefTverskyCombo>
0.320 

> <ROCS_FitTversky>
1.806 

> <ROCS_FitColorTversky>
0.742 

> <ROCS_FitTverskyCombo>
2.548 

> <ROCS_ColorScore>
-4.908

> <ROCS_Overlap>
2148.700

> <ROCS_Rank>
429                 

$$$$
untitled-dbase-1088_14
  -OEChem-02082415043D

 20 20  0     0  0  0  0  0  0999 V2000
    9.0147   10.0592   24.6909 C   0  0  0  0  0  0  0  0  0  0  0  0
    9.9449   10.2971   23.6791 C   0  0  0  0  0  0  0  0  0  0  0  0
    7.8805   10.8639   24.7989 C   0  0  0  0  0  0  0  0  0  0  0  0
    8.6066   12.1445   22.8832 C   0  0  0  0  0  0  0  0  0  0  0  0
    9.7408   11.3398   22.7752 C   0  0  0  0  0  0  0  0  0  0  0  0
    7.6764   11.9066   23.8951 C   0  0  0  0  0  0  0  0  0  0  0  0
    8.3882   13.2594   21.9165 C   0  0  0  0  0  0  0  0  0  0  0  0
   10.9139   13.5718   21.1586 N   0  0  0  0  0  0  0  0  0  0  0  0
    9.3772   15.6211   21.3953 O   0  0  0  0  0  0  0  0  0  0  0  0
   10.1505   14.4034   23.4700 O   0  0  0  0  0  0  0  0  0  0  0  0
   10.6404   11.5607   21.8066 F   0  0  0  0  0  0  0  0  0  0  0  0
    6.5837   12.6746   24.0071 F   0  0  0  0  0  0  0  0  0  0  0  0
    9.7331   14.3888   22.0783 S   0  0  0  0  0  0  0  0  0  0  0  0
    9.1741    9.2480   25.3951 H   0  0  0  0  0  0  0  0  0  0  0  0
   10.8279    9.6707   23.5948 H   0  0  0  0  0  0  0  0  0  0  0  0
    7.1567   10.6792   25.5872 H   0  0  0  0  0  0  0  0  0  0  0  0
    7.4610   13.8080   22.1172 H   0  0  0  0  0  0  0  0  0  0  0  0
    8.3641   12.9104   20.8780 H   0  0  0  0  0  0  0  0  0  0  0  0
   11.3159   12.7121   21.5521 H   0  0  0  0  0  0  0  0  0  0  0  0
   10.7892   13.5417   20.1392 H   0  0  0  0  0  0  0  0  0  0  0  0
  1  2  1  0  0  0  0
  1  3  2  0  0  0  0
  2  5  2  0  0  0  0
  3  6  1  0  0  0  0
  4  5  1  0  0  0  0
  4  6  2  0  0  0  0
  4  7  1  0  0  0  0
  5 11  1  0  0  0  0
  6 12  1  0  0  0  0
  7 13  1  0  0  0  0
  8 13  1  0  0  0  0
  9 13  2  0  0  0  0
 10 13  2  0  0  0  0
  1 14  1  0  0  0  0
  2 15  1  0  0  0  0
  3 16  1  0  0  0  0
  7 17  1  0  0  0  0
  7 18  1  0  0  0  0
  8 19  1  0  0  0  0
  8 20  1  0  0  0  0
M  END
> <Mol Weight>
207,19

> <Formula>
C7H7F2NO2S

> <ID>
EN300-114717

> <name>
Sulfonamides

> <LogP>
0,63

> <ROCS_ShapeQuery>
x0446_0A_x1080_0A_x0929_0A_x0812_0A_x0719_0A_x1140_0A_x0528_0A_x0310_0A

> <ROCS_TanimotoCombo>
0.330 

> <ROCS_ShapeTanimoto>
0.184 

> <ROCS_ColorTanimoto>
0.146 

> <ROCS_RefTversky>
0.171 

> <ROCS_RefColorTversky>
0.148 

> <ROCS_RefTverskyCombo>
0.318 

> <ROCS_FitTversky>
1.760 

> <ROCS_FitColorTversky>
0.926 

> <ROCS_FitTverskyCombo>
2.686 

> <ROCS_ColorScore>
-5.243

> <ROCS_Overlap>
2010.972

> <ROCS_Rank>
430                 

$$$$
untitled-dbase-1720_42
  -OEChem-02082415043D

 30 30  0     0  0  0  0  0  0999 V2000
    9.4518   10.5550   22.7268 C   0  0  0  0  0  0  0  0  0  0  0  0
    9.9643   11.7591   22.2439 C   0  0  0  0  0  0  0  0  0  0  0  0
    8.1211   11.7675   24.3381 C   0  0  0  0  0  0  0  0  0  0  0  0
    8.6336   12.9717   23.8552 C   0  0  0  0  0  0  0  0  0  0  0  0
    8.5302   10.5593   23.7739 C   0  0  0  0  0  0  0  0  0  0  0  0
    9.5552   12.9674   22.8081 C   0  0  0  0  0  0  0  0  0  0  0  0
    7.1319   11.7615   25.4600 C   0  0  0  0  0  0  0  0  0  0  0  0
    8.1897   14.2638   24.4655 C   0  0  0  0  0  0  0  0  0  0  0  0
    9.9622    9.5870   25.6431 C   0  0  0  0  0  0  0  0  0  0  0  0
    8.7596    8.7391   25.2873 C   0  0  0  0  0  0  0  0  0  0  0  0
   11.2532   13.8553   20.9552 N   0  0  0  0  0  0  0  0  0  0  0  0
    9.1431   15.2100   21.5533 O   0  0  0  0  0  0  0  0  0  0  0  0
   11.0326   15.0738   23.2143 O   0  0  0  0  0  0  0  0  0  0  0  0
    8.0404    9.3729   24.2314 O   0  0  0  0  0  0  0  0  0  0  0  0
   10.2214   14.4574   22.1757 S   0  0  0  0  0  0  0  0  0  0  0  0
    9.7753    9.6171   22.2831 H   0  0  0  0  0  0  0  0  0  0  0  0
   10.6819   11.7424   21.4279 H   0  0  0  0  0  0  0  0  0  0  0  0
    6.1119   11.8155   25.0643 H   0  0  0  0  0  0  0  0  0  0  0  0
    7.2267   10.8518   26.0642 H   0  0  0  0  0  0  0  0  0  0  0  0
    7.2935   12.6120   26.1325 H   0  0  0  0  0  0  0  0  0  0  0  0
    8.8484   14.5335   25.2978 H   0  0  0  0  0  0  0  0  0  0  0  0
    8.2057   15.0736   23.7273 H   0  0  0  0  0  0  0  0  0  0  0  0
    7.1621   14.1898   24.8395 H   0  0  0  0  0  0  0  0  0  0  0  0
   10.6295    9.6979   24.7838 H   0  0  0  0  0  0  0  0  0  0  0  0
    9.6482   10.5812   25.9775 H   0  0  0  0  0  0  0  0  0  0  0  0
   10.5219    9.1355   26.4690 H   0  0  0  0  0  0  0  0  0  0  0  0
    8.0964    8.6322   26.1509 H   0  0  0  0  0  0  0  0  0  0  0  0
    9.0751    7.7465   24.9526 H   0  0  0  0  0  0  0  0  0  0  0  0
   10.9773   14.0016   19.9765 H   0  0  0  0  0  0  0  0  0  0  0  0
   12.2669   13.9075   21.1130 H   0  0  0  0  0  0  0  0  0  0  0  0
  1  2  2  0  0  0  0
  1  5  1  0  0  0  0
  2  6  1  0  0  0  0
  3  4  1  0  0  0  0
  3  5  2  0  0  0  0
  3  7  1  0  0  0  0
  4  6  2  0  0  0  0
  4  8  1  0  0  0  0
  5 14  1  0  0  0  0
  6 15  1  0  0  0  0
  9 10  1  0  0  0  0
 10 14  1  0  0  0  0
 11 15  1  0  0  0  0
 12 15  2  0  0  0  0
 13 15  2  0  0  0  0
  1 16  1  0  0  0  0
  2 17  1  0  0  0  0
  7 18  1  0  0  0  0
  7 19  1  0  0  0  0
  7 20  1  0  0  0  0
  8 21  1  0  0  0  0
  8 22  1  0  0  0  0
  8 23  1  0  0  0  0
  9 24  1  0  0  0  0
  9 25  1  0  0  0  0
  9 26  1  0  0  0  0
 10 27  1  0  0  0  0
 10 28  1  0  0  0  0
 11 29  1  0  0  0  0
 11 30  1  0  0  0  0
M  END
> <Mol Weight>
229,29

> <Formula>
C10H15NO3S

> <ID>
EN300-271818

> <name>
Sulfonamides

> <LogP>
1,81

> <ROCS_ShapeQuery>
x0446_0A_x1080_0A_x0929_0A_x0812_0A_x0719_0A_x1140_0A_x0528_0A_x0310_0A

> <ROCS_TanimotoCombo>
0.330 

> <ROCS_ShapeTanimoto>
0.198 

> <ROCS_ColorTanimoto>
0.132 

> <ROCS_RefTversky>
0.182 

> <ROCS_RefColorTversky>
0.138 

> <ROCS_RefTverskyCombo>
0.320 

> <ROCS_FitTversky>
1.769 

> <ROCS_FitColorTversky>
0.744 

> <ROCS_FitTverskyCombo>
2.513 

> <ROCS_ColorScore>
-4.918

> <ROCS_Overlap>
2149.025

> <ROCS_Rank>
431                 

$$$$
untitled-dbase-1064_22
  -OEChem-02082415043D

 19 19  0     0  0  0  0  0  0999 V2000
    7.5613   12.1056   24.6606 C   0  0  0  0  0  0  0  0  0  0  0  0
    8.2791   12.6377   23.5953 C   0  0  0  0  0  0  0  0  0  0  0  0
    7.6354   10.7386   24.8742 C   0  0  0  0  0  0  0  0  0  0  0  0
    9.0384   11.7984   22.7876 C   0  0  0  0  0  0  0  0  0  0  0  0
    9.0466   10.4452   23.0852 C   0  0  0  0  0  0  0  0  0  0  0  0
    9.8069   12.3738   21.6476 C   0  0  0  0  0  0  0  0  0  0  0  0
    8.3622    9.8917   24.1112 N   0  0  0  0  0  0  0  0  0  0  0  0
   11.5244   14.2851   20.9782 N   0  0  0  0  0  0  0  0  0  0  0  0
    9.1260   14.8962   21.6787 O   0  0  0  0  0  0  0  0  0  0  0  0
   10.7492   14.0473   23.4194 O   0  0  0  0  0  0  0  0  0  0  0  0
   10.2318   14.0351   22.0617 S   0  0  0  0  0  0  0  0  0  0  0  0
    9.9442    9.3068   22.1594 Cl  0  0  0  0  0  0  0  0  0  0  0  0
    6.9631   12.7409   25.3038 H   0  0  0  0  0  0  0  0  0  0  0  0
    8.2404   13.7064   23.4029 H   0  0  0  0  0  0  0  0  0  0  0  0
    7.0939   10.2740   25.6916 H   0  0  0  0  0  0  0  0  0  0  0  0
    9.2226   12.3971   20.7202 H   0  0  0  0  0  0  0  0  0  0  0  0
   10.7373   11.8271   21.4536 H   0  0  0  0  0  0  0  0  0  0  0  0
   12.4065   13.7922   21.1644 H   0  0  0  0  0  0  0  0  0  0  0  0
   11.3009   14.3706   19.9790 H   0  0  0  0  0  0  0  0  0  0  0  0
  1  2  2  0  0  0  0
  1  3  1  0  0  0  0
  2  4  1  0  0  0  0
  3  7  2  0  0  0  0
  4  5  2  0  0  0  0
  4  6  1  0  0  0  0
  5  7  1  0  0  0  0
  5 12  1  0  0  0  0
  6 11  1  0  0  0  0
  8 11  1  0  0  0  0
  9 11  2  0  0  0  0
 10 11  2  0  0  0  0
  1 13  1  0  0  0  0
  2 14  1  0  0  0  0
  3 15  1  0  0  0  0
  6 16  1  0  0  0  0
  6 17  1  0  0  0  0
  8 18  1  0  0  0  0
  8 19  1  0  0  0  0
M  END
> <Mol Weight>
206,64

> <Formula>
C6H7ClN2O2S

> <ID>
EN300-274604

> <name>
Sulfonamides

> <LogP>
-0,05

> <ROCS_ShapeQuery>
x0446_0A_x1080_0A_x0929_0A_x0812_0A_x0719_0A_x1140_0A_x0528_0A_x0310_0A

> <ROCS_TanimotoCombo>
0.330 

> <ROCS_ShapeTanimoto>
0.178 

> <ROCS_ColorTanimoto>
0.152 

> <ROCS_RefTversky>
0.165 

> <ROCS_RefColorTversky>
0.156 

> <ROCS_RefTverskyCombo>
0.321 

> <ROCS_FitTversky>
1.791 

> <ROCS_FitColorTversky>
0.840 

> <ROCS_FitTverskyCombo>
2.631 

> <ROCS_ColorScore>
-5.555

> <ROCS_Overlap>
1947.103

> <ROCS_Rank>
432                 

$$$$
untitled-dbase-692_11
  -OEChem-02082415043D

 23 24  0     0  0  0  0  0  0999 V2000
    8.2020   12.0689   22.1454 C   0  0  0  0  0  0  0  0  0  0  0  0
   10.1721   11.3223   22.5864 C   0  0  0  0  0  0  0  0  0  0  0  0
    7.7065   10.1037   24.9615 C   0  0  0  0  0  0  0  0  0  0  0  0
    8.5403   11.1687   25.6503 C   0  0  0  0  0  0  0  0  0  0  0  0
    9.6149   12.3886   21.6280 C   0  0  0  0  0  0  0  0  0  0  0  0
    8.8311   11.3416   23.3565 C   0  0  0  0  0  0  0  0  0  0  0  0
   11.4067   14.1720   20.7903 N   0  0  0  0  0  0  0  0  0  0  0  0
    9.0969   14.9583   21.6047 O   0  0  0  0  0  0  0  0  0  0  0  0
   10.7664   14.0677   23.2795 O   0  0  0  0  0  0  0  0  0  0  0  0
    8.2736   10.0353   23.6483 O   0  0  0  0  0  0  0  0  0  0  0  0
    8.8347   12.0931   24.5971 O   0  0  0  0  0  0  0  0  0  0  0  0
   10.1707   14.0482   21.9567 S   0  0  0  0  0  0  0  0  0  0  0  0
    7.5918   12.9419   22.4217 H   0  0  0  0  0  0  0  0  0  0  0  0
    7.6037   11.4374   21.4746 H   0  0  0  0  0  0  0  0  0  0  0  0
   10.4264   10.3675   22.1066 H   0  0  0  0  0  0  0  0  0  0  0  0
   11.0346   11.6363   23.1933 H   0  0  0  0  0  0  0  0  0  0  0  0
    7.8337    9.1251   25.4352 H   0  0  0  0  0  0  0  0  0  0  0  0
    6.6452   10.3585   24.9144 H   0  0  0  0  0  0  0  0  0  0  0  0
    7.9624   11.6998   26.4133 H   0  0  0  0  0  0  0  0  0  0  0  0
    9.4591   10.7726   26.0892 H   0  0  0  0  0  0  0  0  0  0  0  0
    9.7570   12.1378   20.5739 H   0  0  0  0  0  0  0  0  0  0  0  0
   11.2423   14.7830   19.9809 H   0  0  0  0  0  0  0  0  0  0  0  0
   12.3793   14.1762   21.1215 H   0  0  0  0  0  0  0  0  0  0  0  0
  1  5  1  0  0  0  0
  1  6  1  0  0  0  0
  2  5  1  0  0  0  0
  2  6  1  0  0  0  0
  3  4  1  0  0  0  0
  3 10  1  0  0  0  0
  4 11  1  0  0  0  0
  5 12  1  0  0  0  0
  6 10  1  0  0  0  0
  6 11  1  0  0  0  0
  7 12  1  0  0  0  0
  8 12  2  0  0  0  0
  9 12  2  0  0  0  0
  1 13  1  0  0  0  0
  1 14  1  0  0  0  0
  2 15  1  0  0  0  0
  2 16  1  0  0  0  0
  3 17  1  0  0  0  0
  3 18  1  0  0  0  0
  4 19  1  0  0  0  0
  4 20  1  0  0  0  0
  5 21  1  0  0  0  0
  7 22  1  0  0  0  0
  7 23  1  0  0  0  0
M  END
> <Mol Weight>
193,22

> <Formula>
C6H11NO4S

> <ID>
EN300-27784322

> <name>
Sulfonamides

> <LogP>
-0,51

> <ROCS_ShapeQuery>
x0446_0A_x1080_0A_x0929_0A_x0812_0A_x0719_0A_x1140_0A_x0528_0A_x0310_0A

> <ROCS_TanimotoCombo>
0.330 

> <ROCS_ShapeTanimoto>
0.163 

> <ROCS_ColorTanimoto>
0.166 

> <ROCS_RefTversky>
0.154 

> <ROCS_RefColorTversky>
0.177 

> <ROCS_RefTverskyCombo>
0.330 

> <ROCS_FitTversky>
1.648 

> <ROCS_FitColorTversky>
0.739 

> <ROCS_FitTverskyCombo>
2.386 

> <ROCS_ColorScore>
-6.301

> <ROCS_Overlap>
1810.751

> <ROCS_Rank>
433                 

$$$$
untitled-dbase-1934_0
  -OEChem-02082415043D

 23 24  0     0  0  0  0  0  0999 V2000
    9.5527   10.3365   23.6718 C   0  0  0  0  0  0  0  0  0  0  0  0
    9.5900   11.7471   23.6863 C   0  0  0  0  0  0  0  0  0  0  0  0
    8.3100   12.1222   24.0218 C   0  0  0  0  0  0  0  0  0  0  0  0
    7.6464   13.4374   24.2300 C   0  0  0  0  0  0  0  0  0  0  0  0
    6.2055   10.8881   24.4911 C   0  0  0  0  0  0  0  0  0  0  0  0
    5.6788   12.2407   24.9821 C   0  0  0  0  0  0  0  0  0  0  0  0
    8.3462    9.8451   23.9736 N   0  0  0  0  0  0  0  0  0  0  0  0
    7.6206   10.9532   24.1891 N   0  0  0  0  0  0  0  0  0  0  0  0
    6.1782   13.3458   24.1501 N   0  0  0  0  0  0  0  0  0  0  0  0
   10.7881   12.9985   21.6605 N   0  0  0  0  0  0  0  0  0  0  0  0
   10.7453   14.0566   24.0108 O   0  0  0  0  0  0  0  0  0  0  0  0
   12.1784   12.0258   23.5990 O   0  0  0  0  0  0  0  0  0  0  0  0
   10.9204   12.7503   23.3557 S   0  0  0  0  0  0  0  0  0  0  0  0
   10.3548    9.6450   23.4555 H   0  0  0  0  0  0  0  0  0  0  0  0
    7.9174   13.8475   25.2110 H   0  0  0  0  0  0  0  0  0  0  0  0
    8.0065   14.1524   23.4781 H   0  0  0  0  0  0  0  0  0  0  0  0
    6.0859   10.1193   25.2621 H   0  0  0  0  0  0  0  0  0  0  0  0
    5.6784   10.5751   23.5847 H   0  0  0  0  0  0  0  0  0  0  0  0
    4.5794   12.2479   24.9775 H   0  0  0  0  0  0  0  0  0  0  0  0
    5.9866   12.3995   26.0234 H   0  0  0  0  0  0  0  0  0  0  0  0
    5.7723   14.2191   24.4819 H   0  0  0  0  0  0  0  0  0  0  0  0
   11.0154   12.2180   21.0323 H   0  0  0  0  0  0  0  0  0  0  0  0
   10.0375   13.6069   21.3119 H   0  0  0  0  0  0  0  0  0  0  0  0
  1  2  1  0  0  0  0
  1  7  2  0  0  0  0
  2  3  2  0  0  0  0
  2 13  1  0  0  0  0
  3  4  1  0  0  0  0
  3  8  1  0  0  0  0
  4  9  1  0  0  0  0
  5  6  1  0  0  0  0
  5  8  1  0  0  0  0
  6  9  1  0  0  0  0
  7  8  1  0  0  0  0
 10 13  1  0  0  0  0
 11 13  2  0  0  0  0
 12 13  2  0  0  0  0
  1 14  1  0  0  0  0
  4 15  1  0  0  0  0
  4 16  1  0  0  0  0
  5 17  1  0  0  0  0
  5 18  1  0  0  0  0
  6 19  1  0  0  0  0
  6 20  1  0  0  0  0
  9 21  1  0  0  0  0
 10 22  1  0  0  0  0
 10 23  1  0  0  0  0
M  END
> <Mol Weight>
238,69

> <Formula>
C6H11ClN4O2S

> <ID>
EN300-6526635

> <name>
Sulfonamides

> <LogP>
-1,69

> <ROCS_ShapeQuery>
x0446_0A_x1080_0A_x0929_0A_x0812_0A_x0719_0A_x1140_0A_x0528_0A_x0310_0A

> <ROCS_TanimotoCombo>
0.330 

> <ROCS_ShapeTanimoto>
0.196 

> <ROCS_ColorTanimoto>
0.134 

> <ROCS_RefTversky>
0.180 

> <ROCS_RefColorTversky>
0.150 

> <ROCS_RefTverskyCombo>
0.329 

> <ROCS_FitTversky>
1.831 

> <ROCS_FitColorTversky>
0.563 

> <ROCS_FitTverskyCombo>
2.395 

> <ROCS_ColorScore>
-5.342

> <ROCS_Overlap>
2118.623

> <ROCS_Rank>
434                 

$$$$
untitled-dbase-949_26
  -OEChem-02082415043D

 23 23  0     0  0  0  0  0  0999 V2000
    8.0495   10.6582   23.9801 C   0  0  0  0  0  0  0  0  0  0  0  0
    7.4143   11.3684   22.9675 C   0  0  0  0  0  0  0  0  0  0  0  0
    9.2827   11.1144   24.4170 C   0  0  0  0  0  0  0  0  0  0  0  0
    8.0230   12.4972   22.4304 C   0  0  0  0  0  0  0  0  0  0  0  0
    9.2573   12.8712   22.9368 C   0  0  0  0  0  0  0  0  0  0  0  0
    6.2629   14.7077   22.9051 C   0  0  0  0  0  0  0  0  0  0  0  0
    6.1316   13.7589   21.7328 C   0  0  0  0  0  0  0  0  0  0  0  0
    9.9052   12.2065   23.9196 N   0  0  0  0  0  0  0  0  0  0  0  0
   11.0785   13.5633   21.1177 N   0  0  0  0  0  0  0  0  0  0  0  0
    9.2092   15.2066   21.7891 O   0  0  0  0  0  0  0  0  0  0  0  0
   11.0498   14.6950   23.4318 O   0  0  0  0  0  0  0  0  0  0  0  0
    7.4133   13.1988   21.4417 O   0  0  0  0  0  0  0  0  0  0  0  0
   10.1471   14.2549   22.3740 S   0  0  0  0  0  0  0  0  0  0  0  0
    7.5938    9.7754   24.4138 H   0  0  0  0  0  0  0  0  0  0  0  0
    6.4463   11.0374   22.6018 H   0  0  0  0  0  0  0  0  0  0  0  0
    9.8195   10.5959   25.2046 H   0  0  0  0  0  0  0  0  0  0  0  0
    6.6241   14.1825   23.7936 H   0  0  0  0  0  0  0  0  0  0  0  0
    6.9573   15.5204   22.6680 H   0  0  0  0  0  0  0  0  0  0  0  0
    5.2980   15.1709   23.1364 H   0  0  0  0  0  0  0  0  0  0  0  0
    5.7700   14.2904   20.8475 H   0  0  0  0  0  0  0  0  0  0  0  0
    5.4382   12.9471   21.9716 H   0  0  0  0  0  0  0  0  0  0  0  0
   10.8314   13.7968   20.1483 H   0  0  0  0  0  0  0  0  0  0  0  0
   12.0873   13.4464   21.2723 H   0  0  0  0  0  0  0  0  0  0  0  0
  1  2  2  0  0  0  0
  1  3  1  0  0  0  0
  2  4  1  0  0  0  0
  3  8  2  0  0  0  0
  4  5  2  0  0  0  0
  4 12  1  0  0  0  0
  5  8  1  0  0  0  0
  5 13  1  0  0  0  0
  6  7  1  0  0  0  0
  7 12  1  0  0  0  0
  9 13  1  0  0  0  0
 10 13  2  0  0  0  0
 11 13  2  0  0  0  0
  1 14  1  0  0  0  0
  2 15  1  0  0  0  0
  3 16  1  0  0  0  0
  6 17  1  0  0  0  0
  6 18  1  0  0  0  0
  6 19  1  0  0  0  0
  7 20  1  0  0  0  0
  7 21  1  0  0  0  0
  9 22  1  0  0  0  0
  9 23  1  0  0  0  0
M  END
> <Mol Weight>
202,23

> <Formula>
C7H10N2O3S

> <ID>
EN300-285526

> <name>
Sulfonamides

> <LogP>
0,16

> <ROCS_ShapeQuery>
x0446_0A_x1080_0A_x0929_0A_x0812_0A_x0719_0A_x1140_0A_x0528_0A_x0310_0A

> <ROCS_TanimotoCombo>
0.330 

> <ROCS_ShapeTanimoto>
0.163 

> <ROCS_ColorTanimoto>
0.167 

> <ROCS_RefTversky>
0.153 

> <ROCS_RefColorTversky>
0.173 

> <ROCS_RefTverskyCombo>
0.327 

> <ROCS_FitTversky>
1.590 

> <ROCS_FitColorTversky>
0.817 

> <ROCS_FitTverskyCombo>
2.407 

> <ROCS_ColorScore>
-6.179

> <ROCS_Overlap>
1808.994

> <ROCS_Rank>
435                 

$$$$
untitled-dbase-2112_1400
  -OEChem-02082415043D

 31 31  0     0  0  0  0  0  0999 V2000
    9.4039   10.5152   22.7687 C   0  0  0  0  0  0  0  0  0  0  0  0
    9.9344   11.7140   22.2923 C   0  0  0  0  0  0  0  0  0  0  0  0
    8.5151   12.9455   23.8109 C   0  0  0  0  0  0  0  0  0  0  0  0
    8.4290   10.5315   23.7662 C   0  0  0  0  0  0  0  0  0  0  0  0
    7.9846   11.7466   24.2873 C   0  0  0  0  0  0  0  0  0  0  0  0
    9.4900   12.9291   22.8134 C   0  0  0  0  0  0  0  0  0  0  0  0
    9.6496    7.8055   24.8055 C   0  0  0  0  0  0  0  0  0  0  0  0
    5.4347   13.0104   23.9754 C   0  0  0  0  0  0  0  0  0  0  0  0
    8.5835    8.7447   25.3280 C   0  0  0  0  0  0  0  0  0  0  0  0
    6.1726   12.9127   25.2936 C   0  0  0  0  0  0  0  0  0  0  0  0
   11.2650   13.8539   21.0530 N   0  0  0  0  0  0  0  0  0  0  0  0
    9.0974   15.1628   21.5366 O   0  0  0  0  0  0  0  0  0  0  0  0
   10.8981   15.0666   23.2961 O   0  0  0  0  0  0  0  0  0  0  0  0
    7.9188    9.3538   24.2229 O   0  0  0  0  0  0  0  0  0  0  0  0
    7.0327   11.7755   25.2614 O   0  0  0  0  0  0  0  0  0  0  0  0
   10.1552   14.4296   22.2177 S   0  0  0  0  0  0  0  0  0  0  0  0
    9.7549    9.5718   22.3591 H   0  0  0  0  0  0  0  0  0  0  0  0
   10.6938   11.6898   21.5154 H   0  0  0  0  0  0  0  0  0  0  0  0
    8.1656   13.8904   24.2197 H   0  0  0  0  0  0  0  0  0  0  0  0
    9.2078    7.0189   24.1874 H   0  0  0  0  0  0  0  0  0  0  0  0
   10.3867    8.3522   24.2083 H   0  0  0  0  0  0  0  0  0  0  0  0
   10.1935    7.3399   25.6341 H   0  0  0  0  0  0  0  0  0  0  0  0
    6.1353   13.1262   23.1437 H   0  0  0  0  0  0  0  0  0  0  0  0
    4.8286   12.1146   23.8049 H   0  0  0  0  0  0  0  0  0  0  0  0
    4.7478   13.8633   23.9800 H   0  0  0  0  0  0  0  0  0  0  0  0
    9.0321    9.5288   25.9453 H   0  0  0  0  0  0  0  0  0  0  0  0
    7.8474    8.1967   25.9237 H   0  0  0  0  0  0  0  0  0  0  0  0
    5.4663   12.7971   26.1211 H   0  0  0  0  0  0  0  0  0  0  0  0
    6.7783   13.8082   25.4619 H   0  0  0  0  0  0  0  0  0  0  0  0
   11.0386   13.9946   20.0608 H   0  0  0  0  0  0  0  0  0  0  0  0
   12.2675   13.9278   21.2646 H   0  0  0  0  0  0  0  0  0  0  0  0
  1  2  2  0  0  0  0
  1  4  1  0  0  0  0
  2  6  1  0  0  0  0
  3  5  1  0  0  0  0
  3  6  2  0  0  0  0
  4  5  2  0  0  0  0
  4 14  1  0  0  0  0
  5 15  1  0  0  0  0
  6 16  1  0  0  0  0
  7  9  1  0  0  0  0
  8 10  1  0  0  0  0
  9 14  1  0  0  0  0
 10 15  1  0  0  0  0
 11 16  1  0  0  0  0
 12 16  2  0  0  0  0
 13 16  2  0  0  0  0
  1 17  1  0  0  0  0
  2 18  1  0  0  0  0
  3 19  1  0  0  0  0
  7 20  1  0  0  0  0
  7 21  1  0  0  0  0
  7 22  1  0  0  0  0
  8 23  1  0  0  0  0
  8 24  1  0  0  0  0
  8 25  1  0  0  0  0
  9 26  1  0  0  0  0
  9 27  1  0  0  0  0
 10 28  1  0  0  0  0
 10 29  1  0  0  0  0
 11 30  1  0  0  0  0
 11 31  1  0  0  0  0
M  END
> <Mol Weight>
245,29

> <Formula>
C10H15NO4S

> <ID>
EN300-13877

> <name>
Sulfonamides

> <LogP>
0,98

> <ROCS_ShapeQuery>
x0446_0A_x1080_0A_x0929_0A_x0812_0A_x0719_0A_x1140_0A_x0528_0A_x0310_0A

> <ROCS_TanimotoCombo>
0.330 

> <ROCS_ShapeTanimoto>
0.199 

> <ROCS_ColorTanimoto>
0.130 

> <ROCS_RefTversky>
0.184 

> <ROCS_RefColorTversky>
0.140 

> <ROCS_RefTverskyCombo>
0.324 

> <ROCS_FitTversky>
1.729 

> <ROCS_FitColorTversky>
0.658 

> <ROCS_FitTverskyCombo>
2.387 

> <ROCS_ColorScore>
-4.978

> <ROCS_Overlap>
2169.000

> <ROCS_Rank>
436                 

$$$$
untitled-dbase-1838_631
  -OEChem-02082415043D

 33 33  0     0  0  0  0  0  0999 V2000
    9.7593   11.6921   22.8036 B   0  0  0  0  0  0  0  0  0  0  0  0
    8.7246   10.8598   24.6674 C   0  0  0  0  0  0  0  0  0  0  0  0
    7.6931   11.6419   23.7866 C   0  0  0  0  0  0  0  0  0  0  0  0
    9.1862   11.6028   25.9414 C   0  0  0  0  0  0  0  0  0  0  0  0
    8.2760    9.4509   25.0809 C   0  0  0  0  0  0  0  0  0  0  0  0
    6.8646   12.6877   24.5463 C   0  0  0  0  0  0  0  0  0  0  0  0
    6.7146   10.7520   22.9873 C   0  0  0  0  0  0  0  0  0  0  0  0
   11.7345   15.7971   22.1296 C   0  0  0  0  0  0  0  0  0  0  0  0
   10.8832   12.0117   21.7633 C   0  0  0  0  0  0  0  0  0  0  0  0
   10.9008   13.4082   21.2346 N   0  0  0  0  0  0  0  0  0  0  0  0
    9.2381   15.3463   21.5200 O   0  0  0  0  0  0  0  0  0  0  0  0
   10.1963   14.2529   23.5798 O   0  0  0  0  0  0  0  0  0  0  0  0
    9.8967   10.7277   23.7995 O   0  0  0  0  0  0  0  0  0  0  0  0
    8.5283   12.3446   22.8103 O   0  0  0  0  0  0  0  0  0  0  0  0
   10.3385   14.6983   22.2075 S   0  0  0  0  0  0  0  0  0  0  0  0
    9.8931   10.9796   26.4746 H   0  0  0  0  0  0  0  0  0  0  0  0
    8.3231   11.8008   26.5644 H   0  0  0  0  0  0  0  0  0  0  0  0
    9.6571   12.5344   25.6533 H   0  0  0  0  0  0  0  0  0  0  0  0
    9.0505    8.9882   25.6855 H   0  0  0  0  0  0  0  0  0  0  0  0
    8.1031    8.8516   24.1918 H   0  0  0  0  0  0  0  0  0  0  0  0
    7.3578    9.5190   25.6570 H   0  0  0  0  0  0  0  0  0  0  0  0
    6.1811   13.1762   23.8581 H   0  0  0  0  0  0  0  0  0  0  0  0
    7.5295   13.4269   24.9834 H   0  0  0  0  0  0  0  0  0  0  0  0
    6.2988   12.1977   25.3333 H   0  0  0  0  0  0  0  0  0  0  0  0
    6.0492   11.3871   22.4162 H   0  0  0  0  0  0  0  0  0  0  0  0
    6.1447   10.1465   23.6808 H   0  0  0  0  0  0  0  0  0  0  0  0
    7.2834   10.1161   22.3205 H   0  0  0  0  0  0  0  0  0  0  0  0
   11.5074   16.6849   22.7218 H   0  0  0  0  0  0  0  0  0  0  0  0
   12.6041   15.2784   22.5360 H   0  0  0  0  0  0  0  0  0  0  0  0
   11.9028   16.0664   21.0858 H   0  0  0  0  0  0  0  0  0  0  0  0
   10.7449   11.3599   20.8805 H   0  0  0  0  0  0  0  0  0  0  0  0
   11.8780   11.7275   22.1498 H   0  0  0  0  0  0  0  0  0  0  0  0
   10.6889   13.4717   20.2297 H   0  0  0  0  0  0  0  0  0  0  0  0
  1  9  1  0  0  0  0
  1 13  1  0  0  0  0
  1 14  1  0  0  0  0
  2  3  1  0  0  0  0
  2  4  1  0  0  0  0
  2  5  1  0  0  0  0
  2 13  1  0  0  0  0
  3  6  1  0  0  0  0
  3  7  1  0  0  0  0
  3 14  1  0  0  0  0
  8 15  1  0  0  0  0
  9 10  1  0  0  0  0
 10 15  1  0  0  0  0
 11 15  2  0  0  0  0
 12 15  2  0  0  0  0
  4 16  1  0  0  0  0
  4 17  1  0  0  0  0
  4 18  1  0  0  0  0
  5 19  1  0  0  0  0
  5 20  1  0  0  0  0
  5 21  1  0  0  0  0
  6 22  1  0  0  0  0
  6 23  1  0  0  0  0
  6 24  1  0  0  0  0
  7 25  1  0  0  0  0
  7 26  1  0  0  0  0
  7 27  1  0  0  0  0
  8 28  1  0  0  0  0
  8 29  1  0  0  0  0
  8 30  1  0  0  0  0
  9 31  1  0  0  0  0
  9 32  1  0  0  0  0
 10 33  1  0  0  0  0
M  END
> <Mol Weight>
235,11

> <Formula>
C8H18BNO4S

> <ID>
EN300-3232429

> <name>
Sulfonamides

> <LogP>
1,31

> <ROCS_ShapeQuery>
x0446_0A_x1080_0A_x0929_0A_x0812_0A_x0719_0A_x1140_0A_x0528_0A_x0310_0A

> <ROCS_TanimotoCombo>
0.330 

> <ROCS_ShapeTanimoto>
0.192 

> <ROCS_ColorTanimoto>
0.137 

> <ROCS_RefTversky>
0.178 

> <ROCS_RefColorTversky>
0.146 

> <ROCS_RefTverskyCombo>
0.324 

> <ROCS_FitTversky>
1.747 

> <ROCS_FitColorTversky>
0.688 

> <ROCS_FitTverskyCombo>
2.436 

> <ROCS_ColorScore>
-5.211

> <ROCS_Overlap>
2096.256

> <ROCS_Rank>
437                 

$$$$
untitled-dbase-2107_13
  -OEChem-02082415043D

 27 27  0     0  0  0  0  0  0999 V2000
    9.2718   10.4720   23.1364 C   0  0  0  0  0  0  0  0  0  0  0  0
    8.1135   10.1727   23.8537 C   0  0  0  0  0  0  0  0  0  0  0  0
    7.6947   12.5321   24.1618 C   0  0  0  0  0  0  0  0  0  0  0  0
    9.6415   11.8013   22.9318 C   0  0  0  0  0  0  0  0  0  0  0  0
    7.3250   11.2028   24.3663 C   0  0  0  0  0  0  0  0  0  0  0  0
    8.8530   12.8314   23.4445 C   0  0  0  0  0  0  0  0  0  0  0  0
   12.4189   10.6720   23.3285 C   0  0  0  0  0  0  0  0  0  0  0  0
   11.8609   11.1171   22.0197 C   0  0  0  0  0  0  0  0  0  0  0  0
    8.0005   15.2890   24.0261 N   0  0  0  0  0  0  0  0  0  0  0  0
   10.8194   12.0783   22.2033 N   0  0  0  0  0  0  0  0  0  0  0  0
    6.1453   10.8985   25.0959 N   0  3  0  0  0  0  0  0  0  0  0  0
    5.8299    9.6963   25.2681 O   0  5  0  0  0  0  0  0  0  0  0  0
    5.4502   11.8404   25.5480 O   0  0  0  0  0  0  0  0  0  0  0  0
   10.5233   14.7683   23.9258 O   0  0  0  0  0  0  0  0  0  0  0  0
    9.1882   14.8147   21.7897 O   0  0  0  0  0  0  0  0  0  0  0  0
    9.2835   14.5125   23.2094 S   0  0  0  0  0  0  0  0  0  0  0  0
    9.8785    9.6603   22.7429 H   0  0  0  0  0  0  0  0  0  0  0  0
    7.8352    9.1327   24.0054 H   0  0  0  0  0  0  0  0  0  0  0  0
    7.0806   13.3362   24.5618 H   0  0  0  0  0  0  0  0  0  0  0  0
   11.6199   10.2181   23.9331 H   0  0  0  0  0  0  0  0  0  0  0  0
   13.2133    9.9310   23.1553 H   0  0  0  0  0  0  0  0  0  0  0  0
   12.8358   11.5383   23.8629 H   0  0  0  0  0  0  0  0  0  0  0  0
   12.6656   11.5695   21.4215 H   0  0  0  0  0  0  0  0  0  0  0  0
   11.4544   10.2446   21.4872 H   0  0  0  0  0  0  0  0  0  0  0  0
    7.0698   15.2659   23.5918 H   0  0  0  0  0  0  0  0  0  0  0  0
    7.9814   15.2366   25.0518 H   0  0  0  0  0  0  0  0  0  0  0  0
   10.9030   12.9959   21.8103 H   0  0  0  0  0  0  0  0  0  0  0  0
  1  2  2  0  0  0  0
  1  4  1  0  0  0  0
  2  5  1  0  0  0  0
  3  5  2  0  0  0  0
  3  6  1  0  0  0  0
  4  6  2  0  0  0  0
  4 10  1  0  0  0  0
  5 11  1  0  0  0  0
  6 16  1  0  0  0  0
  7  8  1  0  0  0  0
  8 10  1  0  0  0  0
  9 16  1  0  0  0  0
 11 12  1  0  0  0  0
 11 13  2  0  0  0  0
 14 16  2  0  0  0  0
 15 16  2  0  0  0  0
  1 17  1  0  0  0  0
  2 18  1  0  0  0  0
  3 19  1  0  0  0  0
  7 20  1  0  0  0  0
  7 21  1  0  0  0  0
  7 22  1  0  0  0  0
  8 23  1  0  0  0  0
  8 24  1  0  0  0  0
  9 25  1  0  0  0  0
  9 26  1  0  0  0  0
 10 27  1  0  0  0  0
M  CHG  2  11   1  12  -1
M  END
> <Mol Weight>
245,25

> <Formula>
C8H11N3O4S

> <ID>
EN300-213800

> <name>
Sulfonamides

> <LogP>
0,35

> <ROCS_ShapeQuery>
x0446_0A_x1080_0A_x0929_0A_x0812_0A_x0719_0A_x1140_0A_x0528_0A_x0310_0A

> <ROCS_TanimotoCombo>
0.330 

> <ROCS_ShapeTanimoto>
0.198 

> <ROCS_ColorTanimoto>
0.132 

> <ROCS_RefTversky>
0.183 

> <ROCS_RefColorTversky>
0.144 

> <ROCS_RefTverskyCombo>
0.327 

> <ROCS_FitTversky>
1.700 

> <ROCS_FitColorTversky>
0.604 

> <ROCS_FitTverskyCombo>
2.304 

> <ROCS_ColorScore>
-5.153

> <ROCS_Overlap>
2155.581

> <ROCS_Rank>
438                 

$$$$
untitled-dbase-1092_66
  -OEChem-02082415043D

 22 22  0     1  0  0  0  0  0999 V2000
    8.3886   11.1318   24.5469 C   0  0  0  0  0  0  0  0  0  0  0  0
    9.4237   10.7599   22.5603 C   0  0  0  0  0  0  0  0  0  0  0  0
    7.9620   12.2745   23.6371 C   0  0  1  0  0  0  0  0  0  0  0  0
    8.3822   13.6210   24.1887 C   0  0  0  0  0  0  0  0  0  0  0  0
    7.5403   14.7503   23.6134 C   0  0  0  0  0  0  0  0  0  0  0  0
    9.2322   10.3056   23.8455 N   0  0  0  0  0  0  0  0  0  0  0  0
    8.6747   11.9302   22.4306 N   0  0  0  0  0  0  0  0  0  0  0  0
    6.2575   15.7105   21.4959 N   0  0  0  0  0  0  0  0  0  0  0  0
    8.0303   10.9954   25.7083 O   0  0  0  0  0  0  0  0  0  0  0  0
   10.1125   10.2395   21.6936 O   0  0  0  0  0  0  0  0  0  0  0  0
    8.8283   15.6272   21.5160 O   0  0  0  0  0  0  0  0  0  0  0  0
    7.5182   13.4741   21.3333 O   0  0  0  0  0  0  0  0  0  0  0  0
    7.6676   14.8218   21.8548 S   0  0  0  0  0  0  0  0  0  0  0  0
    6.8882   12.2184   23.4380 H   0  0  0  0  0  0  0  0  0  0  0  0
    9.4421   13.7972   23.9626 H   0  0  0  0  0  0  0  0  0  0  0  0
    8.2945   13.6145   25.2832 H   0  0  0  0  0  0  0  0  0  0  0  0
    6.4807   14.6155   23.8501 H   0  0  0  0  0  0  0  0  0  0  0  0
    7.8660   15.7224   23.9955 H   0  0  0  0  0  0  0  0  0  0  0  0
    9.6592    9.4687   24.2255 H   0  0  0  0  0  0  0  0  0  0  0  0
    8.6354   12.4806   21.5784 H   0  0  0  0  0  0  0  0  0  0  0  0
    5.3520   15.2411   21.6199 H   0  0  0  0  0  0  0  0  0  0  0  0
    6.2445   16.7074   21.7441 H   0  0  0  0  0  0  0  0  0  0  0  0
  1  3  1  0  0  0  0
  1  6  1  0  0  0  0
  1  9  2  0  0  0  0
  2  6  1  0  0  0  0
  2  7  1  0  0  0  0
  2 10  2  0  0  0  0
  3  4  1  0  0  0  0
  3  7  1  0  0  0  0
  4  5  1  0  0  0  0
  5 13  1  0  0  0  0
  8 13  1  0  0  0  0
 11 13  2  0  0  0  0
 12 13  2  0  0  0  0
  3 14  1  0  0  0  0
  4 15  1  0  0  0  0
  4 16  1  0  0  0  0
  5 17  1  0  0  0  0
  5 18  1  0  0  0  0
  6 19  1  0  0  0  0
  7 20  1  0  0  0  0
  8 21  1  0  0  0  0
  8 22  1  0  0  0  0
M  END
> <Mol Weight>
207,20

> <Formula>
C5H9N3O4S

> <ID>
EN300-79584

> <name>
Sulfonamides

> <LogP>
-2,73

> <ROCS_ShapeQuery>
x0446_0A_x1080_0A_x0929_0A_x0812_0A_x0719_0A_x1140_0A_x0528_0A_x0310_0A

> <ROCS_TanimotoCombo>
0.329 

> <ROCS_ShapeTanimoto>
0.176 

> <ROCS_ColorTanimoto>
0.153 

> <ROCS_RefTversky>
0.164 

> <ROCS_RefColorTversky>
0.168 

> <ROCS_RefTverskyCombo>
0.332 

> <ROCS_FitTversky>
1.703 

> <ROCS_FitColorTversky>
0.635 

> <ROCS_FitTverskyCombo>
2.337 

> <ROCS_ColorScore>
-6.013

> <ROCS_Overlap>
1934.752

> <ROCS_Rank>
439                 

$$$$
untitled-dbase-1892_76
  -OEChem-02082415043D

 25 25  0     0  0  0  0  0  0999 V2000
    9.6543   10.3185   23.8051 C   0  0  0  0  0  0  0  0  0  0  0  0
    8.3027   10.4803   24.1096 C   0  0  0  0  0  0  0  0  0  0  0  0
   10.4188   11.4193   23.4186 C   0  0  0  0  0  0  0  0  0  0  0  0
    7.7156   11.7429   24.0274 C   0  0  0  0  0  0  0  0  0  0  0  0
    9.8317   12.6819   23.3364 C   0  0  0  0  0  0  0  0  0  0  0  0
    8.4801   12.8438   23.6407 C   0  0  0  0  0  0  0  0  0  0  0  0
   10.6700   13.8464   22.9214 C   0  0  0  0  0  0  0  0  0  0  0  0
    7.8294   14.1856   23.5592 C   0  0  0  0  0  0  0  0  0  0  0  0
   11.2419   13.6678   21.6119 N   0  0  0  0  0  0  0  0  0  0  0  0
    6.4062   15.7735   21.9767 N   0  0  0  0  0  0  0  0  0  0  0  0
    8.8431   15.2073   21.3785 O   0  0  0  0  0  0  0  0  0  0  0  0
    7.0687   13.4191   21.1798 O   0  0  0  0  0  0  0  0  0  0  0  0
    7.6203   14.5823   21.8541 S   0  0  0  0  0  0  0  0  0  0  0  0
   10.1108    9.3353   23.8685 H   0  0  0  0  0  0  0  0  0  0  0  0
    7.7080    9.6226   24.4102 H   0  0  0  0  0  0  0  0  0  0  0  0
   11.4707   11.2824   23.1819 H   0  0  0  0  0  0  0  0  0  0  0  0
    6.6619   11.8589   24.2670 H   0  0  0  0  0  0  0  0  0  0  0  0
   10.0775   14.7709   22.9011 H   0  0  0  0  0  0  0  0  0  0  0  0
   11.4983   14.0138   23.6222 H   0  0  0  0  0  0  0  0  0  0  0  0
    8.4407   14.9706   24.0168 H   0  0  0  0  0  0  0  0  0  0  0  0
    6.8417   14.1961   24.0325 H   0  0  0  0  0  0  0  0  0  0  0  0
   10.5085   13.5986   20.9370 H   0  0  0  0  0  0  0  0  0  0  0  0
   11.8237   14.4507   21.3959 H   0  0  0  0  0  0  0  0  0  0  0  0
    5.4605   15.4671   22.2363 H   0  0  0  0  0  0  0  0  0  0  0  0
    6.6691   16.6849   22.3714 H   0  0  0  0  0  0  0  0  0  0  0  0
  1  2  1  0  0  0  0
  1  3  2  0  0  0  0
  2  4  2  0  0  0  0
  3  5  1  0  0  0  0
  4  6  1  0  0  0  0
  5  6  2  0  0  0  0
  5  7  1  0  0  0  0
  6  8  1  0  0  0  0
  7  9  1  0  0  0  0
  8 13  1  0  0  0  0
 10 13  1  0  0  0  0
 11 13  2  0  0  0  0
 12 13  2  0  0  0  0
  1 14  1  0  0  0  0
  2 15  1  0  0  0  0
  3 16  1  0  0  0  0
  4 17  1  0  0  0  0
  7 18  1  0  0  0  0
  7 19  1  0  0  0  0
  8 20  1  0  0  0  0
  8 21  1  0  0  0  0
  9 22  1  0  0  0  0
  9 23  1  0  0  0  0
 10 24  1  0  0  0  0
 10 25  1  0  0  0  0
M  END
> <Mol Weight>
236,71

> <Formula>
C8H13ClN2O2S

> <ID>
EN300-1664746

> <name>
Sulfonamides

> <LogP>
-0,62

> <ROCS_ShapeQuery>
x0446_0A_x1080_0A_x0929_0A_x0812_0A_x0719_0A_x1140_0A_x0528_0A_x0310_0A

> <ROCS_TanimotoCombo>
0.329 

> <ROCS_ShapeTanimoto>
0.192 

> <ROCS_ColorTanimoto>
0.138 

> <ROCS_RefTversky>
0.176 

> <ROCS_RefColorTversky>
0.147 

> <ROCS_RefTverskyCombo>
0.323 

> <ROCS_FitTversky>
1.840 

> <ROCS_FitColorTversky>
0.692 

> <ROCS_FitTverskyCombo>
2.532 

> <ROCS_ColorScore>
-5.232

> <ROCS_Overlap>
2076.293

> <ROCS_Rank>
440                 

$$$$
untitled-dbase-2747_1218
  -OEChem-02082415043D

 33 33  0     0  0  0  0  0  0999 V2000
    9.9921   10.6496   23.5845 C   0  0  0  0  0  0  0  0  0  0  0  0
    9.2720   12.9546   23.6580 C   0  0  0  0  0  0  0  0  0  0  0  0
    8.7151   10.2384   23.9664 C   0  0  0  0  0  0  0  0  0  0  0  0
    7.9950   12.5435   24.0400 C   0  0  0  0  0  0  0  0  0  0  0  0
   10.2705   12.0077   23.4303 C   0  0  0  0  0  0  0  0  0  0  0  0
    7.7166   11.1853   24.1942 C   0  0  0  0  0  0  0  0  0  0  0  0
    9.7663   14.4702   20.7739 C   0  0  0  0  0  0  0  0  0  0  0  0
   11.6521   12.4528   23.0178 C   0  0  0  0  0  0  0  0  0  0  0  0
    9.1069   14.1419   19.4442 C   0  0  0  0  0  0  0  0  0  0  0  0
   11.6446   13.7525   22.2167 C   0  0  0  0  0  0  0  0  0  0  0  0
    7.6098   14.4139   19.4184 C   0  0  0  0  0  0  0  0  0  0  0  0
    5.3676   10.4865   23.1460 N   0  0  0  0  0  0  0  0  0  0  0  0
   10.8632   13.6554   21.0170 N   0  0  0  0  0  0  0  0  0  0  0  0
    9.3546   15.3400   21.5371 O   0  0  0  0  0  0  0  0  0  0  0  0
    6.2247    9.3633   25.3022 O   0  0  0  0  0  0  0  0  0  0  0  0
    5.4711   11.7661   25.3795 O   0  0  0  0  0  0  0  0  0  0  0  0
    6.1176   10.6708   24.6701 S   0  0  0  0  0  0  0  0  0  0  0  0
    6.7626   13.4791   20.6757 Cl  0  0  0  0  0  0  0  0  0  0  0  0
   10.7638    9.9047   23.4095 H   0  0  0  0  0  0  0  0  0  0  0  0
    9.4799   14.0149   23.5408 H   0  0  0  0  0  0  0  0  0  0  0  0
    8.5089    9.1779   24.0842 H   0  0  0  0  0  0  0  0  0  0  0  0
    7.2246   13.2897   24.2153 H   0  0  0  0  0  0  0  0  0  0  0  0
   12.1083   11.6577   22.4146 H   0  0  0  0  0  0  0  0  0  0  0  0
   12.2879   12.5603   23.9059 H   0  0  0  0  0  0  0  0  0  0  0  0
    9.6117   14.6962   18.6439 H   0  0  0  0  0  0  0  0  0  0  0  0
    9.2748   13.0736   19.2598 H   0  0  0  0  0  0  0  0  0  0  0  0
   11.2055   14.5569   22.8152 H   0  0  0  0  0  0  0  0  0  0  0  0
   12.6566   14.0551   21.9282 H   0  0  0  0  0  0  0  0  0  0  0  0
    7.4140   15.4717   19.6171 H   0  0  0  0  0  0  0  0  0  0  0  0
    7.1653   14.1552   18.4528 H   0  0  0  0  0  0  0  0  0  0  0  0
    5.1695    9.5331   22.8185 H   0  0  0  0  0  0  0  0  0  0  0  0
    4.6568   11.1756   22.8720 H   0  0  0  0  0  0  0  0  0  0  0  0
   11.1368   12.9574   20.3306 H   0  0  0  0  0  0  0  0  0  0  0  0
  1  3  2  0  0  0  0
  1  5  1  0  0  0  0
  2  4  1  0  0  0  0
  2  5  2  0  0  0  0
  3  6  1  0  0  0  0
  4  6  2  0  0  0  0
  5  8  1  0  0  0  0
  6 17  1  0  0  0  0
  7  9  1  0  0  0  0
  7 13  1  0  0  0  0
  7 14  2  0  0  0  0
  8 10  1  0  0  0  0
  9 11  1  0  0  0  0
 10 13  1  0  0  0  0
 11 18  1  0  0  0  0
 12 17  1  0  0  0  0
 15 17  2  0  0  0  0
 16 17  2  0  0  0  0
  1 19  1  0  0  0  0
  2 20  1  0  0  0  0
  3 21  1  0  0  0  0
  4 22  1  0  0  0  0
  8 23  1  0  0  0  0
  8 24  1  0  0  0  0
  9 25  1  0  0  0  0
  9 26  1  0  0  0  0
 10 27  1  0  0  0  0
 10 28  1  0  0  0  0
 11 29  1  0  0  0  0
 11 30  1  0  0  0  0
 12 31  1  0  0  0  0
 12 32  1  0  0  0  0
 13 33  1  0  0  0  0
M  END
> <Mol Weight>
290,76

> <Formula>
C11H15ClN2O3S

> <ID>
EN300-25832

> <name>
Sulfonamides

> <LogP>
0,59

> <ROCS_ShapeQuery>
x0446_0A_x1080_0A_x0929_0A_x0812_0A_x0719_0A_x1140_0A_x0528_0A_x0310_0A

> <ROCS_TanimotoCombo>
0.329 

> <ROCS_ShapeTanimoto>
0.193 

> <ROCS_ColorTanimoto>
0.136 

> <ROCS_RefTversky>
0.180 

> <ROCS_RefColorTversky>
0.145 

> <ROCS_RefTverskyCombo>
0.325 

> <ROCS_FitTversky>
1.613 

> <ROCS_FitColorTversky>
0.684 

> <ROCS_FitTverskyCombo>
2.297 

> <ROCS_ColorScore>
-5.171

> <ROCS_Overlap>
2124.596

> <ROCS_Rank>
441                 

$$$$
untitled-dbase-957_1
  -OEChem-02082415043D

 27 27  0     0  0  0  0  0  0999 V2000
    9.6434   13.5040   23.6355 C   0  0  0  0  0  0  0  0  0  0  0  0
    8.9013    9.9604   24.3461 C   0  0  0  0  0  0  0  0  0  0  0  0
    9.2898   10.4951   22.9723 C   0  0  0  0  0  0  0  0  0  0  0  0
    8.8938   11.0642   25.3975 C   0  0  0  0  0  0  0  0  0  0  0  0
    8.3952   11.6613   22.5460 C   0  0  0  0  0  0  0  0  0  0  0  0
    7.9975   12.2335   24.9835 C   0  0  0  0  0  0  0  0  0  0  0  0
    8.3407   12.7992   23.5883 C   0  0  0  0  0  0  0  0  0  0  0  0
    7.2649   13.8176   23.1737 C   0  0  0  0  0  0  0  0  0  0  0  0
   10.6633   14.0558   23.6724 N   0  0  0  0  0  0  0  0  0  0  0  0
    6.3089   15.5654   21.4181 N   0  0  0  0  0  0  0  0  0  0  0  0
    8.8498   15.3022   21.7207 O   0  0  0  0  0  0  0  0  0  0  0  0
    7.5357   13.4577   20.5998 O   0  0  0  0  0  0  0  0  0  0  0  0
    7.6353   14.5074   21.6041 S   0  0  0  0  0  0  0  0  0  0  0  0
    7.9060    9.5020   24.2911 H   0  0  0  0  0  0  0  0  0  0  0  0
    9.5994    9.1706   24.6454 H   0  0  0  0  0  0  0  0  0  0  0  0
   10.3389   10.8144   22.9851 H   0  0  0  0  0  0  0  0  0  0  0  0
    9.2160    9.6894   22.2328 H   0  0  0  0  0  0  0  0  0  0  0  0
    8.5433   10.6562   26.3526 H   0  0  0  0  0  0  0  0  0  0  0  0
    9.9178   11.4197   25.5649 H   0  0  0  0  0  0  0  0  0  0  0  0
    8.7451   12.0417   21.5772 H   0  0  0  0  0  0  0  0  0  0  0  0
    7.3820   11.2713   22.3791 H   0  0  0  0  0  0  0  0  0  0  0  0
    6.9561   11.8841   24.9887 H   0  0  0  0  0  0  0  0  0  0  0  0
    8.0649   13.0203   25.7463 H   0  0  0  0  0  0  0  0  0  0  0  0
    7.2266   14.6239   23.8979 H   0  0  0  0  0  0  0  0  0  0  0  0
    6.3011   13.3250   23.1089 H   0  0  0  0  0  0  0  0  0  0  0  0
    5.3859   15.1471   21.2488 H   0  0  0  0  0  0  0  0  0  0  0  0
    6.2811   16.4033   22.0120 H   0  0  0  0  0  0  0  0  0  0  0  0
  1  7  1  0  0  0  0
  1  9  3  0  0  0  0
  2  3  1  0  0  0  0
  2  4  1  0  0  0  0
  3  5  1  0  0  0  0
  4  6  1  0  0  0  0
  5  7  1  0  0  0  0
  6  7  1  0  0  0  0
  7  8  1  0  0  0  0
  8 13  1  0  0  0  0
 10 13  1  0  0  0  0
 11 13  2  0  0  0  0
 12 13  2  0  0  0  0
  2 14  1  0  0  0  0
  2 15  1  0  0  0  0
  3 16  1  0  0  0  0
  3 17  1  0  0  0  0
  4 18  1  0  0  0  0
  4 19  1  0  0  0  0
  5 20  1  0  0  0  0
  5 21  1  0  0  0  0
  6 22  1  0  0  0  0
  6 23  1  0  0  0  0
  8 24  1  0  0  0  0
  8 25  1  0  0  0  0
 10 26  1  0  0  0  0
 10 27  1  0  0  0  0
M  END
> <Mol Weight>
202,27

> <Formula>
C8H14N2O2S

> <ID>
EN300-133725

> <name>
Sulfonamides

> <LogP>
0,36

> <ROCS_ShapeQuery>
x0446_0A_x1080_0A_x0929_0A_x0812_0A_x0719_0A_x1140_0A_x0528_0A_x0310_0A

> <ROCS_TanimotoCombo>
0.329 

> <ROCS_ShapeTanimoto>
0.171 

> <ROCS_ColorTanimoto>
0.158 

> <ROCS_RefTversky>
0.160 

> <ROCS_RefColorTversky>
0.162 

> <ROCS_RefTverskyCombo>
0.322 

> <ROCS_FitTversky>
1.684 

> <ROCS_FitColorTversky>
0.873 

> <ROCS_FitTverskyCombo>
2.557 

> <ROCS_ColorScore>
-5.771

> <ROCS_Overlap>
1883.246

> <ROCS_Rank>
442                 

$$$$
untitled-dbase-2373_33
  -OEChem-02082415043D

 21 21  0     0  0  0  0  0  0999 V2000
   10.3398   11.2897   24.3842 C   0  0  0  0  0  0  0  0  0  0  0  0
    9.5775   10.1237   24.4529 C   0  0  0  0  0  0  0  0  0  0  0  0
    7.6457   11.3401   23.6618 C   0  0  0  0  0  0  0  0  0  0  0  0
    9.7552   12.4810   23.9544 C   0  0  0  0  0  0  0  0  0  0  0  0
    8.2304   10.1489   24.0917 C   0  0  0  0  0  0  0  0  0  0  0  0
    8.4081   12.5062   23.5932 C   0  0  0  0  0  0  0  0  0  0  0  0
   11.6607   13.6023   23.0468 C   0  0  0  0  0  0  0  0  0  0  0  0
    8.9662   15.0741   23.1471 N   0  0  0  0  0  0  0  0  0  0  0  0
    7.2750   13.8242   21.6561 O   0  0  0  0  0  0  0  0  0  0  0  0
    6.6499   14.3768   24.0334 O   0  0  0  0  0  0  0  0  0  0  0  0
   10.5187   13.6079   23.8949 O   0  0  0  0  0  0  0  0  0  0  0  0
    7.4984    9.0290   24.1579 F   0  0  0  0  0  0  0  0  0  0  0  0
   11.4748   12.7882   21.9861 F   0  0  0  0  0  0  0  0  0  0  0  0
   12.7201   13.1378   23.7475 F   0  0  0  0  0  0  0  0  0  0  0  0
   11.9576   14.8489   22.6223 F   0  0  0  0  0  0  0  0  0  0  0  0
    7.6516   13.9877   23.0521 S   0  0  0  0  0  0  0  0  0  0  0  0
   11.3887   11.2624   24.6665 H   0  0  0  0  0  0  0  0  0  0  0  0
   10.0328    9.1961   24.7876 H   0  0  0  0  0  0  0  0  0  0  0  0
    6.5953   11.3457   23.3835 H   0  0  0  0  0  0  0  0  0  0  0  0
    9.3813   15.4055   22.2677 H   0  0  0  0  0  0  0  0  0  0  0  0
    8.9539   15.7808   23.8926 H   0  0  0  0  0  0  0  0  0  0  0  0
  1  2  2  0  0  0  0
  1  4  1  0  0  0  0
  2  5  1  0  0  0  0
  3  5  2  0  0  0  0
  3  6  1  0  0  0  0
  4  6  2  0  0  0  0
  4 11  1  0  0  0  0
  5 12  1  0  0  0  0
  6 16  1  0  0  0  0
  7 11  1  0  0  0  0
  7 13  1  0  0  0  0
  7 14  1  0  0  0  0
  7 15  1  0  0  0  0
  8 16  1  0  0  0  0
  9 16  2  0  0  0  0
 10 16  2  0  0  0  0
  1 17  1  0  0  0  0
  2 18  1  0  0  0  0
  3 19  1  0  0  0  0
  8 20  1  0  0  0  0
  8 21  1  0  0  0  0
M  END
> <Mol Weight>
259,17

> <Formula>
C7H5F4NO3S

> <ID>
EN300-7506818

> <name>
Sulfonamides

> <LogP>
2,15

> <ROCS_ShapeQuery>
x0446_0A_x1080_0A_x0929_0A_x0812_0A_x0719_0A_x1140_0A_x0528_0A_x0310_0A

> <ROCS_TanimotoCombo>
0.329 

> <ROCS_ShapeTanimoto>
0.205 

> <ROCS_ColorTanimoto>
0.124 

> <ROCS_RefTversky>
0.189 

> <ROCS_RefColorTversky>
0.131 

> <ROCS_RefTverskyCombo>
0.320 

> <ROCS_FitTversky>
1.731 

> <ROCS_FitColorTversky>
0.705 

> <ROCS_FitTverskyCombo>
2.435 

> <ROCS_ColorScore>
-4.662

> <ROCS_Overlap>
2226.493

> <ROCS_Rank>
443                 

$$$$
untitled-dbase-2737_0
  -OEChem-02082415043D

 24 25  0     0  0  0  0  0  0999 V2000
    6.1414   11.1970   24.8179 C   0  0  0  0  0  0  0  0  0  0  0  0
    6.8235   10.4448   23.8573 C   0  0  0  0  0  0  0  0  0  0  0  0
    6.4717   12.5299   25.0543 C   0  0  0  0  0  0  0  0  0  0  0  0
    9.5366   11.5763   21.7418 C   0  0  0  0  0  0  0  0  0  0  0  0
    8.1998   12.4139   23.3607 C   0  0  0  0  0  0  0  0  0  0  0  0
    7.8471   11.0800   23.1451 C   0  0  0  0  0  0  0  0  0  0  0  0
    9.2669   12.7132   22.4682 C   0  0  0  0  0  0  0  0  0  0  0  0
    7.4979   13.1522   24.3342 C   0  0  0  0  0  0  0  0  0  0  0  0
    8.6493    9.2529   21.6211 C   0  0  0  0  0  0  0  0  0  0  0  0
    8.6749   10.5967   22.1570 N   0  0  0  0  0  0  0  0  0  0  0  0
   11.2390   13.7790   21.0260 N   0  0  0  0  0  0  0  0  0  0  0  0
    9.2133   15.2087   21.7316 O   0  0  0  0  0  0  0  0  0  0  0  0
   10.8827   14.4900   23.4763 O   0  0  0  0  0  0  0  0  0  0  0  0
   10.1176   14.1802   22.2616 S   0  0  0  0  0  0  0  0  0  0  0  0
    7.8681   14.9668   24.7348 Br  0  0  0  0  0  0  0  0  0  0  0  0
    5.3411   10.7331   25.3890 H   0  0  0  0  0  0  0  0  0  0  0  0
    6.5617    9.4076   23.6770 H   0  0  0  0  0  0  0  0  0  0  0  0
    5.9135   13.0762   25.8118 H   0  0  0  0  0  0  0  0  0  0  0  0
   10.2657   11.3822   20.9661 H   0  0  0  0  0  0  0  0  0  0  0  0
    9.3313    8.6395   22.2159 H   0  0  0  0  0  0  0  0  0  0  0  0
    7.6313    8.8575   21.6781 H   0  0  0  0  0  0  0  0  0  0  0  0
    8.9669    9.2749   20.5749 H   0  0  0  0  0  0  0  0  0  0  0  0
   12.0257   13.1621   21.2625 H   0  0  0  0  0  0  0  0  0  0  0  0
   10.8869   13.6543   20.0690 H   0  0  0  0  0  0  0  0  0  0  0  0
  1  2  2  0  0  0  0
  1  3  1  0  0  0  0
  2  6  1  0  0  0  0
  3  8  2  0  0  0  0
  4  7  2  0  0  0  0
  4 10  1  0  0  0  0
  5  6  2  0  0  0  0
  5  7  1  0  0  0  0
  5  8  1  0  0  0  0
  6 10  1  0  0  0  0
  7 14  1  0  0  0  0
  8 15  1  0  0  0  0
  9 10  1  0  0  0  0
 11 14  1  0  0  0  0
 12 14  2  0  0  0  0
 13 14  2  0  0  0  0
  1 16  1  0  0  0  0
  2 17  1  0  0  0  0
  3 18  1  0  0  0  0
  4 19  1  0  0  0  0
  9 20  1  0  0  0  0
  9 21  1  0  0  0  0
  9 22  1  0  0  0  0
 11 23  1  0  0  0  0
 11 24  1  0  0  0  0
M  END
> <Mol Weight>
289,15

> <Formula>
C9H9BrN2O2S

> <ID>
EN300-37139262

> <name>
Sulfonamides

> <LogP>
1,67

> <ROCS_ShapeQuery>
x0446_0A_x1080_0A_x0929_0A_x0812_0A_x0719_0A_x1140_0A_x0528_0A_x0310_0A

> <ROCS_TanimotoCombo>
0.329 

> <ROCS_ShapeTanimoto>
0.178 

> <ROCS_ColorTanimoto>
0.151 

> <ROCS_RefTversky>
0.167 

> <ROCS_RefColorTversky>
0.159 

> <ROCS_RefTverskyCombo>
0.326 

> <ROCS_FitTversky>
1.594 

> <ROCS_FitColorTversky>
0.748 

> <ROCS_FitTverskyCombo>
2.343 

> <ROCS_ColorScore>
-5.673

> <ROCS_Overlap>
1969.885

> <ROCS_Rank>
444                 

$$$$
untitled-dbase-1752_4222
  -OEChem-02082415043D

 29 29  0     0  0  0  0  0  0999 V2000
    8.7740    9.8258   23.9504 C   0  0  0  0  0  0  0  0  0  0  0  0
    9.7022   10.5651   23.2174 C   0  0  0  0  0  0  0  0  0  0  0  0
    7.6405   10.4498   24.4716 C   0  0  0  0  0  0  0  0  0  0  0  0
    8.3637   12.5525   23.5269 C   0  0  0  0  0  0  0  0  0  0  0  0
    9.4971   11.9285   23.0057 C   0  0  0  0  0  0  0  0  0  0  0  0
    7.4354   11.8132   24.2599 C   0  0  0  0  0  0  0  0  0  0  0  0
   12.0756   14.7784   21.8268 C   0  0  0  0  0  0  0  0  0  0  0  0
    5.4099   14.0170   23.2211 C   0  0  0  0  0  0  0  0  0  0  0  0
    6.1821   13.8184   24.5126 C   0  0  0  0  0  0  0  0  0  0  0  0
    5.2227   15.4647   22.9720 N   0  0  0  0  0  0  0  0  0  0  0  0
   10.4481   12.6858   22.2565 N   0  0  0  0  0  0  0  0  0  0  0  0
    9.5024   14.9592   21.4899 O   0  0  0  0  0  0  0  0  0  0  0  0
   10.3994   14.7724   23.8363 O   0  0  0  0  0  0  0  0  0  0  0  0
    6.3290   12.4221   24.7670 O   0  0  0  0  0  0  0  0  0  0  0  0
   10.4483   14.3985   22.4367 S   0  0  0  0  0  0  0  0  0  0  0  0
    8.9334    8.7642   24.1149 H   0  0  0  0  0  0  0  0  0  0  0  0
   10.5823   10.0698   22.8158 H   0  0  0  0  0  0  0  0  0  0  0  0
    6.9207    9.8684   25.0413 H   0  0  0  0  0  0  0  0  0  0  0  0
    8.2000   13.6153   23.3644 H   0  0  0  0  0  0  0  0  0  0  0  0
   12.2208   15.8585   21.8826 H   0  0  0  0  0  0  0  0  0  0  0  0
   12.8065   14.2617   22.4506 H   0  0  0  0  0  0  0  0  0  0  0  0
   12.1445   14.4361   20.7932 H   0  0  0  0  0  0  0  0  0  0  0  0
    5.9461   13.5887   22.3683 H   0  0  0  0  0  0  0  0  0  0  0  0
    4.4218   13.5527   23.2929 H   0  0  0  0  0  0  0  0  0  0  0  0
    5.6314   14.2582   25.3499 H   0  0  0  0  0  0  0  0  0  0  0  0
    7.1766   14.2735   24.4611 H   0  0  0  0  0  0  0  0  0  0  0  0
    6.1208   15.8616   22.8788 H   0  0  0  0  0  0  0  0  0  0  0  0
    4.6976   15.5501   22.1414 H   0  0  0  0  0  0  0  0  0  0  0  0
   10.5843   12.3552   21.2870 H   0  0  0  0  0  0  0  0  0  0  0  0
  1  2  2  0  0  0  0
  1  3  1  0  0  0  0
  2  5  1  0  0  0  0
  3  6  2  0  0  0  0
  4  5  2  0  0  0  0
  4  6  1  0  0  0  0
  5 11  1  0  0  0  0
  6 14  1  0  0  0  0
  7 15  1  0  0  0  0
  8  9  1  0  0  0  0
  8 10  1  0  0  0  0
  9 14  1  0  0  0  0
 11 15  1  0  0  0  0
 12 15  2  0  0  0  0
 13 15  2  0  0  0  0
  1 16  1  0  0  0  0
  2 17  1  0  0  0  0
  3 18  1  0  0  0  0
  4 19  1  0  0  0  0
  7 20  1  0  0  0  0
  7 21  1  0  0  0  0
  7 22  1  0  0  0  0
  8 23  1  0  0  0  0
  8 24  1  0  0  0  0
  9 25  1  0  0  0  0
  9 26  1  0  0  0  0
 10 27  1  0  0  0  0
 10 28  1  0  0  0  0
 11 29  1  0  0  0  0
M  END
> <Mol Weight>
230,28

> <Formula>
C9H14N2O3S

> <ID>
EN300-123564

> <name>
Sulfonamides

> <LogP>
-1,08

> <ROCS_ShapeQuery>
x0446_0A_x1080_0A_x0929_0A_x0812_0A_x0719_0A_x1140_0A_x0528_0A_x0310_0A

> <ROCS_TanimotoCombo>
0.329 

> <ROCS_ShapeTanimoto>
0.205 

> <ROCS_ColorTanimoto>
0.124 

> <ROCS_RefTversky>
0.188 

> <ROCS_RefColorTversky>
0.136 

> <ROCS_RefTverskyCombo>
0.324 

> <ROCS_FitTversky>
1.834 

> <ROCS_FitColorTversky>
0.571 

> <ROCS_FitTverskyCombo>
2.405 

> <ROCS_ColorScore>
-4.859

> <ROCS_Overlap>
2215.818

> <ROCS_Rank>
445                 

$$$$
untitled-dbase-2772_1
  -OEChem-02082415043D

 23 23  0     0  0  0  0  0  0999 V2000
    8.3059   10.4432   23.9331 C   0  0  0  0  0  0  0  0  0  0  0  0
    8.5008   12.8509   23.9761 C   0  0  0  0  0  0  0  0  0  0  0  0
    9.7855   11.5632   22.3860 C   0  0  0  0  0  0  0  0  0  0  0  0
    7.9427   11.6749   24.4775 C   0  0  0  0  0  0  0  0  0  0  0  0
    9.2274   10.3873   22.8873 C   0  0  0  0  0  0  0  0  0  0  0  0
    9.4222   12.7950   22.9304 C   0  0  0  0  0  0  0  0  0  0  0  0
    6.9578   11.7347   25.5957 C   0  0  0  0  0  0  0  0  0  0  0  0
    9.6160    9.0702   22.3057 C   0  0  0  0  0  0  0  0  0  0  0  0
   11.1433   13.6474   21.0821 N   0  0  0  0  0  0  0  0  0  0  0  0
    9.0631   15.0483   21.6785 O   0  0  0  0  0  0  0  0  0  0  0  0
   10.9459   14.8669   23.3428 O   0  0  0  0  0  0  0  0  0  0  0  0
    6.4952   10.5094   25.9840 F   0  0  0  0  0  0  0  0  0  0  0  0
    7.4557   12.3039   26.7331 F   0  0  0  0  0  0  0  0  0  0  0  0
    5.8468   12.4615   25.2787 F   0  0  0  0  0  0  0  0  0  0  0  0
    8.9924    8.0065   22.8937 F   0  0  0  0  0  0  0  0  0  0  0  0
    9.3345    8.9561   20.9740 F   0  0  0  0  0  0  0  0  0  0  0  0
   10.9528    8.8195   22.4200 F   0  0  0  0  0  0  0  0  0  0  0  0
   10.1212   14.2667   22.3033 S   0  0  0  0  0  0  0  0  0  0  0  0
    7.8708    9.5265   24.3236 H   0  0  0  0  0  0  0  0  0  0  0  0
    8.2171   13.8103   24.4019 H   0  0  0  0  0  0  0  0  0  0  0  0
   10.5043   11.5175   21.5710 H   0  0  0  0  0  0  0  0  0  0  0  0
   10.8726   13.8014   20.1031 H   0  0  0  0  0  0  0  0  0  0  0  0
   12.1577   13.6765   21.2418 H   0  0  0  0  0  0  0  0  0  0  0  0
  1  4  2  0  0  0  0
  1  5  1  0  0  0  0
  2  4  1  0  0  0  0
  2  6  2  0  0  0  0
  3  5  2  0  0  0  0
  3  6  1  0  0  0  0
  4  7  1  0  0  0  0
  5  8  1  0  0  0  0
  6 18  1  0  0  0  0
  7 12  1  0  0  0  0
  7 13  1  0  0  0  0
  7 14  1  0  0  0  0
  8 15  1  0  0  0  0
  8 16  1  0  0  0  0
  8 17  1  0  0  0  0
  9 18  1  0  0  0  0
 10 18  2  0  0  0  0
 11 18  2  0  0  0  0
  1 19  1  0  0  0  0
  2 20  1  0  0  0  0
  3 21  1  0  0  0  0
  9 22  1  0  0  0  0
  9 23  1  0  0  0  0
M  END
> <Mol Weight>
293,18

> <Formula>
C8H5F6NO2S

> <ID>
EN300-195407

> <name>
Sulfonamides

> <LogP>
2,33

> <ROCS_ShapeQuery>
x0446_0A_x1080_0A_x0929_0A_x0812_0A_x0719_0A_x1140_0A_x0528_0A_x0310_0A

> <ROCS_TanimotoCombo>
0.329 

> <ROCS_ShapeTanimoto>
0.213 

> <ROCS_ColorTanimoto>
0.116 

> <ROCS_RefTversky>
0.196 

> <ROCS_RefColorTversky>
0.120 

> <ROCS_RefTverskyCombo>
0.316 

> <ROCS_FitTversky>
1.688 

> <ROCS_FitColorTversky>
0.756 

> <ROCS_FitTverskyCombo>
2.444 

> <ROCS_ColorScore>
-4.282

> <ROCS_Overlap>
2312.123

> <ROCS_Rank>
446                 

$$$$
untitled-dbase-1799_22
  -OEChem-02082415043D

 23 23  0     0  0  0  0  0  0999 V2000
    9.3504   10.5313   22.8151 C   0  0  0  0  0  0  0  0  0  0  0  0
    9.9058   11.7249   22.3543 C   0  0  0  0  0  0  0  0  0  0  0  0
    8.3602   12.9744   23.7280 C   0  0  0  0  0  0  0  0  0  0  0  0
    7.8047   11.7807   24.1887 C   0  0  0  0  0  0  0  0  0  0  0  0
    8.2998   10.5591   23.7322 C   0  0  0  0  0  0  0  0  0  0  0  0
    9.4108   12.9464   22.8108 C   0  0  0  0  0  0  0  0  0  0  0  0
    6.6891    8.8380   23.4175 C   0  0  0  0  0  0  0  0  0  0  0  0
   11.3087   13.8501   21.1718 N   0  0  0  0  0  0  0  0  0  0  0  0
    6.7342   11.8278   25.1234 N   0  3  0  0  0  0  0  0  0  0  0  0
    6.3165   12.9448   25.5108 O   0  5  0  0  0  0  0  0  0  0  0  0
    6.2395   10.7510   25.5332 O   0  0  0  0  0  0  0  0  0  0  0  0
    9.0981   15.1458   21.4549 O   0  0  0  0  0  0  0  0  0  0  0  0
   10.7574   15.1097   23.3504 O   0  0  0  0  0  0  0  0  0  0  0  0
    7.7741    9.3791   24.1677 O   0  0  0  0  0  0  0  0  0  0  0  0
   10.1064   14.4398   22.2331 S   0  0  0  0  0  0  0  0  0  0  0  0
    9.7413    9.5832   22.4558 H   0  0  0  0  0  0  0  0  0  0  0  0
   10.7241   11.6919   21.6398 H   0  0  0  0  0  0  0  0  0  0  0  0
    7.9758   13.9286   24.0819 H   0  0  0  0  0  0  0  0  0  0  0  0
    6.3647    7.8981   23.8707 H   0  0  0  0  0  0  0  0  0  0  0  0
    7.0076    8.6668   22.3862 H   0  0  0  0  0  0  0  0  0  0  0  0
    5.8602    9.5497   23.4273 H   0  0  0  0  0  0  0  0  0  0  0  0
   11.1589   13.9655   20.1620 H   0  0  0  0  0  0  0  0  0  0  0  0
   12.2910   13.9398   21.4587 H   0  0  0  0  0  0  0  0  0  0  0  0
  1  2  2  0  0  0  0
  1  5  1  0  0  0  0
  2  6  1  0  0  0  0
  3  4  1  0  0  0  0
  3  6  2  0  0  0  0
  4  5  2  0  0  0  0
  4  9  1  0  0  0  0
  5 14  1  0  0  0  0
  6 15  1  0  0  0  0
  7 14  1  0  0  0  0
  8 15  1  0  0  0  0
  9 10  1  0  0  0  0
  9 11  2  0  0  0  0
 12 15  2  0  0  0  0
 13 15  2  0  0  0  0
  1 16  1  0  0  0  0
  2 17  1  0  0  0  0
  3 18  1  0  0  0  0
  7 19  1  0  0  0  0
  7 20  1  0  0  0  0
  7 21  1  0  0  0  0
  8 22  1  0  0  0  0
  8 23  1  0  0  0  0
M  CHG  2   9   1  10  -1
M  END
> <Mol Weight>
232,21

> <Formula>
C7H8N2O5S

> <ID>
EN300-127082

> <name>
Sulfonamides

> <LogP>
0,36

> <ROCS_ShapeQuery>
x0446_0A_x1080_0A_x0929_0A_x0812_0A_x0719_0A_x1140_0A_x0528_0A_x0310_0A

> <ROCS_TanimotoCombo>
0.329 

> <ROCS_ShapeTanimoto>
0.198 

> <ROCS_ColorTanimoto>
0.131 

> <ROCS_RefTversky>
0.182 

> <ROCS_RefColorTversky>
0.144 

> <ROCS_RefTverskyCombo>
0.326 

> <ROCS_FitTversky>
1.747 

> <ROCS_FitColorTversky>
0.601 

> <ROCS_FitTverskyCombo>
2.348 

> <ROCS_ColorScore>
-5.128

> <ROCS_Overlap>
2149.849

> <ROCS_Rank>
447                 

$$$$
untitled-dbase-763_0
  -OEChem-02082415043D

 20 21  0     0  0  0  0  0  0999 V2000
    6.9756   11.7549   21.1863 C   0  0  0  0  0  0  0  0  0  0  0  0
    7.0730   10.7602   22.1690 C   0  0  0  0  0  0  0  0  0  0  0  0
    7.8438   12.8496   21.1803 C   0  0  0  0  0  0  0  0  0  0  0  0
    8.4790   10.1221   24.2820 C   0  0  0  0  0  0  0  0  0  0  0  0
    9.5330   10.8037   24.8451 C   0  0  0  0  0  0  0  0  0  0  0  0
    8.0659   10.8828   23.1566 C   0  0  0  0  0  0  0  0  0  0  0  0
    8.9107   11.9873   23.1161 C   0  0  0  0  0  0  0  0  0  0  0  0
    8.8385   12.9915   22.1525 C   0  0  0  0  0  0  0  0  0  0  0  0
   11.1625   13.7843   21.1155 N   0  0  0  0  0  0  0  0  0  0  0  0
    9.2123   15.4491   21.3817 O   0  0  0  0  0  0  0  0  0  0  0  0
   10.4151   14.6208   23.4347 O   0  0  0  0  0  0  0  0  0  0  0  0
    9.8028   11.9364   24.1452 O   0  0  0  0  0  0  0  0  0  0  0  0
    9.8975   14.3818   22.0956 S   0  0  0  0  0  0  0  0  0  0  0  0
    6.2116   11.6719   20.4173 H   0  0  0  0  0  0  0  0  0  0  0  0
    6.3910    9.9153   22.1611 H   0  0  0  0  0  0  0  0  0  0  0  0
    7.7344   13.5991   20.3992 H   0  0  0  0  0  0  0  0  0  0  0  0
    8.0598    9.1918   24.6386 H   0  0  0  0  0  0  0  0  0  0  0  0
   10.1654   10.6229   25.7021 H   0  0  0  0  0  0  0  0  0  0  0  0
   11.2455   14.1513   20.1596 H   0  0  0  0  0  0  0  0  0  0  0  0
   12.0652   13.5844   21.5633 H   0  0  0  0  0  0  0  0  0  0  0  0
  1  2  1  0  0  0  0
  1  3  2  0  0  0  0
  2  6  2  0  0  0  0
  3  8  1  0  0  0  0
  4  5  2  0  0  0  0
  4  6  1  0  0  0  0
  5 12  1  0  0  0  0
  6  7  1  0  0  0  0
  7  8  2  0  0  0  0
  7 12  1  0  0  0  0
  8 13  1  0  0  0  0
  9 13  1  0  0  0  0
 10 13  2  0  0  0  0
 11 13  2  0  0  0  0
  1 14  1  0  0  0  0
  2 15  1  0  0  0  0
  3 16  1  0  0  0  0
  4 17  1  0  0  0  0
  5 18  1  0  0  0  0
  9 19  1  0  0  0  0
  9 20  1  0  0  0  0
M  END
> <Mol Weight>
197,21

> <Formula>
C8H7NO3S

> <ID>
EN300-79466

> <name>
Sulfonamides

> <LogP>
0,74

> <ROCS_ShapeQuery>
x0446_0A_x1080_0A_x0929_0A_x0812_0A_x0719_0A_x1140_0A_x0528_0A_x0310_0A

> <ROCS_TanimotoCombo>
0.329 

> <ROCS_ShapeTanimoto>
0.151 

> <ROCS_ColorTanimoto>
0.177 

> <ROCS_RefTversky>
0.145 

> <ROCS_RefColorTversky>
0.183 

> <ROCS_RefTverskyCombo>
0.327 

> <ROCS_FitTversky>
1.462 

> <ROCS_FitColorTversky>
0.858 

> <ROCS_FitTverskyCombo>
2.320 

> <ROCS_ColorScore>
-6.509

> <ROCS_Overlap>
1704.733

> <ROCS_Rank>
448                 

$$$$
untitled-dbase-1213_37
  -OEChem-02082415043D

 26 26  0     0  0  0  0  0  0999 V2000
    9.5579   12.8811   23.3254 C   0  0  0  0  0  0  0  0  0  0  0  0
    7.3239   11.8336   23.8870 C   0  0  0  0  0  0  0  0  0  0  0  0
   10.2658   11.5931   23.7389 C   0  0  0  0  0  0  0  0  0  0  0  0
    8.0319   10.5459   24.3011 C   0  0  0  0  0  0  0  0  0  0  0  0
    8.2280   13.0610   24.0722 C   0  0  0  0  0  0  0  0  0  0  0  0
    9.3594   10.3844   23.5809 C   0  0  0  0  0  0  0  0  0  0  0  0
    7.5161   14.3296   23.6061 C   0  0  0  0  0  0  0  0  0  0  0  0
    6.3844   15.6114   21.5745 N   0  0  0  0  0  0  0  0  0  0  0  0
    8.9309   15.2500   21.6115 O   0  0  0  0  0  0  0  0  0  0  0  0
    7.4028   13.2764   21.2174 O   0  0  0  0  0  0  0  0  0  0  0  0
    9.1279   10.1688   22.2597 F   0  0  0  0  0  0  0  0  0  0  0  0
    9.9943    9.2794   24.0452 F   0  0  0  0  0  0  0  0  0  0  0  0
    7.6840   14.5461   21.8697 S   0  0  0  0  0  0  0  0  0  0  0  0
   10.2168   13.7350   23.5224 H   0  0  0  0  0  0  0  0  0  0  0  0
    9.3778   12.8629   22.2426 H   0  0  0  0  0  0  0  0  0  0  0  0
    7.0138   11.7540   22.8372 H   0  0  0  0  0  0  0  0  0  0  0  0
    6.4086   11.9496   24.4796 H   0  0  0  0  0  0  0  0  0  0  0  0
   11.1654   11.4598   23.1274 H   0  0  0  0  0  0  0  0  0  0  0  0
   10.6012   11.6681   24.7803 H   0  0  0  0  0  0  0  0  0  0  0  0
    8.1980   10.5418   25.3851 H   0  0  0  0  0  0  0  0  0  0  0  0
    7.3869    9.6884   24.0783 H   0  0  0  0  0  0  0  0  0  0  0  0
    8.4458   13.1707   25.1429 H   0  0  0  0  0  0  0  0  0  0  0  0
    7.9461   15.2027   24.0928 H   0  0  0  0  0  0  0  0  0  0  0  0
    6.4536   14.2694   23.8323 H   0  0  0  0  0  0  0  0  0  0  0  0
    5.4318   15.2330   21.6457 H   0  0  0  0  0  0  0  0  0  0  0  0
    6.4727   16.5771   21.9139 H   0  0  0  0  0  0  0  0  0  0  0  0
  1  3  1  0  0  0  0
  1  5  1  0  0  0  0
  2  4  1  0  0  0  0
  2  5  1  0  0  0  0
  3  6  1  0  0  0  0
  4  6  1  0  0  0  0
  5  7  1  0  0  0  0
  6 11  1  0  0  0  0
  6 12  1  0  0  0  0
  7 13  1  0  0  0  0
  8 13  1  0  0  0  0
  9 13  2  0  0  0  0
 10 13  2  0  0  0  0
  1 14  1  0  0  0  0
  1 15  1  0  0  0  0
  2 16  1  0  0  0  0
  2 17  1  0  0  0  0
  3 18  1  0  0  0  0
  3 19  1  0  0  0  0
  4 20  1  0  0  0  0
  4 21  1  0  0  0  0
  5 22  1  0  0  0  0
  7 23  1  0  0  0  0
  7 24  1  0  0  0  0
  8 25  1  0  0  0  0
  8 26  1  0  0  0  0
M  END
> <Mol Weight>
213,24

> <Formula>
C7H13F2NO2S

> <ID>
EN300-252322

> <name>
Sulfonamides

> <LogP>
0,22

> <ROCS_ShapeQuery>
x0446_0A_x1080_0A_x0929_0A_x0812_0A_x0719_0A_x1140_0A_x0528_0A_x0310_0A

> <ROCS_TanimotoCombo>
0.329 

> <ROCS_ShapeTanimoto>
0.190 

> <ROCS_ColorTanimoto>
0.139 

> <ROCS_RefTversky>
0.175 

> <ROCS_RefColorTversky>
0.142 

> <ROCS_RefTverskyCombo>
0.316 

> <ROCS_FitTversky>
1.836 

> <ROCS_FitColorTversky>
0.888 

> <ROCS_FitTverskyCombo>
2.724 

> <ROCS_ColorScore>
-5.029

> <ROCS_Overlap>
2059.134

> <ROCS_Rank>
449                 

$$$$
untitled-dbase-1907_2
  -OEChem-02082415043D

 27 28  0     0  0  0  0  0  0999 V2000
    6.1133   13.4881   25.0969 C   0  0  0  0  0  0  0  0  0  0  0  0
    9.4424    9.9947   23.5729 C   0  0  0  0  0  0  0  0  0  0  0  0
    7.2244   13.5112   24.2534 C   0  0  0  0  0  0  0  0  0  0  0  0
    8.3313    9.9716   24.4164 C   0  0  0  0  0  0  0  0  0  0  0  0
    5.7337   12.3015   25.7170 C   0  0  0  0  0  0  0  0  0  0  0  0
    9.8219   11.1814   22.9528 C   0  0  0  0  0  0  0  0  0  0  0  0
    7.5848   11.1380   24.6502 C   0  0  0  0  0  0  0  0  0  0  0  0
    7.9708   12.3448   24.0196 C   0  0  0  0  0  0  0  0  0  0  0  0
    6.4637   11.1333   25.4961 C   0  0  0  0  0  0  0  0  0  0  0  0
    9.0919   12.3496   23.1737 C   0  0  0  0  0  0  0  0  0  0  0  0
    4.9037   10.0970   26.9618 C   0  0  0  0  0  0  0  0  0  0  0  0
   11.0001   13.1705   21.5035 N   0  0  0  0  0  0  0  0  0  0  0  0
    8.6327   14.1838   21.3853 O   0  0  0  0  0  0  0  0  0  0  0  0
   10.1149   14.7388   23.3456 O   0  0  0  0  0  0  0  0  0  0  0  0
    6.0525    9.9932   26.1256 O   0  0  0  0  0  0  0  0  0  0  0  0
    9.6522   13.7941   22.3438 S   0  0  0  0  0  0  0  0  0  0  0  0
    5.5448   14.3973   25.2701 H   0  0  0  0  0  0  0  0  0  0  0  0
   10.0116    9.0857   23.4012 H   0  0  0  0  0  0  0  0  0  0  0  0
    7.4826   14.4610   23.7926 H   0  0  0  0  0  0  0  0  0  0  0  0
    8.0624    9.0281   24.8857 H   0  0  0  0  0  0  0  0  0  0  0  0
    4.8669   12.2917   26.3727 H   0  0  0  0  0  0  0  0  0  0  0  0
   10.6901   11.1831   22.2988 H   0  0  0  0  0  0  0  0  0  0  0  0
    4.6830    9.1214   27.4018 H   0  0  0  0  0  0  0  0  0  0  0  0
    4.0520   10.4434   26.3710 H   0  0  0  0  0  0  0  0  0  0  0  0
    5.1081   10.8158   27.7589 H   0  0  0  0  0  0  0  0  0  0  0  0
   10.9249   13.0680   20.4840 H   0  0  0  0  0  0  0  0  0  0  0  0
   11.9360   13.4463   21.8250 H   0  0  0  0  0  0  0  0  0  0  0  0
  1  3  1  0  0  0  0
  1  5  2  0  0  0  0
  2  4  2  0  0  0  0
  2  6  1  0  0  0  0
  3  8  2  0  0  0  0
  4  7  1  0  0  0  0
  5  9  1  0  0  0  0
  6 10  2  0  0  0  0
  7  8  1  0  0  0  0
  7  9  2  0  0  0  0
  8 10  1  0  0  0  0
  9 15  1  0  0  0  0
 10 16  1  0  0  0  0
 11 15  1  0  0  0  0
 12 16  1  0  0  0  0
 13 16  2  0  0  0  0
 14 16  2  0  0  0  0
  1 17  1  0  0  0  0
  2 18  1  0  0  0  0
  3 19  1  0  0  0  0
  4 20  1  0  0  0  0
  5 21  1  0  0  0  0
  6 22  1  0  0  0  0
 11 23  1  0  0  0  0
 11 24  1  0  0  0  0
 11 25  1  0  0  0  0
 12 26  1  0  0  0  0
 12 27  1  0  0  0  0
M  END
> <Mol Weight>
237,27

> <Formula>
C11H11NO3S

> <ID>
EN300-7409041

> <name>
Sulfonamides

> <LogP>
1,41

> <ROCS_ShapeQuery>
x0446_0A_x1080_0A_x0929_0A_x0812_0A_x0719_0A_x1140_0A_x0528_0A_x0310_0A

> <ROCS_TanimotoCombo>
0.329 

> <ROCS_ShapeTanimoto>
0.207 

> <ROCS_ColorTanimoto>
0.122 

> <ROCS_RefTversky>
0.190 

> <ROCS_RefColorTversky>
0.131 

> <ROCS_RefTverskyCombo>
0.322 

> <ROCS_FitTversky>
1.745 

> <ROCS_FitColorTversky>
0.619 

> <ROCS_FitTverskyCombo>
2.364 

> <ROCS_ColorScore>
-4.684

> <ROCS_Overlap>
2245.697

> <ROCS_Rank>
450                 

$$$$
untitled-dbase-1777_47
  -OEChem-02082415043D

 28 28  0     0  0  0  0  0  0999 V2000
    8.3989   13.0129   24.2665 C   0  0  0  0  0  0  0  0  0  0  0  0
   10.0599   11.8123   22.9872 C   0  0  0  0  0  0  0  0  0  0  0  0
    7.9608   10.7511   23.5390 C   0  0  0  0  0  0  0  0  0  0  0  0
    9.6523   12.9664   23.6562 C   0  0  0  0  0  0  0  0  0  0  0  0
    7.5531   11.9052   24.2079 C   0  0  0  0  0  0  0  0  0  0  0  0
    9.2142   10.7046   22.9286 C   0  0  0  0  0  0  0  0  0  0  0  0
    5.9761   13.1602   25.4704 C   0  0  0  0  0  0  0  0  0  0  0  0
   10.9068    9.5989   21.6763 C   0  0  0  0  0  0  0  0  0  0  0  0
   10.5570   14.1503   23.7199 C   0  0  0  0  0  0  0  0  0  0  0  0
   11.1527   13.6218   21.1867 N   0  0  0  0  0  0  0  0  0  0  0  0
    9.1878   15.1837   21.7490 O   0  0  0  0  0  0  0  0  0  0  0  0
   11.5549   15.9769   22.1402 O   0  0  0  0  0  0  0  0  0  0  0  0
    6.3298   11.9496   24.8034 O   0  0  0  0  0  0  0  0  0  0  0  0
    9.6127    9.5781   22.2767 O   0  0  0  0  0  0  0  0  0  0  0  0
   10.5638   14.9143   22.1302 S   0  0  0  0  0  0  0  0  0  0  0  0
    8.0789   13.9112   24.7887 H   0  0  0  0  0  0  0  0  0  0  0  0
   11.0368   11.7724   22.5112 H   0  0  0  0  0  0  0  0  0  0  0  0
    7.3016    9.8880   23.4937 H   0  0  0  0  0  0  0  0  0  0  0  0
    4.9767   13.0612   25.9010 H   0  0  0  0  0  0  0  0  0  0  0  0
    5.9973   13.9891   24.7584 H   0  0  0  0  0  0  0  0  0  0  0  0
    6.6973   13.3499   26.2689 H   0  0  0  0  0  0  0  0  0  0  0  0
   11.0992    8.6394   21.1902 H   0  0  0  0  0  0  0  0  0  0  0  0
   11.6621    9.7891   22.4430 H   0  0  0  0  0  0  0  0  0  0  0  0
   10.9395   10.3960   20.9298 H   0  0  0  0  0  0  0  0  0  0  0  0
   11.5885   13.8730   23.9650 H   0  0  0  0  0  0  0  0  0  0  0  0
   10.2178   14.8943   24.4498 H   0  0  0  0  0  0  0  0  0  0  0  0
   10.4952   13.1578   20.5480 H   0  0  0  0  0  0  0  0  0  0  0  0
   12.1074   13.6979   20.8147 H   0  0  0  0  0  0  0  0  0  0  0  0
  1  4  2  0  0  0  0
  1  5  1  0  0  0  0
  2  4  1  0  0  0  0
  2  6  2  0  0  0  0
  3  5  2  0  0  0  0
  3  6  1  0  0  0  0
  4  9  1  0  0  0  0
  5 13  1  0  0  0  0
  6 14  1  0  0  0  0
  7 13  1  0  0  0  0
  8 14  1  0  0  0  0
  9 15  1  0  0  0  0
 10 15  1  0  0  0  0
 11 15  2  0  0  0  0
 12 15  2  0  0  0  0
  1 16  1  0  0  0  0
  2 17  1  0  0  0  0
  3 18  1  0  0  0  0
  7 19  1  0  0  0  0
  7 20  1  0  0  0  0
  7 21  1  0  0  0  0
  8 22  1  0  0  0  0
  8 23  1  0  0  0  0
  8 24  1  0  0  0  0
  9 25  1  0  0  0  0
  9 26  1  0  0  0  0
 10 27  1  0  0  0  0
 10 28  1  0  0  0  0
M  END
> <Mol Weight>
231,27

> <Formula>
C9H13NO4S

> <ID>
EN300-679657

> <name>
Sulfonamides

> <LogP>
0,03

> <ROCS_ShapeQuery>
x0446_0A_x1080_0A_x0929_0A_x0812_0A_x0719_0A_x1140_0A_x0528_0A_x0310_0A

> <ROCS_TanimotoCombo>
0.329 

> <ROCS_ShapeTanimoto>
0.211 

> <ROCS_ColorTanimoto>
0.117 

> <ROCS_RefTversky>
0.193 

> <ROCS_RefColorTversky>
0.127 

> <ROCS_RefTverskyCombo>
0.320 

> <ROCS_FitTversky>
1.865 

> <ROCS_FitColorTversky>
0.600 

> <ROCS_FitTverskyCombo>
2.465 

> <ROCS_ColorScore>
-4.539

> <ROCS_Overlap>
2270.464

> <ROCS_Rank>
451                 

$$$$
untitled-dbase-702_46
  -OEChem-02082415043D

 27 27  0     0  0  0  0  0  0999 V2000
    7.3826   11.8593   23.9571 C   0  0  0  0  0  0  0  0  0  0  0  0
    9.8711   11.7742   24.2636 C   0  0  0  0  0  0  0  0  0  0  0  0
    7.4524   10.3903   23.5578 C   0  0  0  0  0  0  0  0  0  0  0  0
    9.8015   10.3099   23.8474 C   0  0  0  0  0  0  0  0  0  0  0  0
    8.7086   12.5662   23.6543 C   0  0  0  0  0  0  0  0  0  0  0  0
    8.6950   14.0043   24.1647 C   0  0  0  0  0  0  0  0  0  0  0  0
    7.5582   14.7962   23.5460 C   0  0  0  0  0  0  0  0  0  0  0  0
    6.3146   15.7633   21.4084 N   0  0  0  0  0  0  0  0  0  0  0  0
    8.8807   15.5862   21.4355 O   0  0  0  0  0  0  0  0  0  0  0  0
    7.4926   13.4796   21.2899 O   0  0  0  0  0  0  0  0  0  0  0  0
    8.5438    9.7404   24.2085 O   0  0  0  0  0  0  0  0  0  0  0  0
    7.6907   14.8304   21.7867 S   0  0  0  0  0  0  0  0  0  0  0  0
    6.5556   12.3514   23.4331 H   0  0  0  0  0  0  0  0  0  0  0  0
    7.1772   11.9247   25.0333 H   0  0  0  0  0  0  0  0  0  0  0  0
    9.8145   11.8352   25.3579 H   0  0  0  0  0  0  0  0  0  0  0  0
   10.8313   12.2049   23.9585 H   0  0  0  0  0  0  0  0  0  0  0  0
    6.5325    9.8792   23.8590 H   0  0  0  0  0  0  0  0  0  0  0  0
    7.5541   10.2763   22.4722 H   0  0  0  0  0  0  0  0  0  0  0  0
    9.9586   10.1939   22.7687 H   0  0  0  0  0  0  0  0  0  0  0  0
   10.5844    9.7405   24.3584 H   0  0  0  0  0  0  0  0  0  0  0  0
    8.8437   12.5944   22.5648 H   0  0  0  0  0  0  0  0  0  0  0  0
    9.6548   14.4750   23.9311 H   0  0  0  0  0  0  0  0  0  0  0  0
    8.6001   13.9954   25.2549 H   0  0  0  0  0  0  0  0  0  0  0  0
    6.5863   14.3532   23.7829 H   0  0  0  0  0  0  0  0  0  0  0  0
    7.5636   15.8363   23.8854 H   0  0  0  0  0  0  0  0  0  0  0  0
    6.4651   16.7201   21.0655 H   0  0  0  0  0  0  0  0  0  0  0  0
    5.5197   15.2854   20.9665 H   0  0  0  0  0  0  0  0  0  0  0  0
  1  3  1  0  0  0  0
  1  5  1  0  0  0  0
  2  4  1  0  0  0  0
  2  5  1  0  0  0  0
  3 11  1  0  0  0  0
  4 11  1  0  0  0  0
  5  6  1  0  0  0  0
  6  7  1  0  0  0  0
  7 12  1  0  0  0  0
  8 12  1  0  0  0  0
  9 12  2  0  0  0  0
 10 12  2  0  0  0  0
  1 13  1  0  0  0  0
  1 14  1  0  0  0  0
  2 15  1  0  0  0  0
  2 16  1  0  0  0  0
  3 17  1  0  0  0  0
  3 18  1  0  0  0  0
  4 19  1  0  0  0  0
  4 20  1  0  0  0  0
  5 21  1  0  0  0  0
  6 22  1  0  0  0  0
  6 23  1  0  0  0  0
  7 24  1  0  0  0  0
  7 25  1  0  0  0  0
  8 26  1  0  0  0  0
  8 27  1  0  0  0  0
M  END
> <Mol Weight>
193,26

> <Formula>
C7H15NO3S

> <ID>
EN300-222625

> <name>
Sulfonamides

> <LogP>
-0,59

> <ROCS_ShapeQuery>
x0446_0A_x1080_0A_x0929_0A_x0812_0A_x0719_0A_x1140_0A_x0528_0A_x0310_0A

> <ROCS_TanimotoCombo>
0.329 

> <ROCS_ShapeTanimoto>
0.158 

> <ROCS_ColorTanimoto>
0.171 

> <ROCS_RefTversky>
0.149 

> <ROCS_RefColorTversky>
0.173 

> <ROCS_RefTverskyCombo>
0.322 

> <ROCS_FitTversky>
1.643 

> <ROCS_FitColorTversky>
0.930 

> <ROCS_FitTverskyCombo>
2.574 

> <ROCS_ColorScore>
-6.153

> <ROCS_Overlap>
1753.877

> <ROCS_Rank>
452                 

$$$$
untitled-dbase-1209_57
  -OEChem-02082415043D

 26 26  0     1  0  0  0  0  0999 V2000
    8.0276   10.5339   24.2252 C   0  0  0  0  0  0  0  0  0  0  0  0
    9.3901   10.3912   23.5521 C   0  0  0  0  0  0  0  0  0  0  0  0
    7.3248   11.8267   23.8137 C   0  0  0  0  0  0  0  0  0  0  0  0
   10.2714   11.6099   23.8070 C   0  0  0  0  0  0  0  0  0  0  0  0
    8.2034   13.0564   24.0797 C   0  0  1  0  0  0  0  0  0  0  0  0
    9.5692   12.8990   23.4094 C   0  0  0  0  0  0  0  0  0  0  0  0
    7.5016   14.3292   23.6068 C   0  0  0  0  0  0  0  0  0  0  0  0
    6.3899   15.6131   21.5655 N   0  0  0  0  0  0  0  0  0  0  0  0
    8.9338   15.2358   21.6184 O   0  0  0  0  0  0  0  0  0  0  0  0
    7.3957   13.2709   21.2201 O   0  0  0  0  0  0  0  0  0  0  0  0
   10.3629   13.9521   23.7295 F   0  0  0  0  0  0  0  0  0  0  0  0
    9.4235   12.9206   22.0586 F   0  0  0  0  0  0  0  0  0  0  0  0
    7.6810   14.5404   21.8713 S   0  0  0  0  0  0  0  0  0  0  0  0
    7.3980    9.6748   23.9672 H   0  0  0  0  0  0  0  0  0  0  0  0
    8.1561   10.5201   25.3146 H   0  0  0  0  0  0  0  0  0  0  0  0
    9.8916    9.4894   23.9209 H   0  0  0  0  0  0  0  0  0  0  0  0
    9.2507   10.2600   22.4720 H   0  0  0  0  0  0  0  0  0  0  0  0
    7.0677   11.7732   22.7480 H   0  0  0  0  0  0  0  0  0  0  0  0
    6.3805   11.9157   24.3639 H   0  0  0  0  0  0  0  0  0  0  0  0
   10.5517   11.6552   24.8662 H   0  0  0  0  0  0  0  0  0  0  0  0
   11.2034   11.5102   23.2391 H   0  0  0  0  0  0  0  0  0  0  0  0
    8.3602   13.1509   25.1625 H   0  0  0  0  0  0  0  0  0  0  0  0
    7.9347   15.1997   24.0945 H   0  0  0  0  0  0  0  0  0  0  0  0
    6.4379   14.2752   23.8275 H   0  0  0  0  0  0  0  0  0  0  0  0
    5.4346   15.2409   21.6320 H   0  0  0  0  0  0  0  0  0  0  0  0
    6.4823   16.5790   21.9031 H   0  0  0  0  0  0  0  0  0  0  0  0
  1  2  1  0  0  0  0
  1  3  1  0  0  0  0
  2  4  1  0  0  0  0
  3  5  1  0  0  0  0
  4  6  1  0  0  0  0
  5  6  1  0  0  0  0
  5  7  1  0  0  0  0
  6 11  1  0  0  0  0
  6 12  1  0  0  0  0
  7 13  1  0  0  0  0
  8 13  1  0  0  0  0
  9 13  2  0  0  0  0
 10 13  2  0  0  0  0
  1 14  1  0  0  0  0
  1 15  1  0  0  0  0
  2 16  1  0  0  0  0
  2 17  1  0  0  0  0
  3 18  1  0  0  0  0
  3 19  1  0  0  0  0
  4 20  1  0  0  0  0
  4 21  1  0  0  0  0
  5 22  1  0  0  0  0
  7 23  1  0  0  0  0
  7 24  1  0  0  0  0
  8 25  1  0  0  0  0
  8 26  1  0  0  0  0
M  END
> <Mol Weight>
213,24

> <Formula>
C7H13F2NO2S

> <ID>
EN300-1120695

> <name>
Sulfonamides

> <LogP>
0,59

> <ROCS_ShapeQuery>
x0446_0A_x1080_0A_x0929_0A_x0812_0A_x0719_0A_x1140_0A_x0528_0A_x0310_0A

> <ROCS_TanimotoCombo>
0.329 

> <ROCS_ShapeTanimoto>
0.190 

> <ROCS_ColorTanimoto>
0.139 

> <ROCS_RefTversky>
0.175 

> <ROCS_RefColorTversky>
0.141 

> <ROCS_RefTverskyCombo>
0.316 

> <ROCS_FitTversky>
1.826 

> <ROCS_FitColorTversky>
0.886 

> <ROCS_FitTverskyCombo>
2.712 

> <ROCS_ColorScore>
-5.018

> <ROCS_Overlap>
2062.042

> <ROCS_Rank>
453                 

$$$$
untitled-dbase-2703_26
  -OEChem-02082415043D

 24 24  0     0  0  0  0  0  0999 V2000
    9.4491   10.5391   22.7276 C   0  0  0  0  0  0  0  0  0  0  0  0
    9.9702   11.7355   22.2351 C   0  0  0  0  0  0  0  0  0  0  0  0
    8.6492   12.9705   23.8372 C   0  0  0  0  0  0  0  0  0  0  0  0
    8.5279   10.5583   23.7749 C   0  0  0  0  0  0  0  0  0  0  0  0
    9.5703   12.9512   22.7899 C   0  0  0  0  0  0  0  0  0  0  0  0
    8.1280   11.7740   24.3297 C   0  0  0  0  0  0  0  0  0  0  0  0
    8.4973    8.1860   23.6106 C   0  0  0  0  0  0  0  0  0  0  0  0
   11.2629   13.8693   20.9468 N   0  0  0  0  0  0  0  0  0  0  0  0
    9.1418   15.2020   21.5555 O   0  0  0  0  0  0  0  0  0  0  0  0
   11.0310   15.0651   23.2169 O   0  0  0  0  0  0  0  0  0  0  0  0
    6.6185   10.4674   26.0116 O   0  0  0  0  0  0  0  0  0  0  0  0
    7.3798   12.8111   26.6240 O   0  0  0  0  0  0  0  0  0  0  0  0
    8.0303    9.3778   24.2393 O   0  0  0  0  0  0  0  0  0  0  0  0
   10.2239   14.4484   22.1733 S   0  0  0  0  0  0  0  0  0  0  0  0
    6.9730   11.8240   25.6426 S   0  0  0  0  0  0  0  0  0  0  0  0
    5.3193   12.6208   24.7382 Cl  0  0  0  0  0  0  0  0  0  0  0  0
    9.7635    9.5958   22.2892 H   0  0  0  0  0  0  0  0  0  0  0  0
   10.6867   11.7090   21.4182 H   0  0  0  0  0  0  0  0  0  0  0  0
    8.3374   13.9192   24.2676 H   0  0  0  0  0  0  0  0  0  0  0  0
    8.0228    7.3182   24.0751 H   0  0  0  0  0  0  0  0  0  0  0  0
    9.5833    8.1199   23.7142 H   0  0  0  0  0  0  0  0  0  0  0  0
    8.2356    8.2175   22.5503 H   0  0  0  0  0  0  0  0  0  0  0  0
   10.9867   14.0225   19.9692 H   0  0  0  0  0  0  0  0  0  0  0  0
   12.2761   13.9279   21.1060 H   0  0  0  0  0  0  0  0  0  0  0  0
  1  2  2  0  0  0  0
  1  4  1  0  0  0  0
  2  5  1  0  0  0  0
  3  5  2  0  0  0  0
  3  6  1  0  0  0  0
  4  6  2  0  0  0  0
  4 13  1  0  0  0  0
  5 14  1  0  0  0  0
  6 15  1  0  0  0  0
  7 13  1  0  0  0  0
  8 14  1  0  0  0  0
  9 14  2  0  0  0  0
 10 14  2  0  0  0  0
 11 15  2  0  0  0  0
 12 15  2  0  0  0  0
 15 16  1  0  0  0  0
  1 17  1  0  0  0  0
  2 18  1  0  0  0  0
  3 19  1  0  0  0  0
  7 20  1  0  0  0  0
  7 21  1  0  0  0  0
  7 22  1  0  0  0  0
  8 23  1  0  0  0  0
  8 24  1  0  0  0  0
M  END
> <Mol Weight>
285,71

> <Formula>
C7H8ClNO5S2

> <ID>
EN300-201598

> <name>
Sulfonamides

> <LogP>
0,37

> <ROCS_ShapeQuery>
x0446_0A_x1080_0A_x0929_0A_x0812_0A_x0719_0A_x1140_0A_x0528_0A_x0310_0A

> <ROCS_TanimotoCombo>
0.329 

> <ROCS_ShapeTanimoto>
0.197 

> <ROCS_ColorTanimoto>
0.132 

> <ROCS_RefTversky>
0.182 

> <ROCS_RefColorTversky>
0.138 

> <ROCS_RefTverskyCombo>
0.320 

> <ROCS_FitTversky>
1.731 

> <ROCS_FitColorTversky>
0.743 

> <ROCS_FitTverskyCombo>
2.474 

> <ROCS_ColorScore>
-4.911

> <ROCS_Overlap>
2143.868

> <ROCS_Rank>
454                 

$$$$
untitled-dbase-2077_95
  -OEChem-02082415043D

 29 29  0     1  0  0  0  0  0999 V2000
    7.8596   10.0644   24.6659 C   0  0  0  0  0  0  0  0  0  0  0  0
    8.5064    9.5219   23.5555 C   0  0  0  0  0  0  0  0  0  0  0  0
    7.9963   11.4213   24.9588 C   0  0  0  0  0  0  0  0  0  0  0  0
    9.2901   10.3363   22.7381 C   0  0  0  0  0  0  0  0  0  0  0  0
    8.7800   12.2357   24.1414 C   0  0  0  0  0  0  0  0  0  0  0  0
    9.4269   11.6933   23.0310 C   0  0  0  0  0  0  0  0  0  0  0  0
   10.9027   13.7298   22.9290 C   0  0  0  0  0  0  0  0  0  0  0  0
   12.4024   15.5519   22.7268 C   0  0  0  0  0  0  0  0  0  0  0  0
    9.5301   13.1296   20.9202 C   0  0  0  0  0  0  0  0  0  0  0  0
   10.2818   12.5822   22.1398 C   0  0  2  0  0  0  0  0  0  0  0  0
    7.4298   14.4601   19.9876 N   0  0  0  0  0  0  0  0  0  0  0  0
   10.6987   13.9660   24.1128 O   0  0  0  0  0  0  0  0  0  0  0  0
    7.7371   14.1515   22.5228 O   0  0  0  0  0  0  0  0  0  0  0  0
    9.2810   15.7077   21.2658 O   0  0  0  0  0  0  0  0  0  0  0  0
   11.7344   14.4453   22.1122 O   0  0  0  0  0  0  0  0  0  0  0  0
    8.4843   14.4954   21.3263 S   0  0  0  0  0  0  0  0  0  0  0  0
    7.2483    9.4304   25.3015 H   0  0  0  0  0  0  0  0  0  0  0  0
    8.3992    8.4656   23.3267 H   0  0  0  0  0  0  0  0  0  0  0  0
    7.4919   11.8442   25.8226 H   0  0  0  0  0  0  0  0  0  0  0  0
    9.7906    9.9049   21.8752 H   0  0  0  0  0  0  0  0  0  0  0  0
    8.8809   13.2918   24.3774 H   0  0  0  0  0  0  0  0  0  0  0  0
   13.0370   16.0503   21.9899 H   0  0  0  0  0  0  0  0  0  0  0  0
   13.0085   15.1940   23.5629 H   0  0  0  0  0  0  0  0  0  0  0  0
   11.6548   16.2573   23.0970 H   0  0  0  0  0  0  0  0  0  0  0  0
   10.1998   13.4620   20.1216 H   0  0  0  0  0  0  0  0  0  0  0  0
    8.8669   12.3700   20.4922 H   0  0  0  0  0  0  0  0  0  0  0  0
   11.1233   11.9731   21.7796 H   0  0  0  0  0  0  0  0  0  0  0  0
    6.4630   14.1514   20.1478 H   0  0  0  0  0  0  0  0  0  0  0  0
    7.5146   15.2111   19.2917 H   0  0  0  0  0  0  0  0  0  0  0  0
  1  2  1  0  0  0  0
  1  3  2  0  0  0  0
  2  4  2  0  0  0  0
  3  5  1  0  0  0  0
  4  6  1  0  0  0  0
  5  6  2  0  0  0  0
  6 10  1  0  0  0  0
  7 10  1  0  0  0  0
  7 12  2  0  0  0  0
  7 15  1  0  0  0  0
  8 15  1  0  0  0  0
  9 10  1  0  0  0  0
  9 16  1  0  0  0  0
 11 16  1  0  0  0  0
 13 16  2  0  0  0  0
 14 16  2  0  0  0  0
  1 17  1  0  0  0  0
  2 18  1  0  0  0  0
  3 19  1  0  0  0  0
  4 20  1  0  0  0  0
  5 21  1  0  0  0  0
  8 22  1  0  0  0  0
  8 23  1  0  0  0  0
  8 24  1  0  0  0  0
  9 25  1  0  0  0  0
  9 26  1  0  0  0  0
 10 27  1  0  0  0  0
 11 28  1  0  0  0  0
 11 29  1  0  0  0  0
M  END
> <Mol Weight>
243,28

> <Formula>
C10H13NO4S

> <ID>
EN300-1618108

> <name>
Sulfonamides

> <LogP>
0,15

> <ROCS_ShapeQuery>
x0446_0A_x1080_0A_x0929_0A_x0812_0A_x0719_0A_x1140_0A_x0528_0A_x0310_0A

> <ROCS_TanimotoCombo>
0.329 

> <ROCS_ShapeTanimoto>
0.207 

> <ROCS_ColorTanimoto>
0.122 

> <ROCS_RefTversky>
0.190 

> <ROCS_RefColorTversky>
0.128 

> <ROCS_RefTverskyCombo>
0.318 

> <ROCS_FitTversky>
1.784 

> <ROCS_FitColorTversky>
0.691 

> <ROCS_FitTverskyCombo>
2.476 

> <ROCS_ColorScore>
-4.572

> <ROCS_Overlap>
2238.457

> <ROCS_Rank>
455                 

$$$$
untitled-dbase-2597_231
  -OEChem-02082415043D

 31 32  0     0  0  0  0  0  0999 V2000
   10.1062   11.6436   24.6102 C   0  0  0  0  0  0  0  0  0  0  0  0
    9.3004   10.5053   24.6267 C   0  0  0  0  0  0  0  0  0  0  0  0
    7.7388   11.5892   23.1355 C   0  0  0  0  0  0  0  0  0  0  0  0
    9.7284   12.7548   23.8564 C   0  0  0  0  0  0  0  0  0  0  0  0
    8.5446   12.7276   23.1190 C   0  0  0  0  0  0  0  0  0  0  0  0
    8.1166   10.4780   23.8893 C   0  0  0  0  0  0  0  0  0  0  0  0
   13.0779   16.8786   23.0755 C   0  0  0  0  0  0  0  0  0  0  0  0
   12.4984   17.1610   21.7218 C   0  0  0  0  0  0  0  0  0  0  0  0
   11.9051   16.0712   22.5788 C   0  0  0  0  0  0  0  0  0  0  0  0
   12.0885   14.6130   22.1984 C   0  0  0  0  0  0  0  0  0  0  0  0
   11.8648   13.6865   23.3837 C   0  0  0  0  0  0  0  0  0  0  0  0
    7.1220   14.9737   23.3086 N   0  0  0  0  0  0  0  0  0  0  0  0
    9.2362   14.8838   21.8362 O   0  0  0  0  0  0  0  0  0  0  0  0
    7.1702   13.6415   21.1041 O   0  0  0  0  0  0  0  0  0  0  0  0
   10.5302   13.8567   23.8564 O   0  0  0  0  0  0  0  0  0  0  0  0
    8.0499   14.1079   22.1654 S   0  0  0  0  0  0  0  0  0  0  0  0
    7.1211    9.0744   23.9131 Cl  0  0  0  0  0  0  0  0  0  0  0  0
   11.0261   11.6587   25.1885 H   0  0  0  0  0  0  0  0  0  0  0  0
    9.6065    9.6474   25.2201 H   0  0  0  0  0  0  0  0  0  0  0  0
    6.8150   11.5703   22.5617 H   0  0  0  0  0  0  0  0  0  0  0  0
   14.0518   16.4067   23.1170 H   0  0  0  0  0  0  0  0  0  0  0  0
   12.8955   17.5996   23.8630 H   0  0  0  0  0  0  0  0  0  0  0  0
   11.9245   18.0710   21.5979 H   0  0  0  0  0  0  0  0  0  0  0  0
   13.0816   16.8768   20.8546 H   0  0  0  0  0  0  0  0  0  0  0  0
   10.9390   16.2568   23.0319 H   0  0  0  0  0  0  0  0  0  0  0  0
   13.0962   14.4575   21.7949 H   0  0  0  0  0  0  0  0  0  0  0  0
   11.3965   14.3493   21.3895 H   0  0  0  0  0  0  0  0  0  0  0  0
   12.0006   12.6399   23.0928 H   0  0  0  0  0  0  0  0  0  0  0  0
   12.5559   13.9218   24.1994 H   0  0  0  0  0  0  0  0  0  0  0  0
    7.5130   15.8462   23.6844 H   0  0  0  0  0  0  0  0  0  0  0  0
    6.1026   14.9953   23.1842 H   0  0  0  0  0  0  0  0  0  0  0  0
  1  2  2  0  0  0  0
  1  4  1  0  0  0  0
  2  6  1  0  0  0  0
  3  5  1  0  0  0  0
  3  6  2  0  0  0  0
  4  5  2  0  0  0  0
  4 15  1  0  0  0  0
  5 16  1  0  0  0  0
  6 17  1  0  0  0  0
  7  8  1  0  0  0  0
  7  9  1  0  0  0  0
  8  9  1  0  0  0  0
  9 10  1  0  0  0  0
 10 11  1  0  0  0  0
 11 15  1  0  0  0  0
 12 16  1  0  0  0  0
 13 16  2  0  0  0  0
 14 16  2  0  0  0  0
  1 18  1  0  0  0  0
  2 19  1  0  0  0  0
  3 20  1  0  0  0  0
  7 21  1  0  0  0  0
  7 22  1  0  0  0  0
  8 23  1  0  0  0  0
  8 24  1  0  0  0  0
  9 25  1  0  0  0  0
 10 26  1  0  0  0  0
 10 27  1  0  0  0  0
 11 28  1  0  0  0  0
 11 29  1  0  0  0  0
 12 30  1  0  0  0  0
 12 31  1  0  0  0  0
M  END
> <Mol Weight>
275,75

> <Formula>
C11H14ClNO3S

> <ID>
EN300-13365942

> <name>
Sulfonamides

> <LogP>
2,17

> <ROCS_ShapeQuery>
x0446_0A_x1080_0A_x0929_0A_x0812_0A_x0719_0A_x1140_0A_x0528_0A_x0310_0A

> <ROCS_TanimotoCombo>
0.328 

> <ROCS_ShapeTanimoto>
0.194 

> <ROCS_ColorTanimoto>
0.135 

> <ROCS_RefTversky>
0.180 

> <ROCS_RefColorTversky>
0.141 

> <ROCS_RefTverskyCombo>
0.321 

> <ROCS_FitTversky>
1.643 

> <ROCS_FitColorTversky>
0.758 

> <ROCS_FitTverskyCombo>
2.401 

> <ROCS_ColorScore>
-5.014

> <ROCS_Overlap>
2123.664

> <ROCS_Rank>
456                 

$$$$
untitled-dbase-1379_37
  -OEChem-02082415043D

 26 26  0     0  0  0  0  0  0999 V2000
    9.8256   10.3781   24.2265 C   0  0  0  0  0  0  0  0  0  0  0  0
   10.5533   11.5617   24.1036 C   0  0  0  0  0  0  0  0  0  0  0  0
    7.7738   11.6026   23.8687 C   0  0  0  0  0  0  0  0  0  0  0  0
    8.4358   10.3985   24.1090 C   0  0  0  0  0  0  0  0  0  0  0  0
    8.5016   12.7862   23.7458 C   0  0  0  0  0  0  0  0  0  0  0  0
    9.8914   12.7657   23.8633 C   0  0  0  0  0  0  0  0  0  0  0  0
   12.0342   13.7971   23.8827 C   0  0  0  0  0  0  0  0  0  0  0  0
    6.3960   15.7315   21.9959 C   0  0  0  0  0  0  0  0  0  0  0  0
    7.7001    9.2016   24.2329 N   0  0  0  0  0  0  0  0  0  0  0  0
    7.8085   14.0120   23.4988 N   0  0  0  0  0  0  0  0  0  0  0  0
    8.9617   15.4347   21.6853 O   0  0  0  0  0  0  0  0  0  0  0  0
    7.4358   13.5720   20.9456 O   0  0  0  0  0  0  0  0  0  0  0  0
   10.6193   13.9123   23.7487 O   0  0  0  0  0  0  0  0  0  0  0  0
    7.7794   14.6183   21.8881 S   0  0  0  0  0  0  0  0  0  0  0  0
   10.3515    9.4454   24.4131 H   0  0  0  0  0  0  0  0  0  0  0  0
   11.6359   11.5383   24.1963 H   0  0  0  0  0  0  0  0  0  0  0  0
    6.6897   11.6181   23.7774 H   0  0  0  0  0  0  0  0  0  0  0  0
   12.4930   14.7825   23.7706 H   0  0  0  0  0  0  0  0  0  0  0  0
   12.4189   13.1153   23.1201 H   0  0  0  0  0  0  0  0  0  0  0  0
   12.2662   13.4003   24.8739 H   0  0  0  0  0  0  0  0  0  0  0  0
    6.2551   16.2011   21.0211 H   0  0  0  0  0  0  0  0  0  0  0  0
    5.5119   15.1561   22.2746 H   0  0  0  0  0  0  0  0  0  0  0  0
    6.6178   16.4837   22.7543 H   0  0  0  0  0  0  0  0  0  0  0  0
    6.7016    9.2364   24.1938 H   0  0  0  0  0  0  0  0  0  0  0  0
    8.1823    8.3533   24.4517 H   0  0  0  0  0  0  0  0  0  0  0  0
    7.9477   14.7300   24.2279 H   0  0  0  0  0  0  0  0  0  0  0  0
  1  2  2  0  0  0  0
  1  4  1  0  0  0  0
  2  6  1  0  0  0  0
  3  4  2  0  0  0  0
  3  5  1  0  0  0  0
  4  9  1  0  0  0  0
  5  6  2  0  0  0  0
  5 10  1  0  0  0  0
  6 13  1  0  0  0  0
  7 13  1  0  0  0  0
  8 14  1  0  0  0  0
 10 14  1  0  0  0  0
 11 14  2  0  0  0  0
 12 14  2  0  0  0  0
  1 15  1  0  0  0  0
  2 16  1  0  0  0  0
  3 17  1  0  0  0  0
  7 18  1  0  0  0  0
  7 19  1  0  0  0  0
  7 20  1  0  0  0  0
  8 21  1  0  0  0  0
  8 22  1  0  0  0  0
  8 23  1  0  0  0  0
  9 24  1  0  0  0  0
  9 25  1  0  0  0  0
 10 26  1  0  0  0  0
M  END
> <Mol Weight>
216,26

> <Formula>
C8H12N2O3S

> <ID>
EN300-29797

> <name>
Sulfonamides

> <LogP>
-0,64

> <ROCS_ShapeQuery>
x0446_0A_x1080_0A_x0929_0A_x0812_0A_x0719_0A_x1140_0A_x0528_0A_x0310_0A

> <ROCS_TanimotoCombo>
0.328 

> <ROCS_ShapeTanimoto>
0.185 

> <ROCS_ColorTanimoto>
0.143 

> <ROCS_RefTversky>
0.172 

> <ROCS_RefColorTversky>
0.155 

> <ROCS_RefTverskyCombo>
0.327 

> <ROCS_FitTversky>
1.721 

> <ROCS_FitColorTversky>
0.651 

> <ROCS_FitTverskyCombo>
2.372 

> <ROCS_ColorScore>
-5.544

> <ROCS_Overlap>
2025.170

> <ROCS_Rank>
457                 

$$$$
untitled-dbase-1699_2
  -OEChem-02082415043D

 26 27  0     0  0  0  0  0  0999 V2000
    6.3253   11.1334   24.1101 C   0  0  0  0  0  0  0  0  0  0  0  0
    5.6971   12.3764   24.1916 C   0  0  0  0  0  0  0  0  0  0  0  0
    7.8486   13.4768   24.1134 C   0  0  0  0  0  0  0  0  0  0  0  0
    7.7159   11.0633   24.0222 C   0  0  0  0  0  0  0  0  0  0  0  0
    8.4784   12.2338   24.0457 C   0  0  0  0  0  0  0  0  0  0  0  0
    6.4572   13.5464   24.1880 C   0  0  0  0  0  0  0  0  0  0  0  0
    9.6374    9.8725   23.4968 C   0  0  0  0  0  0  0  0  0  0  0  0
   10.3877   10.9349   24.2763 C   0  0  0  0  0  0  0  0  0  0  0  0
    6.4889   16.0877   21.8468 C   0  0  0  0  0  0  0  0  0  0  0  0
    5.4072   15.4818   22.6363 N   0  0  0  0  0  0  0  0  0  0  0  0
    4.3710   14.9281   24.9290 O   0  0  0  0  0  0  0  0  0  0  0  0
    6.6189   16.0518   24.8362 O   0  0  0  0  0  0  0  0  0  0  0  0
    8.2736    9.8153   23.9241 O   0  0  0  0  0  0  0  0  0  0  0  0
    9.8480   12.2292   23.9955 O   0  0  0  0  0  0  0  0  0  0  0  0
    5.6655   15.0999   24.2820 S   0  0  0  0  0  0  0  0  0  0  0  0
    5.7253   10.2274   24.1057 H   0  0  0  0  0  0  0  0  0  0  0  0
    4.6130   12.4217   24.2538 H   0  0  0  0  0  0  0  0  0  0  0  0
    8.4429   14.3872   24.1181 H   0  0  0  0  0  0  0  0  0  0  0  0
    9.6591   10.0720   22.4182 H   0  0  0  0  0  0  0  0  0  0  0  0
   10.0829    8.8879   23.6706 H   0  0  0  0  0  0  0  0  0  0  0  0
   10.3311   10.7581   25.3574 H   0  0  0  0  0  0  0  0  0  0  0  0
   11.4431   10.9442   23.9863 H   0  0  0  0  0  0  0  0  0  0  0  0
    7.4607   15.8039   22.2768 H   0  0  0  0  0  0  0  0  0  0  0  0
    6.4292   15.7302   20.8082 H   0  0  0  0  0  0  0  0  0  0  0  0
    6.3862   17.1828   21.8640 H   0  0  0  0  0  0  0  0  0  0  0  0
    4.4508   15.6835   22.3198 H   0  0  0  0  0  0  0  0  0  0  0  0
  1  2  2  0  0  0  0
  1  4  1  0  0  0  0
  2  6  1  0  0  0  0
  3  5  1  0  0  0  0
  3  6  2  0  0  0  0
  4  5  2  0  0  0  0
  4 13  1  0  0  0  0
  5 14  1  0  0  0  0
  6 15  1  0  0  0  0
  7  8  1  0  0  0  0
  7 13  1  0  0  0  0
  8 14  1  0  0  0  0
  9 10  1  0  0  0  0
 10 15  1  0  0  0  0
 11 15  2  0  0  0  0
 12 15  2  0  0  0  0
  1 16  1  0  0  0  0
  2 17  1  0  0  0  0
  3 18  1  0  0  0  0
  7 19  1  0  0  0  0
  7 20  1  0  0  0  0
  8 21  1  0  0  0  0
  8 22  1  0  0  0  0
  9 23  1  0  0  0  0
  9 24  1  0  0  0  0
  9 25  1  0  0  0  0
 10 26  1  0  0  0  0
M  END
> <Mol Weight>
229,25

> <Formula>
C9H11NO4S

> <ID>
EN300-05794

> <name>
Sulfonamides

> <LogP>
0,32

> <ROCS_ShapeQuery>
x0446_0A_x1080_0A_x0929_0A_x0812_0A_x0719_0A_x1140_0A_x0528_0A_x0310_0A

> <ROCS_TanimotoCombo>
0.328 

> <ROCS_ShapeTanimoto>
0.178 

> <ROCS_ColorTanimoto>
0.150 

> <ROCS_RefTversky>
0.167 

> <ROCS_RefColorTversky>
0.162 

> <ROCS_RefTverskyCombo>
0.329 

> <ROCS_FitTversky>
1.590 

> <ROCS_FitColorTversky>
0.678 

> <ROCS_FitTverskyCombo>
2.268 

> <ROCS_ColorScore>
-5.776

> <ROCS_Overlap>
1970.665

> <ROCS_Rank>
458                 

$$$$
untitled-dbase-1083_22
  -OEChem-02082415043D

 20 20  0     0  0  0  0  0  0999 V2000
    9.9474   10.2993   23.6744 C   0  0  0  0  0  0  0  0  0  0  0  0
    9.7412   11.3424   22.7716 C   0  0  0  0  0  0  0  0  0  0  0  0
    9.0188   10.0598   24.6873 C   0  0  0  0  0  0  0  0  0  0  0  0
    8.6065   12.1461   22.8817 C   0  0  0  0  0  0  0  0  0  0  0  0
    7.8840   10.8635   24.7975 C   0  0  0  0  0  0  0  0  0  0  0  0
    7.6779   11.9066   23.8947 C   0  0  0  0  0  0  0  0  0  0  0  0
    8.3895   13.2609   21.9149 C   0  0  0  0  0  0  0  0  0  0  0  0
   10.9158   13.5714   21.1582 N   0  0  0  0  0  0  0  0  0  0  0  0
    9.3804   15.6218   21.3938 O   0  0  0  0  0  0  0  0  0  0  0  0
   10.1518   14.4038   23.4691 O   0  0  0  0  0  0  0  0  0  0  0  0
    6.9924   10.6334   25.7699 F   0  0  0  0  0  0  0  0  0  0  0  0
    6.5844   12.6735   24.0085 F   0  0  0  0  0  0  0  0  0  0  0  0
    9.7351   14.3894   22.0771 S   0  0  0  0  0  0  0  0  0  0  0  0
   10.8315    9.6742   23.5897 H   0  0  0  0  0  0  0  0  0  0  0  0
   10.4706   11.5219   21.9860 H   0  0  0  0  0  0  0  0  0  0  0  0
    9.1787    9.2482   25.3909 H   0  0  0  0  0  0  0  0  0  0  0  0
    7.4626   13.8104   22.1148 H   0  0  0  0  0  0  0  0  0  0  0  0
    8.3657   12.9119   20.8762 H   0  0  0  0  0  0  0  0  0  0  0  0
   11.1766   13.9727   20.2490 H   0  0  0  0  0  0  0  0  0  0  0  0
   11.7018   13.1431   21.6625 H   0  0  0  0  0  0  0  0  0  0  0  0
  1  2  2  0  0  0  0
  1  3  1  0  0  0  0
  2  4  1  0  0  0  0
  3  5  2  0  0  0  0
  4  6  2  0  0  0  0
  4  7  1  0  0  0  0
  5  6  1  0  0  0  0
  5 11  1  0  0  0  0
  6 12  1  0  0  0  0
  7 13  1  0  0  0  0
  8 13  1  0  0  0  0
  9 13  2  0  0  0  0
 10 13  2  0  0  0  0
  1 14  1  0  0  0  0
  2 15  1  0  0  0  0
  3 16  1  0  0  0  0
  7 17  1  0  0  0  0
  7 18  1  0  0  0  0
  8 19  1  0  0  0  0
  8 20  1  0  0  0  0
M  END
> <Mol Weight>
207,19

> <Formula>
C7H7F2NO2S

> <ID>
EN300-258449

> <name>
Sulfonamides

> <LogP>
0,63

> <ROCS_ShapeQuery>
x0446_0A_x1080_0A_x0929_0A_x0812_0A_x0719_0A_x1140_0A_x0528_0A_x0310_0A

> <ROCS_TanimotoCombo>
0.328 

> <ROCS_ShapeTanimoto>
0.183 

> <ROCS_ColorTanimoto>
0.146 

> <ROCS_RefTversky>
0.169 

> <ROCS_RefColorTversky>
0.148 

> <ROCS_RefTverskyCombo>
0.317 

> <ROCS_FitTversky>
1.750 

> <ROCS_FitColorTversky>
0.926 

> <ROCS_FitTverskyCombo>
2.676 

> <ROCS_ColorScore>
-5.243

> <ROCS_Overlap>
1995.951

> <ROCS_Rank>
459                 

$$$$
untitled-dbase-2199_298
  -OEChem-02082415043D

 34 34  0     1  0  0  0  0  0999 V2000
   10.4841   12.9144   23.5122 C   0  0  0  0  0  0  0  0  0  0  0  0
    7.8018   10.8308   23.7296 C   0  0  0  0  0  0  0  0  0  0  0  0
    9.2427   10.6889   23.2231 C   0  0  0  0  0  0  0  0  0  0  0  0
    7.9554   12.3610   23.6354 C   0  0  2  0  0  0  0  0  0  0  0  0
   13.0855   14.0879   23.6059 C   0  0  0  0  0  0  0  0  0  0  0  0
   13.8915   11.9330   22.5979 C   0  0  0  0  0  0  0  0  0  0  0  0
   12.2762   13.3795   21.3304 C   0  0  0  0  0  0  0  0  0  0  0  0
    7.3307   13.0360   22.4301 C   0  0  0  0  0  0  0  0  0  0  0  0
   12.7179   12.9033   22.7135 C   0  0  0  0  0  0  0  0  0  0  0  0
    9.3763   12.1140   23.4496 N   0  0  0  0  0  0  0  0  0  0  0  0
    6.3379   15.2760   21.4064 N   0  0  0  0  0  0  0  0  0  0  0  0
   10.4494   14.1252   23.7140 O   0  0  0  0  0  0  0  0  0  0  0  0
    7.2551   15.2538   23.8096 O   0  0  0  0  0  0  0  0  0  0  0  0
    8.8610   15.0776   21.8665 O   0  0  0  0  0  0  0  0  0  0  0  0
   11.6312   12.1956   23.3204 O   0  0  0  0  0  0  0  0  0  0  0  0
    7.5735   14.7808   22.4725 S   0  0  0  0  0  0  0  0  0  0  0  0
    7.0395   10.3858   23.0837 H   0  0  0  0  0  0  0  0  0  0  0  0
    7.6547   10.4643   24.7515 H   0  0  0  0  0  0  0  0  0  0  0  0
    9.8952   10.0740   23.8465 H   0  0  0  0  0  0  0  0  0  0  0  0
    9.3454   10.4177   22.1694 H   0  0  0  0  0  0  0  0  0  0  0  0
    7.7384   12.8789   24.5750 H   0  0  0  0  0  0  0  0  0  0  0  0
   12.2457   14.7867   23.6914 H   0  0  0  0  0  0  0  0  0  0  0  0
   13.3706   13.7621   24.6116 H   0  0  0  0  0  0  0  0  0  0  0  0
   13.9185   14.6567   23.1772 H   0  0  0  0  0  0  0  0  0  0  0  0
   13.6321   11.0814   21.9585 H   0  0  0  0  0  0  0  0  0  0  0  0
   14.1508   11.5156   23.5776 H   0  0  0  0  0  0  0  0  0  0  0  0
   14.7794   12.4205   22.1827 H   0  0  0  0  0  0  0  0  0  0  0  0
   12.0124   12.5300   20.6901 H   0  0  0  0  0  0  0  0  0  0  0  0
   11.4113   14.0480   21.3912 H   0  0  0  0  0  0  0  0  0  0  0  0
   13.0903   13.9087   20.8221 H   0  0  0  0  0  0  0  0  0  0  0  0
    6.2532   12.8589   22.4014 H   0  0  0  0  0  0  0  0  0  0  0  0
    7.7781   12.6682   21.5043 H   0  0  0  0  0  0  0  0  0  0  0  0
    5.5236   15.7561   21.8090 H   0  0  0  0  0  0  0  0  0  0  0  0
    6.6173   15.6359   20.4856 H   0  0  0  0  0  0  0  0  0  0  0  0
  1 10  1  0  0  0  0
  1 12  2  0  0  0  0
  1 15  1  0  0  0  0
  2  3  1  0  0  0  0
  2  4  1  0  0  0  0
  3 10  1  0  0  0  0
  4  8  1  0  0  0  0
  4 10  1  0  0  0  0
  5  9  1  0  0  0  0
  6  9  1  0  0  0  0
  7  9  1  0  0  0  0
  8 16  1  0  0  0  0
  9 15  1  0  0  0  0
 11 16  1  0  0  0  0
 13 16  2  0  0  0  0
 14 16  2  0  0  0  0
  2 17  1  0  0  0  0
  2 18  1  0  0  0  0
  3 19  1  0  0  0  0
  3 20  1  0  0  0  0
  4 21  1  0  0  0  0
  5 22  1  0  0  0  0
  5 23  1  0  0  0  0
  5 24  1  0  0  0  0
  6 25  1  0  0  0  0
  6 26  1  0  0  0  0
  6 27  1  0  0  0  0
  7 28  1  0  0  0  0
  7 29  1  0  0  0  0
  7 30  1  0  0  0  0
  8 31  1  0  0  0  0
  8 32  1  0  0  0  0
 11 33  1  0  0  0  0
 11 34  1  0  0  0  0
M  END
> <Mol Weight>
250,31

> <Formula>
C9H18N2O4S

> <ID>
EN300-28319600

> <name>
Sulfonamides

> <LogP>
-0,52

> <ROCS_ShapeQuery>
x0446_0A_x1080_0A_x0929_0A_x0812_0A_x0719_0A_x1140_0A_x0528_0A_x0310_0A

> <ROCS_TanimotoCombo>
0.328 

> <ROCS_ShapeTanimoto>
0.190 

> <ROCS_ColorTanimoto>
0.138 

> <ROCS_RefTversky>
0.177 

> <ROCS_RefColorTversky>
0.147 

> <ROCS_RefTverskyCombo>
0.324 

> <ROCS_FitTversky>
1.663 

> <ROCS_FitColorTversky>
0.694 

> <ROCS_FitTverskyCombo>
2.356 

> <ROCS_ColorScore>
-5.246

> <ROCS_Overlap>
2083.628

> <ROCS_Rank>
460                 

$$$$
untitled-dbase-843_4
  -OEChem-02082415043D

 25 25  0     0  0  0  0  0  0999 V2000
    7.6014   10.6344   24.7669 C   0  0  0  0  0  0  0  0  0  0  0  0
    7.6538   12.0163   24.5849 C   0  0  0  0  0  0  0  0  0  0  0  0
    9.5712   10.3785   23.3917 C   0  0  0  0  0  0  0  0  0  0  0  0
    8.5602    9.8155   24.1704 C   0  0  0  0  0  0  0  0  0  0  0  0
    8.6649   12.5793   23.8062 C   0  0  0  0  0  0  0  0  0  0  0  0
    9.6236   11.7604   23.2096 C   0  0  0  0  0  0  0  0  0  0  0  0
    8.5029    8.3380   24.3659 C   0  0  0  0  0  0  0  0  0  0  0  0
    7.0213   15.9275   22.8157 C   0  0  0  0  0  0  0  0  0  0  0  0
   10.6565   12.3110   22.4182 N   0  0  0  0  0  0  0  0  0  0  0  0
    8.7003   13.9993   23.6360 N   0  0  0  0  0  0  0  0  0  0  0  0
    9.1701   15.3266   21.4782 O   0  0  0  0  0  0  0  0  0  0  0  0
    7.2540   13.6915   21.4762 O   0  0  0  0  0  0  0  0  0  0  0  0
    8.0846   14.6562   22.1694 S   0  0  0  0  0  0  0  0  0  0  0  0
    6.8103   10.2050   25.3758 H   0  0  0  0  0  0  0  0  0  0  0  0
    6.9020   12.6447   25.0557 H   0  0  0  0  0  0  0  0  0  0  0  0
   10.3180    9.7379   22.9277 H   0  0  0  0  0  0  0  0  0  0  0  0
    7.8942    7.8723   23.5812 H   0  0  0  0  0  0  0  0  0  0  0  0
    9.5060    7.8932   24.3381 H   0  0  0  0  0  0  0  0  0  0  0  0
    8.0688    8.0817   25.3412 H   0  0  0  0  0  0  0  0  0  0  0  0
    6.5504   16.4420   21.9766 H   0  0  0  0  0  0  0  0  0  0  0  0
    6.2668   15.4568   23.4478 H   0  0  0  0  0  0  0  0  0  0  0  0
    7.6292   16.6218   23.3977 H   0  0  0  0  0  0  0  0  0  0  0  0
   10.6663   13.2953   22.2493 H   0  0  0  0  0  0  0  0  0  0  0  0
   11.3012   11.6966   21.9661 H   0  0  0  0  0  0  0  0  0  0  0  0
    9.5672   14.4432   23.9783 H   0  0  0  0  0  0  0  0  0  0  0  0
  1  2  2  0  0  0  0
  1  4  1  0  0  0  0
  2  5  1  0  0  0  0
  3  4  2  0  0  0  0
  3  6  1  0  0  0  0
  4  7  1  0  0  0  0
  5  6  2  0  0  0  0
  5 10  1  0  0  0  0
  6  9  1  0  0  0  0
  8 13  1  0  0  0  0
 10 13  1  0  0  0  0
 11 13  2  0  0  0  0
 12 13  2  0  0  0  0
  1 14  1  0  0  0  0
  2 15  1  0  0  0  0
  3 16  1  0  0  0  0
  7 17  1  0  0  0  0
  7 18  1  0  0  0  0
  7 19  1  0  0  0  0
  8 20  1  0  0  0  0
  8 21  1  0  0  0  0
  8 22  1  0  0  0  0
  9 23  1  0  0  0  0
  9 24  1  0  0  0  0
 10 25  1  0  0  0  0
M  END
> <Mol Weight>
200,26

> <Formula>
C8H12N2O2S

> <ID>
EN300-86467

> <name>
Sulfonamides

> <LogP>
0,03

> <ROCS_ShapeQuery>
x0446_0A_x1080_0A_x0929_0A_x0812_0A_x0719_0A_x1140_0A_x0528_0A_x0310_0A

> <ROCS_TanimotoCombo>
0.328 

> <ROCS_ShapeTanimoto>
0.185 

> <ROCS_ColorTanimoto>
0.143 

> <ROCS_RefTversky>
0.171 

> <ROCS_RefColorTversky>
0.152 

> <ROCS_RefTverskyCombo>
0.323 

> <ROCS_FitTversky>
1.783 

> <ROCS_FitColorTversky>
0.715 

> <ROCS_FitTverskyCombo>
2.498 

> <ROCS_ColorScore>
-5.407

> <ROCS_Overlap>
2018.502

> <ROCS_Rank>
461                 

$$$$
untitled-dbase-2674_12
  -OEChem-02082415043D

 37 38  0     0  0  0  0  0  0999 V2000
    9.3385   12.4102   23.5598 B   0  0  0  0  0  0  0  0  0  0  0  0
   11.4846   15.3442   22.4526 C   0  0  0  0  0  0  0  0  0  0  0  0
   10.5592   16.2527   21.9390 C   0  0  0  0  0  0  0  0  0  0  0  0
   11.0511   14.1209   22.9638 C   0  0  0  0  0  0  0  0  0  0  0  0
    9.2003   15.9380   21.9366 C   0  0  0  0  0  0  0  0  0  0  0  0
    9.6922   13.8061   22.9614 C   0  0  0  0  0  0  0  0  0  0  0  0
    8.7668   14.7146   22.4478 C   0  0  0  0  0  0  0  0  0  0  0  0
    8.2561   10.8103   24.7772 C   0  0  0  0  0  0  0  0  0  0  0  0
    9.4473   10.1699   23.9868 C   0  0  0  0  0  0  0  0  0  0  0  0
    6.9128   10.0864   24.6085 C   0  0  0  0  0  0  0  0  0  0  0  0
    8.5070   10.9970   26.2907 C   0  0  0  0  0  0  0  0  0  0  0  0
    9.0349    9.3456   22.7461 C   0  0  0  0  0  0  0  0  0  0  0  0
   10.3872    9.3029   24.8365 C   0  0  0  0  0  0  0  0  0  0  0  0
    6.4749   15.8450   21.6899 N   0  0  0  0  0  0  0  0  0  0  0  0
    6.8041   13.2956   21.4952 O   0  0  0  0  0  0  0  0  0  0  0  0
    6.5586   14.3364   23.7765 O   0  0  0  0  0  0  0  0  0  0  0  0
    8.1275   12.1489   24.1958 O   0  0  0  0  0  0  0  0  0  0  0  0
   10.2080   11.3239   23.5011 O   0  0  0  0  0  0  0  0  0  0  0  0
    7.0375   14.4022   22.4067 S   0  0  0  0  0  0  0  0  0  0  0  0
   12.5427   15.5900   22.4550 H   0  0  0  0  0  0  0  0  0  0  0  0
   10.8972   17.2051   21.5412 H   0  0  0  0  0  0  0  0  0  0  0  0
   11.8034   13.4382   23.3560 H   0  0  0  0  0  0  0  0  0  0  0  0
    8.4912   16.6566   21.5338 H   0  0  0  0  0  0  0  0  0  0  0  0
    6.1599   10.6033   25.1902 H   0  0  0  0  0  0  0  0  0  0  0  0
    7.0168    9.0672   24.9590 H   0  0  0  0  0  0  0  0  0  0  0  0
    6.6401   10.0920   23.5605 H   0  0  0  0  0  0  0  0  0  0  0  0
    7.6303   11.4448   26.7495 H   0  0  0  0  0  0  0  0  0  0  0  0
    9.3649   11.6467   26.4370 H   0  0  0  0  0  0  0  0  0  0  0  0
    8.7015   10.0305   26.7464 H   0  0  0  0  0  0  0  0  0  0  0  0
    9.9234    8.9444   22.2673 H   0  0  0  0  0  0  0  0  0  0  0  0
    8.5040    9.9857   22.0475 H   0  0  0  0  0  0  0  0  0  0  0  0
    8.3882    8.5290   23.0537 H   0  0  0  0  0  0  0  0  0  0  0  0
   11.1713    8.9095   24.2019 H   0  0  0  0  0  0  0  0  0  0  0  0
    9.8184    8.4901   25.2702 H   0  0  0  0  0  0  0  0  0  0  0  0
   10.8163    9.9147   25.6201 H   0  0  0  0  0  0  0  0  0  0  0  0
    6.1272   15.7974   20.7243 H   0  0  0  0  0  0  0  0  0  0  0  0
    5.9617   16.5077   22.2837 H   0  0  0  0  0  0  0  0  0  0  0  0
  1  6  1  0  0  0  0
  1 17  1  0  0  0  0
  1 18  1  0  0  0  0
  2  3  1  0  0  0  0
  2  4  2  0  0  0  0
  3  5  2  0  0  0  0
  4  6  1  0  0  0  0
  5  7  1  0  0  0  0
  6  7  2  0  0  0  0
  7 19  1  0  0  0  0
  8  9  1  0  0  0  0
  8 10  1  0  0  0  0
  8 11  1  0  0  0  0
  8 17  1  0  0  0  0
  9 12  1  0  0  0  0
  9 13  1  0  0  0  0
  9 18  1  0  0  0  0
 14 19  1  0  0  0  0
 15 19  2  0  0  0  0
 16 19  2  0  0  0  0
  2 20  1  0  0  0  0
  3 21  1  0  0  0  0
  4 22  1  0  0  0  0
  5 23  1  0  0  0  0
 10 24  1  0  0  0  0
 10 25  1  0  0  0  0
 10 26  1  0  0  0  0
 11 27  1  0  0  0  0
 11 28  1  0  0  0  0
 11 29  1  0  0  0  0
 12 30  1  0  0  0  0
 12 31  1  0  0  0  0
 12 32  1  0  0  0  0
 13 33  1  0  0  0  0
 13 34  1  0  0  0  0
 13 35  1  0  0  0  0
 14 36  1  0  0  0  0
 14 37  1  0  0  0  0
M  END
> <Mol Weight>
283,15

> <Formula>
C12H18BNO4S

> <ID>
EN300-207669

> <name>
Sulfonamides

> <LogP>
2,53

> <ROCS_ShapeQuery>
x0446_0A_x1080_0A_x0929_0A_x0812_0A_x0719_0A_x1140_0A_x0528_0A_x0310_0A

> <ROCS_TanimotoCombo>
0.328 

> <ROCS_ShapeTanimoto>
0.232 

> <ROCS_ColorTanimoto>
0.096 

> <ROCS_RefTversky>
0.211 

> <ROCS_RefColorTversky>
0.108 

> <ROCS_RefTverskyCombo>
0.319 

> <ROCS_FitTversky>
1.780 

> <ROCS_FitColorTversky>
0.454 

> <ROCS_FitTverskyCombo>
2.234 

> <ROCS_ColorScore>
-3.864

> <ROCS_Overlap>
2489.738

> <ROCS_Rank>
462                 

$$$$
untitled-dbase-1224_9
  -OEChem-02082415043D

 25 25  0     0  0  0  0  0  0999 V2000
    8.9626   10.4599   22.9457 C   0  0  0  0  0  0  0  0  0  0  0  0
    9.6130   11.5862   22.4417 C   0  0  0  0  0  0  0  0  0  0  0  0
    8.3722   12.9866   23.9702 C   0  0  0  0  0  0  0  0  0  0  0  0
    7.7217   11.8603   24.4741 C   0  0  0  0  0  0  0  0  0  0  0  0
    8.0169   10.5969   23.9619 C   0  0  0  0  0  0  0  0  0  0  0  0
    9.3178   12.8496   22.9540 C   0  0  0  0  0  0  0  0  0  0  0  0
    6.7377   12.0312   25.5340 C   0  0  0  0  0  0  0  0  0  0  0  0
    7.3357    9.3737   24.4832 C   0  0  0  0  0  0  0  0  0  0  0  0
    7.2065   12.6440   26.8206 C   0  0  0  0  0  0  0  0  0  0  0  0
   11.1438   13.5496   21.1428 N   0  0  0  0  0  0  0  0  0  0  0  0
    5.5524   11.7060   25.4539 O   0  0  0  0  0  0  0  0  0  0  0  0
    9.1461   15.0969   21.6528 O   0  0  0  0  0  0  0  0  0  0  0  0
   10.9646   14.8233   23.3749 O   0  0  0  0  0  0  0  0  0  0  0  0
   10.1314   14.2594   22.3221 S   0  0  0  0  0  0  0  0  0  0  0  0
    9.2002    9.4798   22.5403 H   0  0  0  0  0  0  0  0  0  0  0  0
   10.3486   11.4680   21.6505 H   0  0  0  0  0  0  0  0  0  0  0  0
    8.1422   13.9724   24.3685 H   0  0  0  0  0  0  0  0  0  0  0  0
    7.9034    8.9509   25.3200 H   0  0  0  0  0  0  0  0  0  0  0  0
    6.3205    9.6031   24.8293 H   0  0  0  0  0  0  0  0  0  0  0  0
    7.2421    8.6095   23.7020 H   0  0  0  0  0  0  0  0  0  0  0  0
    7.1233   13.7419   26.8497 H   0  0  0  0  0  0  0  0  0  0  0  0
    8.2471   12.3849   27.0702 H   0  0  0  0  0  0  0  0  0  0  0  0
    6.6221   12.3132   27.6976 H   0  0  0  0  0  0  0  0  0  0  0  0
   10.9120   13.7022   20.1537 H   0  0  0  0  0  0  0  0  0  0  0  0
   12.1529   13.5143   21.3320 H   0  0  0  0  0  0  0  0  0  0  0  0
  1  2  2  0  0  0  0
  1  5  1  0  0  0  0
  2  6  1  0  0  0  0
  3  4  1  0  0  0  0
  3  6  2  0  0  0  0
  4  5  2  0  0  0  0
  4  7  1  0  0  0  0
  5  8  1  0  0  0  0
  6 14  1  0  0  0  0
  7  9  1  0  0  0  0
  7 11  2  0  0  0  0
 10 14  1  0  0  0  0
 12 14  2  0  0  0  0
 13 14  2  0  0  0  0
  1 15  1  0  0  0  0
  2 16  1  0  0  0  0
  3 17  1  0  0  0  0
  8 18  1  0  0  0  0
  8 19  1  0  0  0  0
  8 20  1  0  0  0  0
  9 21  1  0  0  0  0
  9 22  1  0  0  0  0
  9 23  1  0  0  0  0
 10 24  1  0  0  0  0
 10 25  1  0  0  0  0
M  END
> <Mol Weight>
213,25

> <Formula>
C9H11NO3S

> <ID>
EN300-77933

> <name>
Sulfonamides

> <LogP>
0,65

> <ROCS_ShapeQuery>
x0446_0A_x1080_0A_x0929_0A_x0812_0A_x0719_0A_x1140_0A_x0528_0A_x0310_0A

> <ROCS_TanimotoCombo>
0.328 

> <ROCS_ShapeTanimoto>
0.186 

> <ROCS_ColorTanimoto>
0.142 

> <ROCS_RefTversky>
0.172 

> <ROCS_RefColorTversky>
0.148 

> <ROCS_RefTverskyCombo>
0.320 

> <ROCS_FitTversky>
1.728 

> <ROCS_FitColorTversky>
0.794 

> <ROCS_FitTverskyCombo>
2.523 

> <ROCS_ColorScore>
-5.252

> <ROCS_Overlap>
2033.669

> <ROCS_Rank>
463                 

$$$$
untitled-dbase-1333_1
  -OEChem-02082415043D

 27 27  0     0  0  0  0  0  0999 V2000
    9.4651   10.5582   22.7358 C   0  0  0  0  0  0  0  0  0  0  0  0
    9.9715   11.7636   22.2498 C   0  0  0  0  0  0  0  0  0  0  0  0
    8.1228   11.7683   24.3391 C   0  0  0  0  0  0  0  0  0  0  0  0
    8.6291   12.9737   23.8532 C   0  0  0  0  0  0  0  0  0  0  0  0
    8.5407   10.5605   23.7804 C   0  0  0  0  0  0  0  0  0  0  0  0
    9.5535   12.9714   22.8086 C   0  0  0  0  0  0  0  0  0  0  0  0
    7.1306   11.7602   25.4584 C   0  0  0  0  0  0  0  0  0  0  0  0
    8.1758   14.2653   24.4576 C   0  0  0  0  0  0  0  0  0  0  0  0
    8.5400    8.1884   23.6105 C   0  0  0  0  0  0  0  0  0  0  0  0
   11.2509   13.8630   20.9569 N   0  0  0  0  0  0  0  0  0  0  0  0
    9.1310   15.2068   21.5446 O   0  0  0  0  0  0  0  0  0  0  0  0
   11.0169   15.0882   23.2110 O   0  0  0  0  0  0  0  0  0  0  0  0
    8.0570    9.3728   24.2409 O   0  0  0  0  0  0  0  0  0  0  0  0
   10.2123   14.4632   22.1725 S   0  0  0  0  0  0  0  0  0  0  0  0
    9.7955    9.6206   22.2962 H   0  0  0  0  0  0  0  0  0  0  0  0
   10.6914   11.7483   21.4358 H   0  0  0  0  0  0  0  0  0  0  0  0
    6.1114   11.8065   25.0599 H   0  0  0  0  0  0  0  0  0  0  0  0
    7.2295   10.8533   26.0662 H   0  0  0  0  0  0  0  0  0  0  0  0
    7.2853   12.6141   26.1283 H   0  0  0  0  0  0  0  0  0  0  0  0
    8.8306   14.5421   25.2907 H   0  0  0  0  0  0  0  0  0  0  0  0
    8.1888   15.0726   23.7166 H   0  0  0  0  0  0  0  0  0  0  0  0
    7.1476   14.1864   24.8292 H   0  0  0  0  0  0  0  0  0  0  0  0
    8.0753    7.3136   24.0720 H   0  0  0  0  0  0  0  0  0  0  0  0
    9.6265    8.1354   23.7161 H   0  0  0  0  0  0  0  0  0  0  0  0
    8.2801    8.2190   22.5497 H   0  0  0  0  0  0  0  0  0  0  0  0
   10.9768   14.0040   19.9770 H   0  0  0  0  0  0  0  0  0  0  0  0
   12.2639   13.9219   21.1172 H   0  0  0  0  0  0  0  0  0  0  0  0
  1  2  2  0  0  0  0
  1  5  1  0  0  0  0
  2  6  1  0  0  0  0
  3  4  1  0  0  0  0
  3  5  2  0  0  0  0
  3  7  1  0  0  0  0
  4  6  2  0  0  0  0
  4  8  1  0  0  0  0
  5 13  1  0  0  0  0
  6 14  1  0  0  0  0
  9 13  1  0  0  0  0
 10 14  1  0  0  0  0
 11 14  2  0  0  0  0
 12 14  2  0  0  0  0
  1 15  1  0  0  0  0
  2 16  1  0  0  0  0
  7 17  1  0  0  0  0
  7 18  1  0  0  0  0
  7 19  1  0  0  0  0
  8 20  1  0  0  0  0
  8 21  1  0  0  0  0
  8 22  1  0  0  0  0
  9 23  1  0  0  0  0
  9 24  1  0  0  0  0
  9 25  1  0  0  0  0
 10 26  1  0  0  0  0
 10 27  1  0  0  0  0
M  END
> <Mol Weight>
215,27

> <Formula>
C9H13NO3S

> <ID>
EN300-79919

> <name>
Sulfonamides

> <LogP>
1,45

> <ROCS_ShapeQuery>
x0446_0A_x1080_0A_x0929_0A_x0812_0A_x0719_0A_x1140_0A_x0528_0A_x0310_0A

> <ROCS_TanimotoCombo>
0.328 

> <ROCS_ShapeTanimoto>
0.196 

> <ROCS_ColorTanimoto>
0.132 

> <ROCS_RefTversky>
0.180 

> <ROCS_RefColorTversky>
0.138 

> <ROCS_RefTverskyCombo>
0.319 

> <ROCS_FitTversky>
1.807 

> <ROCS_FitColorTversky>
0.744 

> <ROCS_FitTverskyCombo>
2.551 

> <ROCS_ColorScore>
-4.917

> <ROCS_Overlap>
2127.576

> <ROCS_Rank>
464                 

$$$$
untitled-dbase-2309_150
  -OEChem-02082415043D

 25 25  0     0  0  0  0  0  0999 V2000
    7.9478   10.6048   24.5721 C   0  0  0  0  0  0  0  0  0  0  0  0
    7.7880   11.9794   24.3978 C   0  0  0  0  0  0  0  0  0  0  0  0
    9.1046    9.9736   24.1148 C   0  0  0  0  0  0  0  0  0  0  0  0
    9.9418   12.0918   23.3089 C   0  0  0  0  0  0  0  0  0  0  0  0
    8.7849   12.7229   23.7663 C   0  0  0  0  0  0  0  0  0  0  0  0
   10.1016   10.7171   23.4832 C   0  0  0  0  0  0  0  0  0  0  0  0
    6.7491   15.7652   22.5461 C   0  0  0  0  0  0  0  0  0  0  0  0
   11.0226   12.8672   22.6285 C   0  0  0  0  0  0  0  0  0  0  0  0
   10.6724   13.2196   21.2771 N   0  0  0  0  0  0  0  0  0  0  0  0
    8.6020   14.1313   23.5982 N   0  0  0  0  0  0  0  0  0  0  0  0
    9.1323   15.5639   21.5228 O   0  0  0  0  0  0  0  0  0  0  0  0
    7.5411   13.6291   21.2586 O   0  0  0  0  0  0  0  0  0  0  0  0
   11.2096   10.1013   23.0475 F   0  0  0  0  0  0  0  0  0  0  0  0
    8.0919   14.7055   22.0580 S   0  0  0  0  0  0  0  0  0  0  0  0
    7.1722   10.0255   25.0648 H   0  0  0  0  0  0  0  0  0  0  0  0
    6.8826   12.4609   24.7583 H   0  0  0  0  0  0  0  0  0  0  0  0
    9.2295    8.9031   24.2502 H   0  0  0  0  0  0  0  0  0  0  0  0
    6.3179   16.2105   21.6481 H   0  0  0  0  0  0  0  0  0  0  0  0
    6.0057   15.1608   23.0680 H   0  0  0  0  0  0  0  0  0  0  0  0
    7.1439   16.5397   23.2053 H   0  0  0  0  0  0  0  0  0  0  0  0
   11.2387   13.7982   23.1690 H   0  0  0  0  0  0  0  0  0  0  0  0
   11.9596   12.2967   22.5880 H   0  0  0  0  0  0  0  0  0  0  0  0
   11.3155   12.7888   20.6453 H   0  0  0  0  0  0  0  0  0  0  0  0
    9.7459   12.9007   21.0818 H   0  0  0  0  0  0  0  0  0  0  0  0
    9.3253   14.7083   24.0565 H   0  0  0  0  0  0  0  0  0  0  0  0
  1  2  2  0  0  0  0
  1  3  1  0  0  0  0
  2  5  1  0  0  0  0
  3  6  2  0  0  0  0
  4  5  2  0  0  0  0
  4  6  1  0  0  0  0
  4  8  1  0  0  0  0
  5 10  1  0  0  0  0
  6 13  1  0  0  0  0
  7 14  1  0  0  0  0
  8  9  1  0  0  0  0
 10 14  1  0  0  0  0
 11 14  2  0  0  0  0
 12 14  2  0  0  0  0
  1 15  1  0  0  0  0
  2 16  1  0  0  0  0
  3 17  1  0  0  0  0
  7 18  1  0  0  0  0
  7 19  1  0  0  0  0
  7 20  1  0  0  0  0
  8 21  1  0  0  0  0
  8 22  1  0  0  0  0
  9 23  1  0  0  0  0
  9 24  1  0  0  0  0
 10 25  1  0  0  0  0
M  END
> <Mol Weight>
254,70

> <Formula>
C8H12ClFN2O2S

> <ID>
EN300-103080

> <name>
Sulfonamides

> <LogP>
-0,89

> <ROCS_ShapeQuery>
x0446_0A_x1080_0A_x0929_0A_x0812_0A_x0719_0A_x1140_0A_x0528_0A_x0310_0A

> <ROCS_TanimotoCombo>
0.328 

> <ROCS_ShapeTanimoto>
0.202 

> <ROCS_ColorTanimoto>
0.126 

> <ROCS_RefTversky>
0.185 

> <ROCS_RefColorTversky>
0.136 

> <ROCS_RefTverskyCombo>
0.321 

> <ROCS_FitTversky>
1.851 

> <ROCS_FitColorTversky>
0.641 

> <ROCS_FitTverskyCombo>
2.491 

> <ROCS_ColorScore>
-4.847

> <ROCS_Overlap>
2176.894

> <ROCS_Rank>
465                 

$$$$
untitled-dbase-793_180
  -OEChem-02082415043D

 22 22  0     0  0  0  0  0  0999 V2000
    9.1623    9.7551   23.8797 C   0  0  0  0  0  0  0  0  0  0  0  0
    8.2135   10.2014   24.7995 C   0  0  0  0  0  0  0  0  0  0  0  0
    9.6046   10.6050   22.8659 C   0  0  0  0  0  0  0  0  0  0  0  0
    8.1492   12.3476   23.6919 C   0  0  0  0  0  0  0  0  0  0  0  0
    7.7069   11.4976   24.7056 C   0  0  0  0  0  0  0  0  0  0  0  0
    9.0981   11.9013   22.7721 C   0  0  0  0  0  0  0  0  0  0  0  0
    6.7176   11.9629   25.6644 C   0  0  0  0  0  0  0  0  0  0  0  0
   11.6226   14.4291   21.3186 C   0  0  0  0  0  0  0  0  0  0  0  0
    9.5517   12.7703   21.7339 N   0  0  0  0  0  0  0  0  0  0  0  0
    5.5017   11.8384   25.4926 O   0  0  0  0  0  0  0  0  0  0  0  0
    9.1838   15.3132   21.5129 O   0  0  0  0  0  0  0  0  0  0  0  0
   10.3206   14.4500   23.5884 O   0  0  0  0  0  0  0  0  0  0  0  0
   10.0599   14.3582   22.1655 S   0  0  0  0  0  0  0  0  0  0  0  0
    9.5573    8.7459   23.9531 H   0  0  0  0  0  0  0  0  0  0  0  0
    7.8757    9.5302   25.5852 H   0  0  0  0  0  0  0  0  0  0  0  0
   10.3440   10.2470   22.1540 H   0  0  0  0  0  0  0  0  0  0  0  0
    7.7548   13.3588   23.6184 H   0  0  0  0  0  0  0  0  0  0  0  0
    7.0925   12.4518   26.5900 H   0  0  0  0  0  0  0  0  0  0  0  0
   12.0723   15.4052   21.5068 H   0  0  0  0  0  0  0  0  0  0  0  0
   12.2605   13.6331   21.7058 H   0  0  0  0  0  0  0  0  0  0  0  0
   11.4425   14.2902   20.2516 H   0  0  0  0  0  0  0  0  0  0  0  0
    8.9962   12.7180   20.8641 H   0  0  0  0  0  0  0  0  0  0  0  0
  1  2  1  0  0  0  0
  1  3  2  0  0  0  0
  2  5  2  0  0  0  0
  3  6  1  0  0  0  0
  4  5  1  0  0  0  0
  4  6  2  0  0  0  0
  5  7  1  0  0  0  0
  6  9  1  0  0  0  0
  7 10  2  0  0  0  0
  8 13  1  0  0  0  0
  9 13  1  0  0  0  0
 11 13  2  0  0  0  0
 12 13  2  0  0  0  0
  1 14  1  0  0  0  0
  2 15  1  0  0  0  0
  3 16  1  0  0  0  0
  4 17  1  0  0  0  0
  7 18  1  0  0  0  0
  8 19  1  0  0  0  0
  8 20  1  0  0  0  0
  8 21  1  0  0  0  0
  9 22  1  0  0  0  0
M  END
> <Mol Weight>
199,22

> <Formula>
C8H9NO3S

> <ID>
EN300-66984

> <name>
Sulfonamides

> <LogP>
0,06

> <ROCS_ShapeQuery>
x0446_0A_x1080_0A_x0929_0A_x0812_0A_x0719_0A_x1140_0A_x0528_0A_x0310_0A

> <ROCS_TanimotoCombo>
0.328 

> <ROCS_ShapeTanimoto>
0.183 

> <ROCS_ColorTanimoto>
0.145 

> <ROCS_RefTversky>
0.170 

> <ROCS_RefColorTversky>
0.150 

> <ROCS_RefTverskyCombo>
0.320 

> <ROCS_FitTversky>
1.767 

> <ROCS_FitColorTversky>
0.807 

> <ROCS_FitTverskyCombo>
2.574 

> <ROCS_ColorScore>
-5.335

> <ROCS_Overlap>
2002.481

> <ROCS_Rank>
466                 

$$$$
untitled-dbase-2797_5
  -OEChem-02082415043D

 25 25  0     0  0  0  0  0  0999 V2000
    9.9164   11.7751   22.3097 C   0  0  0  0  0  0  0  0  0  0  0  0
    8.1346   11.7538   24.4562 C   0  0  0  0  0  0  0  0  0  0  0  0
    9.4118   10.5648   22.7852 C   0  0  0  0  0  0  0  0  0  0  0  0
    8.5209   10.5541   23.8584 C   0  0  0  0  0  0  0  0  0  0  0  0
    9.5302   12.9748   22.9074 C   0  0  0  0  0  0  0  0  0  0  0  0
    8.6393   12.9641   23.9807 C   0  0  0  0  0  0  0  0  0  0  0  0
    9.0037    8.9344   21.1026 C   0  0  0  0  0  0  0  0  0  0  0  0
    7.1164    9.4541   25.4310 C   0  0  0  0  0  0  0  0  0  0  0  0
   11.1848   13.8431   21.0066 N   0  0  0  0  0  0  0  0  0  0  0  0
    9.1167   15.2295   21.6750 O   0  0  0  0  0  0  0  0  0  0  0  0
   11.0540   15.0548   23.2763 O   0  0  0  0  0  0  0  0  0  0  0  0
    9.7963    9.3996   22.1932 O   0  0  0  0  0  0  0  0  0  0  0  0
    8.0214    9.3785   24.3312 O   0  0  0  0  0  0  0  0  0  0  0  0
   10.2021   14.4585   22.2599 S   0  0  0  0  0  0  0  0  0  0  0  0
    8.0735   14.5590   24.8407 Br  0  0  0  0  0  0  0  0  0  0  0  0
   10.6100   11.7752   21.4722 H   0  0  0  0  0  0  0  0  0  0  0  0
    7.4394   11.7313   25.2924 H   0  0  0  0  0  0  0  0  0  0  0  0
    9.4191    7.9978   20.7228 H   0  0  0  0  0  0  0  0  0  0  0  0
    8.9929    9.6881   20.3113 H   0  0  0  0  0  0  0  0  0  0  0  0
    7.9832    8.7621   21.4529 H   0  0  0  0  0  0  0  0  0  0  0  0
    6.7942    8.4475   25.7086 H   0  0  0  0  0  0  0  0  0  0  0  0
    6.2515   10.0609   25.1512 H   0  0  0  0  0  0  0  0  0  0  0  0
    7.6255    9.9181   26.2791 H   0  0  0  0  0  0  0  0  0  0  0  0
   10.8814   13.9983   20.0375 H   0  0  0  0  0  0  0  0  0  0  0  0
   12.2036   13.8779   21.1333 H   0  0  0  0  0  0  0  0  0  0  0  0
  1  3  1  0  0  0  0
  1  5  2  0  0  0  0
  2  4  1  0  0  0  0
  2  6  2  0  0  0  0
  3  4  2  0  0  0  0
  3 12  1  0  0  0  0
  4 13  1  0  0  0  0
  5  6  1  0  0  0  0
  5 14  1  0  0  0  0
  6 15  1  0  0  0  0
  7 12  1  0  0  0  0
  8 13  1  0  0  0  0
  9 14  1  0  0  0  0
 10 14  2  0  0  0  0
 11 14  2  0  0  0  0
  1 16  1  0  0  0  0
  2 17  1  0  0  0  0
  7 18  1  0  0  0  0
  7 19  1  0  0  0  0
  7 20  1  0  0  0  0
  8 21  1  0  0  0  0
  8 22  1  0  0  0  0
  8 23  1  0  0  0  0
  9 24  1  0  0  0  0
  9 25  1  0  0  0  0
M  END
> <Mol Weight>
296,14

> <Formula>
C8H10BrNO4S

> <ID>
EN300-13686

> <name>
Sulfonamides

> <LogP>
1,03

> <ROCS_ShapeQuery>
x0446_0A_x1080_0A_x0929_0A_x0812_0A_x0719_0A_x1140_0A_x0528_0A_x0310_0A

> <ROCS_TanimotoCombo>
0.328 

> <ROCS_ShapeTanimoto>
0.197 

> <ROCS_ColorTanimoto>
0.131 

> <ROCS_RefTversky>
0.181 

> <ROCS_RefColorTversky>
0.144 

> <ROCS_RefTverskyCombo>
0.325 

> <ROCS_FitTversky>
1.765 

> <ROCS_FitColorTversky>
0.603 

> <ROCS_FitTverskyCombo>
2.368 

> <ROCS_ColorScore>
-5.136

> <ROCS_Overlap>
2136.130

> <ROCS_Rank>
467                 

$$$$
untitled-dbase-1439_19
  -OEChem-02082415043D

 23 23  0     0  0  0  0  0  0999 V2000
    7.9515   12.4481   24.1998 C   0  0  0  0  0  0  0  0  0  0  0  0
    9.1298   12.2684   23.4366 C   0  0  0  0  0  0  0  0  0  0  0  0
    7.4326   11.1905   24.4031 C   0  0  0  0  0  0  0  0  0  0  0  0
    9.2471   10.9139   23.2281 C   0  0  0  0  0  0  0  0  0  0  0  0
    6.2693   10.7515   25.0952 C   0  0  0  0  0  0  0  0  0  0  0  0
   10.2324   10.0812   22.5224 C   0  0  0  0  0  0  0  0  0  0  0  0
    4.9735    8.8163   25.7194 C   0  0  0  0  0  0  0  0  0  0  0  0
   11.3803   12.5901   22.0449 N   0  0  0  0  0  0  0  0  0  0  0  0
    5.4475   11.4933   25.6886 O   0  0  0  0  0  0  0  0  0  0  0  0
    9.4980   14.3467   21.9140 O   0  0  0  0  0  0  0  0  0  0  0  0
   10.8433   14.1370   24.0339 O   0  0  0  0  0  0  0  0  0  0  0  0
    8.2165   10.2497   23.8141 O   0  0  0  0  0  0  0  0  0  0  0  0
    6.1106    9.3811   25.0579 O   0  0  0  0  0  0  0  0  0  0  0  0
   10.1845   13.4876   22.8904 S   0  0  0  0  0  0  0  0  0  0  0  0
    7.5327   13.3786   24.5570 H   0  0  0  0  0  0  0  0  0  0  0  0
   11.0501    9.7672   23.1950 H   0  0  0  0  0  0  0  0  0  0  0  0
    9.7813    9.1644   22.1004 H   0  0  0  0  0  0  0  0  0  0  0  0
   10.6925   10.6099   21.6673 H   0  0  0  0  0  0  0  0  0  0  0  0
    4.9856    7.7298   25.6028 H   0  0  0  0  0  0  0  0  0  0  0  0
    4.0579    9.2294   25.2888 H   0  0  0  0  0  0  0  0  0  0  0  0
    5.0194    9.0669   26.7818 H   0  0  0  0  0  0  0  0  0  0  0  0
   11.3941   12.6394   21.0189 H   0  0  0  0  0  0  0  0  0  0  0  0
   12.3113   12.4956   22.4686 H   0  0  0  0  0  0  0  0  0  0  0  0
  1  2  1  0  0  0  0
  1  3  2  0  0  0  0
  2  4  2  0  0  0  0
  2 14  1  0  0  0  0
  3  5  1  0  0  0  0
  3 12  1  0  0  0  0
  4  6  1  0  0  0  0
  4 12  1  0  0  0  0
  5  9  2  0  0  0  0
  5 13  1  0  0  0  0
  7 13  1  0  0  0  0
  8 14  1  0  0  0  0
 10 14  2  0  0  0  0
 11 14  2  0  0  0  0
  1 15  1  0  0  0  0
  6 16  1  0  0  0  0
  6 17  1  0  0  0  0
  6 18  1  0  0  0  0
  7 19  1  0  0  0  0
  7 20  1  0  0  0  0
  7 21  1  0  0  0  0
  8 22  1  0  0  0  0
  8 23  1  0  0  0  0
M  END
> <Mol Weight>
219,21

> <Formula>
C7H9NO5S

> <ID>
EN300-252340

> <name>
Sulfonamides

> <LogP>
-0,16

> <ROCS_ShapeQuery>
x0446_0A_x1080_0A_x0929_0A_x0812_0A_x0719_0A_x1140_0A_x0528_0A_x0310_0A

> <ROCS_TanimotoCombo>
0.328 

> <ROCS_ShapeTanimoto>
0.187 

> <ROCS_ColorTanimoto>
0.141 

> <ROCS_RefTversky>
0.173 

> <ROCS_RefColorTversky>
0.150 

> <ROCS_RefTverskyCombo>
0.323 

> <ROCS_FitTversky>
1.720 

> <ROCS_FitColorTversky>
0.708 

> <ROCS_FitTverskyCombo>
2.428 

> <ROCS_ColorScore>
-5.353

> <ROCS_Overlap>
2040.518

> <ROCS_Rank>
468                 

$$$$
untitled-dbase-1294_1
  -OEChem-02082415043D

 25 25  0     1  0  0  0  0  0999 V2000
    8.0243   12.5096   24.8293 C   0  0  0  0  0  0  0  0  0  0  0  0
    7.8314   11.0167   25.0969 C   0  0  0  0  0  0  0  0  0  0  0  0
    7.7580   12.8810   23.3714 C   0  0  0  0  0  0  0  0  0  0  0  0
    8.9057   10.1014   24.5138 C   0  0  0  0  0  0  0  0  0  0  0  0
    9.8319   11.4417   22.7254 C   0  0  0  0  0  0  0  0  0  0  0  0
    8.9255   12.6336   22.4098 C   0  0  2  0  0  0  0  0  0  0  0  0
    9.0969   10.2239   23.0664 N   0  0  0  0  0  0  0  0  0  0  0  0
   11.1014   13.5333   21.1822 N   0  0  0  0  0  0  0  0  0  0  0  0
    9.1298   15.1215   21.6377 O   0  0  0  0  0  0  0  0  0  0  0  0
   10.5502   14.3207   23.5682 O   0  0  0  0  0  0  0  0  0  0  0  0
    9.9312   14.1019   22.2791 S   0  0  0  0  0  0  0  0  0  0  0  0
    7.2988   13.0497   25.4507 H   0  0  0  0  0  0  0  0  0  0  0  0
    9.0176   12.8420   25.1511 H   0  0  0  0  0  0  0  0  0  0  0  0
    7.8109   10.8617   26.1831 H   0  0  0  0  0  0  0  0  0  0  0  0
    6.8463   10.7028   24.7284 H   0  0  0  0  0  0  0  0  0  0  0  0
    6.8847   12.3181   23.0165 H   0  0  0  0  0  0  0  0  0  0  0  0
    7.4618   13.9367   23.3283 H   0  0  0  0  0  0  0  0  0  0  0  0
    9.8552   10.2426   25.0453 H   0  0  0  0  0  0  0  0  0  0  0  0
    8.6020    9.0675   24.7196 H   0  0  0  0  0  0  0  0  0  0  0  0
   10.4232   11.2329   21.8236 H   0  0  0  0  0  0  0  0  0  0  0  0
   10.5765   11.6905   23.4929 H   0  0  0  0  0  0  0  0  0  0  0  0
    8.5075   12.5080   21.4023 H   0  0  0  0  0  0  0  0  0  0  0  0
    9.6545    9.4244   22.7628 H   0  0  0  0  0  0  0  0  0  0  0  0
   11.7836   12.8435   21.5205 H   0  0  0  0  0  0  0  0  0  0  0  0
   10.8162   13.3891   20.2058 H   0  0  0  0  0  0  0  0  0  0  0  0
  1  2  1  0  0  0  0
  1  3  1  0  0  0  0
  2  4  1  0  0  0  0
  3  6  1  0  0  0  0
  4  7  1  0  0  0  0
  5  6  1  0  0  0  0
  5  7  1  0  0  0  0
  6 11  1  0  0  0  0
  8 11  1  0  0  0  0
  9 11  2  0  0  0  0
 10 11  2  0  0  0  0
  1 12  1  0  0  0  0
  1 13  1  0  0  0  0
  2 14  1  0  0  0  0
  2 15  1  0  0  0  0
  3 16  1  0  0  0  0
  3 17  1  0  0  0  0
  4 18  1  0  0  0  0
  4 19  1  0  0  0  0
  5 20  1  0  0  0  0
  5 21  1  0  0  0  0
  6 22  1  0  0  0  0
  7 23  1  0  0  0  0
  8 24  1  0  0  0  0
  8 25  1  0  0  0  0
M  END
> <Mol Weight>
214,71

> <Formula>
C6H15ClN2O2S

> <ID>
EN300-33051743

> <name>
Sulfonamides

> <LogP>
-0,78

> <ROCS_ShapeQuery>
x0446_0A_x1080_0A_x0929_0A_x0812_0A_x0719_0A_x1140_0A_x0528_0A_x0310_0A

> <ROCS_TanimotoCombo>
0.328 

> <ROCS_ShapeTanimoto>
0.165 

> <ROCS_ColorTanimoto>
0.163 

> <ROCS_RefTversky>
0.154 

> <ROCS_RefColorTversky>
0.170 

> <ROCS_RefTverskyCombo>
0.324 

> <ROCS_FitTversky>
1.760 

> <ROCS_FitColorTversky>
0.802 

> <ROCS_FitTverskyCombo>
2.562 

> <ROCS_ColorScore>
-6.067

> <ROCS_Overlap>
1810.322

> <ROCS_Rank>
469                 

$$$$
untitled-dbase-2010_48
  -OEChem-02082415043D

 21 21  0     0  0  0  0  0  0999 V2000
    9.3011   10.5065   24.6241 C   0  0  0  0  0  0  0  0  0  0  0  0
    8.1187   10.4777   23.8848 C   0  0  0  0  0  0  0  0  0  0  0  0
   10.1047   11.6466   24.6103 C   0  0  0  0  0  0  0  0  0  0  0  0
    7.7398   11.5889   23.1317 C   0  0  0  0  0  0  0  0  0  0  0  0
    9.7259   12.7578   23.8571 C   0  0  0  0  0  0  0  0  0  0  0  0
    8.5434   12.7290   23.1178 C   0  0  0  0  0  0  0  0  0  0  0  0
   11.5483   13.9508   22.8733 C   0  0  0  0  0  0  0  0  0  0  0  0
    7.1148   14.9716   23.3037 N   0  0  0  0  0  0  0  0  0  0  0  0
    9.2331   14.8870   21.8369 O   0  0  0  0  0  0  0  0  0  0  0  0
    7.1720   13.6396   21.0993 O   0  0  0  0  0  0  0  0  0  0  0  0
   10.5259   13.8606   23.8583 O   0  0  0  0  0  0  0  0  0  0  0  0
   11.0272   13.9287   21.6282 F   0  0  0  0  0  0  0  0  0  0  0  0
   12.3692   12.8835   23.0001 F   0  0  0  0  0  0  0  0  0  0  0  0
   12.2887   15.0669   23.0414 F   0  0  0  0  0  0  0  0  0  0  0  0
    8.0478   14.1083   22.1628 S   0  0  0  0  0  0  0  0  0  0  0  0
    9.5960    9.6411   25.2103 H   0  0  0  0  0  0  0  0  0  0  0  0
    7.4931    9.5899   23.8960 H   0  0  0  0  0  0  0  0  0  0  0  0
   11.0245   11.6615   25.1889 H   0  0  0  0  0  0  0  0  0  0  0  0
    6.8164   11.5546   22.5598 H   0  0  0  0  0  0  0  0  0  0  0  0
    6.2011   14.5847   23.5699 H   0  0  0  0  0  0  0  0  0  0  0  0
    7.6081   15.4392   24.0740 H   0  0  0  0  0  0  0  0  0  0  0  0
  1  2  1  0  0  0  0
  1  3  2  0  0  0  0
  2  4  2  0  0  0  0
  3  5  1  0  0  0  0
  4  6  1  0  0  0  0
  5  6  2  0  0  0  0
  5 11  1  0  0  0  0
  6 15  1  0  0  0  0
  7 11  1  0  0  0  0
  7 12  1  0  0  0  0
  7 13  1  0  0  0  0
  7 14  1  0  0  0  0
  8 15  1  0  0  0  0
  9 15  2  0  0  0  0
 10 15  2  0  0  0  0
  1 16  1  0  0  0  0
  2 17  1  0  0  0  0
  3 18  1  0  0  0  0
  4 19  1  0  0  0  0
  8 20  1  0  0  0  0
  8 21  1  0  0  0  0
M  END
> <Mol Weight>
241,18

> <Formula>
C7H6F3NO3S

> <ID>
EN300-245385

> <name>
Sulfonamides

> <LogP>
2,01

> <ROCS_ShapeQuery>
x0446_0A_x1080_0A_x0929_0A_x0812_0A_x0719_0A_x1140_0A_x0528_0A_x0310_0A

> <ROCS_TanimotoCombo>
0.328 

> <ROCS_ShapeTanimoto>
0.193 

> <ROCS_ColorTanimoto>
0.135 

> <ROCS_RefTversky>
0.179 

> <ROCS_RefColorTversky>
0.141 

> <ROCS_RefTverskyCombo>
0.320 

> <ROCS_FitTversky>
1.698 

> <ROCS_FitColorTversky>
0.758 

> <ROCS_FitTverskyCombo>
2.456 

> <ROCS_ColorScore>
-5.015

> <ROCS_Overlap>
2108.632

> <ROCS_Rank>
470                 

$$$$
untitled-dbase-1983_2
  -OEChem-02082415043D

 24 25  0     0  0  0  0  0  0999 V2000
    6.2678   10.9180   23.7905 C   0  0  0  0  0  0  0  0  0  0  0  0
    5.3305   11.9236   23.5374 C   0  0  0  0  0  0  0  0  0  0  0  0
    7.0882   13.6122   23.3711 C   0  0  0  0  0  0  0  0  0  0  0  0
    7.5956   11.2911   23.8271 C   0  0  0  0  0  0  0  0  0  0  0  0
    7.9954   12.6036   23.6229 C   0  0  0  0  0  0  0  0  0  0  0  0
    5.7368   13.2576   23.3296 C   0  0  0  0  0  0  0  0  0  0  0  0
    8.7922   10.4845   24.0633 C   0  0  0  0  0  0  0  0  0  0  0  0
    9.4536   12.6550   23.7258 C   0  0  0  0  0  0  0  0  0  0  0  0
   11.2365   10.9700   24.1749 C   0  0  0  0  0  0  0  0  0  0  0  0
    9.8535   11.3627   23.9914 N   0  0  0  0  0  0  0  0  0  0  0  0
    5.5172   15.8692   22.8437 N   0  0  0  0  0  0  0  0  0  0  0  0
    8.7787    9.2859   24.2736 O   0  0  0  0  0  0  0  0  0  0  0  0
   10.1097   13.6712   23.5919 O   0  0  0  0  0  0  0  0  0  0  0  0
    3.9036   14.1916   21.7357 O   0  0  0  0  0  0  0  0  0  0  0  0
    3.7106   14.6390   24.2076 O   0  0  0  0  0  0  0  0  0  0  0  0
    4.5318   14.4844   23.0156 S   0  0  0  0  0  0  0  0  0  0  0  0
    5.9553    9.8927   23.9494 H   0  0  0  0  0  0  0  0  0  0  0  0
    4.2749   11.6645   23.5015 H   0  0  0  0  0  0  0  0  0  0  0  0
    7.4108   14.6351   23.2124 H   0  0  0  0  0  0  0  0  0  0  0  0
   11.6697   10.6871   23.2042 H   0  0  0  0  0  0  0  0  0  0  0  0
   11.8036   11.8123   24.5979 H   0  0  0  0  0  0  0  0  0  0  0  0
   11.2860   10.1126   24.8622 H   0  0  0  0  0  0  0  0  0  0  0  0
    5.6271   16.2683   21.9035 H   0  0  0  0  0  0  0  0  0  0  0  0
    5.4957   16.5717   23.5930 H   0  0  0  0  0  0  0  0  0  0  0  0
  1  2  2  0  0  0  0
  1  4  1  0  0  0  0
  2  6  1  0  0  0  0
  3  5  1  0  0  0  0
  3  6  2  0  0  0  0
  4  5  2  0  0  0  0
  4  7  1  0  0  0  0
  5  8  1  0  0  0  0
  6 16  1  0  0  0  0
  7 10  1  0  0  0  0
  7 12  2  0  0  0  0
  8 10  1  0  0  0  0
  8 13  2  0  0  0  0
  9 10  1  0  0  0  0
 11 16  1  0  0  0  0
 14 16  2  0  0  0  0
 15 16  2  0  0  0  0
  1 17  1  0  0  0  0
  2 18  1  0  0  0  0
  3 19  1  0  0  0  0
  9 20  1  0  0  0  0
  9 21  1  0  0  0  0
  9 22  1  0  0  0  0
 11 23  1  0  0  0  0
 11 24  1  0  0  0  0
M  END
> <Mol Weight>
240,23

> <Formula>
C9H8N2O4S

> <ID>
EN300-170392

> <name>
Sulfonamides

> <LogP>
-0,48

> <ROCS_ShapeQuery>
x0446_0A_x1080_0A_x0929_0A_x0812_0A_x0719_0A_x1140_0A_x0528_0A_x0310_0A

> <ROCS_TanimotoCombo>
0.328 

> <ROCS_ShapeTanimoto>
0.180 

> <ROCS_ColorTanimoto>
0.148 

> <ROCS_RefTversky>
0.169 

> <ROCS_RefColorTversky>
0.160 

> <ROCS_RefTverskyCombo>
0.329 

> <ROCS_FitTversky>
1.537 

> <ROCS_FitColorTversky>
0.668 

> <ROCS_FitTverskyCombo>
2.205 

> <ROCS_ColorScore>
-5.697

> <ROCS_Overlap>
1996.749

> <ROCS_Rank>
471                 

$$$$
untitled-dbase-1839_597
  -OEChem-02082415043D

 25 25  0     0  0  0  0  0  0999 V2000
    8.0122   12.2276   24.5590 C   0  0  0  0  0  0  0  0  0  0  0  0
    8.6669   13.3092   23.9699 C   0  0  0  0  0  0  0  0  0  0  0  0
    9.7005   11.8159   22.3766 C   0  0  0  0  0  0  0  0  0  0  0  0
    8.2017   10.9400   24.0569 C   0  0  0  0  0  0  0  0  0  0  0  0
    9.0458   10.7342   22.9657 C   0  0  0  0  0  0  0  0  0  0  0  0
    9.5110   13.1034   22.8788 C   0  0  0  0  0  0  0  0  0  0  0  0
    4.7987   10.5929   24.4211 C   0  0  0  0  0  0  0  0  0  0  0  0
    6.7112   10.1646   25.7507 C   0  0  0  0  0  0  0  0  0  0  0  0
   11.2010   13.6735   20.8979 N   0  0  0  0  0  0  0  0  0  0  0  0
    9.3302   15.3272   21.5388 O   0  0  0  0  0  0  0  0  0  0  0  0
   11.2786   15.0034   23.1029 O   0  0  0  0  0  0  0  0  0  0  0  0
    7.5625    9.8861   24.6340 O   0  0  0  0  0  0  0  0  0  0  0  0
    5.6797   11.0992   25.4153 O   0  0  0  0  0  0  0  0  0  0  0  0
    9.2325    9.4998   22.4787 F   0  0  0  0  0  0  0  0  0  0  0  0
   10.3305   14.4575   22.1417 S   0  0  0  0  0  0  0  0  0  0  0  0
    7.3565   12.3939   25.4096 H   0  0  0  0  0  0  0  0  0  0  0  0
    8.5120   14.3081   24.3689 H   0  0  0  0  0  0  0  0  0  0  0  0
   10.3558   11.6437   21.5272 H   0  0  0  0  0  0  0  0  0  0  0  0
    4.0315   11.3387   24.1991 H   0  0  0  0  0  0  0  0  0  0  0  0
    4.3332    9.6716   24.7804 H   0  0  0  0  0  0  0  0  0  0  0  0
    5.3702   10.3804   23.5145 H   0  0  0  0  0  0  0  0  0  0  0  0
    6.2504    9.2455   26.1338 H   0  0  0  0  0  0  0  0  0  0  0  0
    7.3005   10.6357   26.5450 H   0  0  0  0  0  0  0  0  0  0  0  0
   12.0028   13.0894   21.1651 H   0  0  0  0  0  0  0  0  0  0  0  0
   10.6730   13.3113   20.0945 H   0  0  0  0  0  0  0  0  0  0  0  0
  1  2  2  0  0  0  0
  1  4  1  0  0  0  0
  2  6  1  0  0  0  0
  3  5  1  0  0  0  0
  3  6  2  0  0  0  0
  4  5  2  0  0  0  0
  4 12  1  0  0  0  0
  5 14  1  0  0  0  0
  6 15  1  0  0  0  0
  7 13  1  0  0  0  0
  8 12  1  0  0  0  0
  8 13  1  0  0  0  0
  9 15  1  0  0  0  0
 10 15  2  0  0  0  0
 11 15  2  0  0  0  0
  1 16  1  0  0  0  0
  2 17  1  0  0  0  0
  3 18  1  0  0  0  0
  7 19  1  0  0  0  0
  7 20  1  0  0  0  0
  7 21  1  0  0  0  0
  8 22  1  0  0  0  0
  8 23  1  0  0  0  0
  9 24  1  0  0  0  0
  9 25  1  0  0  0  0
M  END
> <Mol Weight>
235,23

> <Formula>
C8H10FNO4S

> <ID>
EN300-219722

> <name>
Sulfonamides

> <LogP>
0,63

> <ROCS_ShapeQuery>
x0446_0A_x1080_0A_x0929_0A_x0812_0A_x0719_0A_x1140_0A_x0528_0A_x0310_0A

> <ROCS_TanimotoCombo>
0.328 

> <ROCS_ShapeTanimoto>
0.196 

> <ROCS_ColorTanimoto>
0.131 

> <ROCS_RefTversky>
0.181 

> <ROCS_RefColorTversky>
0.141 

> <ROCS_RefTverskyCombo>
0.322 

> <ROCS_FitTversky>
1.752 

> <ROCS_FitColorTversky>
0.663 

> <ROCS_FitTverskyCombo>
2.414 

> <ROCS_ColorScore>
-5.015

> <ROCS_Overlap>
2136.563

> <ROCS_Rank>
472                 

$$$$
untitled-dbase-1611_2
  -OEChem-02082415043D

 19 19  0     0  0  0  0  0  0999 V2000
    9.8098   11.3520   22.4644 C   0  0  0  0  0  0  0  0  0  0  0  0
    8.4213   12.5594   24.0131 C   0  0  0  0  0  0  0  0  0  0  0  0
    9.2422   10.1846   22.9491 C   0  0  0  0  0  0  0  0  0  0  0  0
    9.3860   12.5578   23.0118 C   0  0  0  0  0  0  0  0  0  0  0  0
    7.9157   11.3380   24.4284 C   0  0  0  0  0  0  0  0  0  0  0  0
    6.8788   11.3019   25.5010 C   0  0  0  0  0  0  0  0  0  0  0  0
    8.3028   10.1464   23.9205 N   0  0  0  0  0  0  0  0  0  0  0  0
   11.1574   13.5019   21.2581 N   0  0  0  0  0  0  0  0  0  0  0  0
    9.0080   14.8231   21.7875 O   0  0  0  0  0  0  0  0  0  0  0  0
   10.8210   14.6689   23.5301 O   0  0  0  0  0  0  0  0  0  0  0  0
    6.5338   12.5373   25.9696 F   0  0  0  0  0  0  0  0  0  0  0  0
    5.7039   10.7295   25.1053 F   0  0  0  0  0  0  0  0  0  0  0  0
    7.2815   10.5938   26.5958 F   0  0  0  0  0  0  0  0  0  0  0  0
   10.0627   14.0630   22.4442 S   0  0  0  0  0  0  0  0  0  0  0  0
   10.5603   11.3156   21.6823 H   0  0  0  0  0  0  0  0  0  0  0  0
    8.0750   13.4881   24.4553 H   0  0  0  0  0  0  0  0  0  0  0  0
    9.5385    9.2179   22.5554 H   0  0  0  0  0  0  0  0  0  0  0  0
   10.9249   13.6668   20.2711 H   0  0  0  0  0  0  0  0  0  0  0  0
   12.1622   13.5603   21.4633 H   0  0  0  0  0  0  0  0  0  0  0  0
  1  3  2  0  0  0  0
  1  4  1  0  0  0  0
  2  4  2  0  0  0  0
  2  5  1  0  0  0  0
  3  7  1  0  0  0  0
  4 14  1  0  0  0  0
  5  6  1  0  0  0  0
  5  7  2  0  0  0  0
  6 11  1  0  0  0  0
  6 12  1  0  0  0  0
  6 13  1  0  0  0  0
  8 14  1  0  0  0  0
  9 14  2  0  0  0  0
 10 14  2  0  0  0  0
  1 15  1  0  0  0  0
  2 16  1  0  0  0  0
  3 17  1  0  0  0  0
  8 18  1  0  0  0  0
  8 19  1  0  0  0  0
M  END
> <Mol Weight>
226,17

> <Formula>
C6H5F3N2O2S

> <ID>
EN300-7541797

> <name>
Sulfonamides

> <LogP>
0,63

> <ROCS_ShapeQuery>
x0446_0A_x1080_0A_x0929_0A_x0812_0A_x0719_0A_x1140_0A_x0528_0A_x0310_0A

> <ROCS_TanimotoCombo>
0.328 

> <ROCS_ShapeTanimoto>
0.192 

> <ROCS_ColorTanimoto>
0.136 

> <ROCS_RefTversky>
0.177 

> <ROCS_RefColorTversky>
0.142 

> <ROCS_RefTverskyCombo>
0.319 

> <ROCS_FitTversky>
1.751 

> <ROCS_FitColorTversky>
0.762 

> <ROCS_FitTverskyCombo>
2.514 

> <ROCS_ColorScore>
-5.041

> <ROCS_Overlap>
2092.515

> <ROCS_Rank>
473                 

$$$$
untitled-dbase-2305_37
  -OEChem-02082415043D

 35 36  0     1  0  0  0  0  0999 V2000
   11.7333   16.4664   22.4952 C   0  0  0  0  0  0  0  0  0  0  0  0
   10.6470   15.9993   21.7555 C   0  0  0  0  0  0  0  0  0  0  0  0
   12.5892   15.5624   23.1244 C   0  0  0  0  0  0  0  0  0  0  0  0
   10.4164   14.6280   21.6450 C   0  0  0  0  0  0  0  0  0  0  0  0
   12.3586   14.1911   23.0139 C   0  0  0  0  0  0  0  0  0  0  0  0
   11.2722   13.7239   22.2743 C   0  0  0  0  0  0  0  0  0  0  0  0
    9.0801    9.7599   24.2200 C   0  0  0  0  0  0  0  0  0  0  0  0
    7.7526   10.5027   24.3192 C   0  0  0  0  0  0  0  0  0  0  0  0
    9.9386   10.3053   23.0781 C   0  0  0  0  0  0  0  0  0  0  0  0
    8.8848   12.4834   23.2387 C   0  0  0  0  0  0  0  0  0  0  0  0
    7.9902   12.0091   24.3882 C   0  0  1  0  0  0  0  0  0  0  0  0
   11.0245   12.2479   22.1560 C   0  0  0  0  0  0  0  0  0  0  0  0
   10.1591   11.7507   23.2254 N   0  0  2  0  0  0  0  0  0  0  0  0
    5.8333   12.3494   22.8773 N   0  0  0  0  0  0  0  0  0  0  0  0
    5.6224   12.3445   25.4409 O   0  0  0  0  0  0  0  0  0  0  0  0
    6.7363   14.2995   24.2909 O   0  0  0  0  0  0  0  0  0  0  0  0
    6.4469   12.8809   24.3751 S   0  0  0  0  0  0  0  0  0  0  0  0
   11.9135   17.5341   22.5799 H   0  0  0  0  0  0  0  0  0  0  0  0
    9.9811   16.7030   21.2645 H   0  0  0  0  0  0  0  0  0  0  0  0
   13.4357   15.9257   23.6995 H   0  0  0  0  0  0  0  0  0  0  0  0
    9.5673   14.2731   21.0668 H   0  0  0  0  0  0  0  0  0  0  0  0
   13.0306   13.4942   23.5077 H   0  0  0  0  0  0  0  0  0  0  0  0
    9.6246    9.8561   25.1680 H   0  0  0  0  0  0  0  0  0  0  0  0
    8.8945    8.6909   24.0657 H   0  0  0  0  0  0  0  0  0  0  0  0
    7.1323   10.2582   23.4472 H   0  0  0  0  0  0  0  0  0  0  0  0
    7.1989   10.1620   25.2019 H   0  0  0  0  0  0  0  0  0  0  0  0
   10.9010    9.7795   23.0941 H   0  0  0  0  0  0  0  0  0  0  0  0
    9.4593   10.0789   22.1165 H   0  0  0  0  0  0  0  0  0  0  0  0
    8.3598   12.3697   22.2802 H   0  0  0  0  0  0  0  0  0  0  0  0
    9.0788   13.5561   23.3672 H   0  0  0  0  0  0  0  0  0  0  0  0
    8.4604   12.2610   25.3472 H   0  0  0  0  0  0  0  0  0  0  0  0
   10.5471   12.0120   21.1986 H   0  0  0  0  0  0  0  0  0  0  0  0
   11.9641   11.6871   22.1978 H   0  0  0  0  0  0  0  0  0  0  0  0
    5.0413   11.6951   22.8885 H   0  0  0  0  0  0  0  0  0  0  0  0
    5.8001   13.0265   22.1053 H   0  0  0  0  0  0  0  0  0  0  0  0
  1  2  1  0  0  0  0
  1  3  2  0  0  0  0
  2  4  2  0  0  0  0
  3  5  1  0  0  0  0
  4  6  1  0  0  0  0
  5  6  2  0  0  0  0
  6 12  1  0  0  0  0
  7  8  1  0  0  0  0
  7  9  1  0  0  0  0
  8 11  1  0  0  0  0
  9 13  1  0  0  0  0
 10 11  1  0  0  0  0
 10 13  1  0  0  0  0
 11 17  1  0  0  0  0
 12 13  1  0  0  0  0
 14 17  1  0  0  0  0
 15 17  2  0  0  0  0
 16 17  2  0  0  0  0
  1 18  1  0  0  0  0
  2 19  1  0  0  0  0
  3 20  1  0  0  0  0
  4 21  1  0  0  0  0
  5 22  1  0  0  0  0
  7 23  1  0  0  0  0
  7 24  1  0  0  0  0
  8 25  1  0  0  0  0
  8 26  1  0  0  0  0
  9 27  1  0  0  0  0
  9 28  1  0  0  0  0
 10 29  1  0  0  0  0
 10 30  1  0  0  0  0
 11 31  1  0  0  0  0
 12 32  1  0  0  0  0
 12 33  1  0  0  0  0
 14 34  1  0  0  0  0
 14 35  1  0  0  0  0
M  END
> <Mol Weight>
254,35

> <Formula>
C12H18N2O2S

> <ID>
EN300-28284

> <name>
Sulfonamides

> <LogP>
0,98

> <ROCS_ShapeQuery>
x0446_0A_x1080_0A_x0929_0A_x0812_0A_x0719_0A_x1140_0A_x0528_0A_x0310_0A

> <ROCS_TanimotoCombo>
0.328 

> <ROCS_ShapeTanimoto>
0.220 

> <ROCS_ColorTanimoto>
0.108 

> <ROCS_RefTversky>
0.200 

> <ROCS_RefColorTversky>
0.118 

> <ROCS_RefTverskyCombo>
0.318 

> <ROCS_FitTversky>
1.818 

> <ROCS_FitColorTversky>
0.554 

> <ROCS_FitTverskyCombo>
2.372 

> <ROCS_ColorScore>
-4.193

> <ROCS_Overlap>
2364.218

> <ROCS_Rank>
474                 

$$$$
untitled-dbase-2232_16
  -OEChem-02082415043D

 19 19  0     0  0  0  0  0  0999 V2000
    7.9524   12.2265   24.3409 C   0  0  0  0  0  0  0  0  0  0  0  0
    9.9178   11.4796   23.1731 C   0  0  0  0  0  0  0  0  0  0  0  0
    7.6374   10.8939   24.5524 C   0  0  0  0  0  0  0  0  0  0  0  0
    9.1160   12.5164   23.6372 C   0  0  0  0  0  0  0  0  0  0  0  0
    9.5149   10.1804   23.4371 C   0  0  0  0  0  0  0  0  0  0  0  0
    9.5018   13.9336   23.3817 C   0  0  0  0  0  0  0  0  0  0  0  0
    8.3914    9.8597   24.1171 N   0  0  0  0  0  0  0  0  0  0  0  0
   10.5839   13.5809   20.9826 N   0  0  0  0  0  0  0  0  0  0  0  0
    8.0276   13.5230   21.2638 O   0  0  0  0  0  0  0  0  0  0  0  0
    9.2520   15.7216   21.4927 O   0  0  0  0  0  0  0  0  0  0  0  0
    9.1948   14.2819   21.6800 S   0  0  0  0  0  0  0  0  0  0  0  0
   10.5951    8.7480   22.8125 Br  0  0  0  0  0  0  0  0  0  0  0  0
    7.3060   13.0126   24.7159 H   0  0  0  0  0  0  0  0  0  0  0  0
   10.8288   11.6923   22.6223 H   0  0  0  0  0  0  0  0  0  0  0  0
    6.7406   10.6146   25.0956 H   0  0  0  0  0  0  0  0  0  0  0  0
   10.5647   14.1177   23.5767 H   0  0  0  0  0  0  0  0  0  0  0  0
    8.9151   14.6396   23.9809 H   0  0  0  0  0  0  0  0  0  0  0  0
   10.4626   12.7157   20.4418 H   0  0  0  0  0  0  0  0  0  0  0  0
   11.2965   14.2131   20.5979 H   0  0  0  0  0  0  0  0  0  0  0  0
  1  3  2  0  0  0  0
  1  4  1  0  0  0  0
  2  4  2  0  0  0  0
  2  5  1  0  0  0  0
  3  7  1  0  0  0  0
  4  6  1  0  0  0  0
  5  7  2  0  0  0  0
  5 12  1  0  0  0  0
  6 11  1  0  0  0  0
  8 11  1  0  0  0  0
  9 11  2  0  0  0  0
 10 11  2  0  0  0  0
  1 13  1  0  0  0  0
  2 14  1  0  0  0  0
  3 15  1  0  0  0  0
  6 16  1  0  0  0  0
  6 17  1  0  0  0  0
  8 18  1  0  0  0  0
  8 19  1  0  0  0  0
M  END
> <Mol Weight>
251,10

> <Formula>
C6H7BrN2O2S

> <ID>
EN300-37468884

> <name>
Sulfonamides

> <LogP>
0,10

> <ROCS_ShapeQuery>
x0446_0A_x1080_0A_x0929_0A_x0812_0A_x0719_0A_x1140_0A_x0528_0A_x0310_0A

> <ROCS_TanimotoCombo>
0.328 

> <ROCS_ShapeTanimoto>
0.177 

> <ROCS_ColorTanimoto>
0.151 

> <ROCS_RefTversky>
0.164 

> <ROCS_RefColorTversky>
0.159 

> <ROCS_RefTverskyCombo>
0.323 

> <ROCS_FitTversky>
1.787 

> <ROCS_FitColorTversky>
0.749 

> <ROCS_FitTverskyCombo>
2.536 

> <ROCS_ColorScore>
-5.663

> <ROCS_Overlap>
1933.789

> <ROCS_Rank>
475                 

$$$$
untitled-dbase-2054_3
  -OEChem-02082415043D

 22 23  0     0  0  0  0  0  0999 V2000
    7.3534   11.8408   25.3117 C   0  0  0  0  0  0  0  0  0  0  0  0
    9.5278   10.6505   22.5991 C   0  0  0  0  0  0  0  0  0  0  0  0
   10.0477   11.8485   22.1028 C   0  0  0  0  0  0  0  0  0  0  0  0
    6.8552   10.6342   25.7814 C   0  0  0  0  0  0  0  0  0  0  0  0
    8.7782   13.0666   23.7403 C   0  0  0  0  0  0  0  0  0  0  0  0
    8.2554   11.8614   24.2393 C   0  0  0  0  0  0  0  0  0  0  0  0
    8.6319   10.6294   23.6645 C   0  0  0  0  0  0  0  0  0  0  0  0
    9.6727   13.0582   22.6739 C   0  0  0  0  0  0  0  0  0  0  0  0
    7.2816    9.4806   25.1552 C   0  0  0  0  0  0  0  0  0  0  0  0
    8.1500    9.4569   24.1182 N   0  0  0  0  0  0  0  0  0  0  0  0
   11.3254   13.9871   20.8003 N   0  0  0  0  0  0  0  0  0  0  0  0
    9.2269   15.3242   21.4739 O   0  0  0  0  0  0  0  0  0  0  0  0
   11.1548   15.1598   23.0877 O   0  0  0  0  0  0  0  0  0  0  0  0
   10.3190   14.5576   22.0579 S   0  0  0  0  0  0  0  0  0  0  0  0
    6.7246    7.9384   25.6605 Cl  0  0  0  0  0  0  0  0  0  0  0  0
    7.0342   12.7656   25.7869 H   0  0  0  0  0  0  0  0  0  0  0  0
    9.8373    9.7161   22.1343 H   0  0  0  0  0  0  0  0  0  0  0  0
   10.7448   11.8211   21.2695 H   0  0  0  0  0  0  0  0  0  0  0  0
    6.1571   10.6136   26.6110 H   0  0  0  0  0  0  0  0  0  0  0  0
    8.4841   14.0141   24.1879 H   0  0  0  0  0  0  0  0  0  0  0  0
   11.0266   14.1521   19.8313 H   0  0  0  0  0  0  0  0  0  0  0  0
   12.3424   14.0386   20.9356 H   0  0  0  0  0  0  0  0  0  0  0  0
  1  4  2  0  0  0  0
  1  6  1  0  0  0  0
  2  3  2  0  0  0  0
  2  7  1  0  0  0  0
  3  8  1  0  0  0  0
  4  9  1  0  0  0  0
  5  6  1  0  0  0  0
  5  8  2  0  0  0  0
  6  7  2  0  0  0  0
  7 10  1  0  0  0  0
  8 14  1  0  0  0  0
  9 10  2  0  0  0  0
  9 15  1  0  0  0  0
 11 14  1  0  0  0  0
 12 14  2  0  0  0  0
 13 14  2  0  0  0  0
  1 16  1  0  0  0  0
  2 17  1  0  0  0  0
  3 18  1  0  0  0  0
  4 19  1  0  0  0  0
  5 20  1  0  0  0  0
 11 21  1  0  0  0  0
 11 22  1  0  0  0  0
M  END
> <Mol Weight>
242,68

> <Formula>
C9H7ClN2O2S

> <ID>
EN300-272239

> <name>
Sulfonamides

> <LogP>
1,56

> <ROCS_ShapeQuery>
x0446_0A_x1080_0A_x0929_0A_x0812_0A_x0719_0A_x1140_0A_x0528_0A_x0310_0A

> <ROCS_TanimotoCombo>
0.328 

> <ROCS_ShapeTanimoto>
0.193 

> <ROCS_ColorTanimoto>
0.135 

> <ROCS_RefTversky>
0.178 

> <ROCS_RefColorTversky>
0.144 

> <ROCS_RefTverskyCombo>
0.323 

> <ROCS_FitTversky>
1.698 

> <ROCS_FitColorTversky>
0.680 

> <ROCS_FitTverskyCombo>
2.378 

> <ROCS_ColorScore>
-5.146

> <ROCS_Overlap>
2104.205

> <ROCS_Rank>
476                 

$$$$
untitled-dbase-2440_36
  -OEChem-02082415043D

 23 23  0     0  0  0  0  0  0999 V2000
    8.0317   10.4962   24.6226 C   0  0  0  0  0  0  0  0  0  0  0  0
    7.9437   11.8630   24.8867 C   0  0  0  0  0  0  0  0  0  0  0  0
    8.8610   10.0354   23.6000 C   0  0  0  0  0  0  0  0  0  0  0  0
    9.5143   12.3083   23.1056 C   0  0  0  0  0  0  0  0  0  0  0  0
    8.6849   12.7690   24.1282 C   0  0  0  0  0  0  0  0  0  0  0  0
    9.6023   10.9414   22.8415 C   0  0  0  0  0  0  0  0  0  0  0  0
    8.5903   14.2303   24.4110 C   0  0  0  0  0  0  0  0  0  0  0  0
    7.4892   14.9390   23.6176 C   0  0  0  0  0  0  0  0  0  0  0  0
    6.3316   15.6509   21.3363 N   0  0  0  0  0  0  0  0  0  0  0  0
    8.8940   15.4770   21.4812 O   0  0  0  0  0  0  0  0  0  0  0  0
    7.5022   13.3685   21.5293 O   0  0  0  0  0  0  0  0  0  0  0  0
    7.6880   14.7678   21.8718 S   0  0  0  0  0  0  0  0  0  0  0  0
   10.7257   10.3164   21.4562 Br  0  0  0  0  0  0  0  0  0  0  0  0
    7.4544    9.7908   25.2131 H   0  0  0  0  0  0  0  0  0  0  0  0
    7.2949   12.2128   25.6853 H   0  0  0  0  0  0  0  0  0  0  0  0
    8.9181    8.9672   23.4073 H   0  0  0  0  0  0  0  0  0  0  0  0
   10.0893   13.0207   22.5183 H   0  0  0  0  0  0  0  0  0  0  0  0
    9.5515   14.7143   24.1656 H   0  0  0  0  0  0  0  0  0  0  0  0
    8.4374   14.4185   25.4879 H   0  0  0  0  0  0  0  0  0  0  0  0
    6.5105   14.5077   23.8513 H   0  0  0  0  0  0  0  0  0  0  0  0
    7.4534   16.0111   23.8336 H   0  0  0  0  0  0  0  0  0  0  0  0
    6.4992   16.5614   20.8906 H   0  0  0  0  0  0  0  0  0  0  0  0
    5.5512   15.1253   20.9236 H   0  0  0  0  0  0  0  0  0  0  0  0
  1  2  2  0  0  0  0
  1  3  1  0  0  0  0
  2  5  1  0  0  0  0
  3  6  2  0  0  0  0
  4  5  2  0  0  0  0
  4  6  1  0  0  0  0
  5  7  1  0  0  0  0
  6 13  1  0  0  0  0
  7  8  1  0  0  0  0
  8 12  1  0  0  0  0
  9 12  1  0  0  0  0
 10 12  2  0  0  0  0
 11 12  2  0  0  0  0
  1 14  1  0  0  0  0
  2 15  1  0  0  0  0
  3 16  1  0  0  0  0
  4 17  1  0  0  0  0
  7 18  1  0  0  0  0
  7 19  1  0  0  0  0
  8 20  1  0  0  0  0
  8 21  1  0  0  0  0
  9 22  1  0  0  0  0
  9 23  1  0  0  0  0
M  END
> <Mol Weight>
264,14

> <Formula>
C8H10BrNO2S

> <ID>
EN300-283804

> <name>
Sulfonamides

> <LogP>
1,40

> <ROCS_ShapeQuery>
x0446_0A_x1080_0A_x0929_0A_x0812_0A_x0719_0A_x1140_0A_x0528_0A_x0310_0A

> <ROCS_TanimotoCombo>
0.328 

> <ROCS_ShapeTanimoto>
0.181 

> <ROCS_ColorTanimoto>
0.147 

> <ROCS_RefTversky>
0.167 

> <ROCS_RefColorTversky>
0.152 

> <ROCS_RefTverskyCombo>
0.319 

> <ROCS_FitTversky>
1.775 

> <ROCS_FitColorTversky>
0.819 

> <ROCS_FitTverskyCombo>
2.594 

> <ROCS_ColorScore>
-5.413

> <ROCS_Overlap>
1972.988

> <ROCS_Rank>
477                 

$$$$
untitled-dbase-1764_114
  -OEChem-02082415043D

 24 24  0     0  0  0  0  0  0999 V2000
   10.1748   11.1703   22.9820 C   0  0  0  0  0  0  0  0  0  0  0  0
    9.2463   10.3546   23.6286 C   0  0  0  0  0  0  0  0  0  0  0  0
    8.7794   13.0961   23.4079 C   0  0  0  0  0  0  0  0  0  0  0  0
    9.9414   12.5411   22.8718 C   0  0  0  0  0  0  0  0  0  0  0  0
    8.0843   10.9095   24.1647 C   0  0  0  0  0  0  0  0  0  0  0  0
    7.8508   12.2803   24.0544 C   0  0  0  0  0  0  0  0  0  0  0  0
    9.9177   13.6709   19.7249 C   0  0  0  0  0  0  0  0  0  0  0  0
    7.1592   10.0613   24.8146 N   0  0  0  0  0  0  0  0  0  0  0  0
   10.8922   13.3757   22.2100 N   0  0  0  0  0  0  0  0  0  0  0  0
    6.6735   12.8720   24.5922 N   0  3  0  0  0  0  0  0  0  0  0  0
    6.5072   14.1080   24.4691 O   0  5  0  0  0  0  0  0  0  0  0  0
    5.8391   12.1388   25.1728 O   0  0  0  0  0  0  0  0  0  0  0  0
    9.0420   15.1021   21.7129 O   0  0  0  0  0  0  0  0  0  0  0  0
   11.3591   15.5527   20.8336 O   0  0  0  0  0  0  0  0  0  0  0  0
   10.3026   14.6221   21.1781 S   0  0  0  0  0  0  0  0  0  0  0  0
   11.0771   10.7280   22.5678 H   0  0  0  0  0  0  0  0  0  0  0  0
    9.4392    9.2876   23.7083 H   0  0  0  0  0  0  0  0  0  0  0  0
    8.6016   14.1661   23.3196 H   0  0  0  0  0  0  0  0  0  0  0  0
    9.5233   14.3474   18.9650 H   0  0  0  0  0  0  0  0  0  0  0  0
   10.8335   13.1934   19.3734 H   0  0  0  0  0  0  0  0  0  0  0  0
    9.1728   12.9200   19.9922 H   0  0  0  0  0  0  0  0  0  0  0  0
    6.3499   10.4622   25.2404 H   0  0  0  0  0  0  0  0  0  0  0  0
    7.3791    9.0927   24.9173 H   0  0  0  0  0  0  0  0  0  0  0  0
   11.7188   12.8723   21.8475 H   0  0  0  0  0  0  0  0  0  0  0  0
  1  2  2  0  0  0  0
  1  4  1  0  0  0  0
  2  5  1  0  0  0  0
  3  4  2  0  0  0  0
  3  6  1  0  0  0  0
  4  9  1  0  0  0  0
  5  6  2  0  0  0  0
  5  8  1  0  0  0  0
  6 10  1  0  0  0  0
  7 15  1  0  0  0  0
  9 15  1  0  0  0  0
 10 11  1  0  0  0  0
 10 12  2  0  0  0  0
 13 15  2  0  0  0  0
 14 15  2  0  0  0  0
  1 16  1  0  0  0  0
  2 17  1  0  0  0  0
  3 18  1  0  0  0  0
  7 19  1  0  0  0  0
  7 20  1  0  0  0  0
  7 21  1  0  0  0  0
  8 22  1  0  0  0  0
  8 23  1  0  0  0  0
  9 24  1  0  0  0  0
M  CHG  2  10   1  11  -1
M  END
> <Mol Weight>
231,23

> <Formula>
C7H9N3O4S

> <ID>
EN300-6472531

> <name>
Sulfonamides

> <LogP>
0,11

> <ROCS_ShapeQuery>
x0446_0A_x1080_0A_x0929_0A_x0812_0A_x0719_0A_x1140_0A_x0528_0A_x0310_0A

> <ROCS_TanimotoCombo>
0.328 

> <ROCS_ShapeTanimoto>
0.211 

> <ROCS_ColorTanimoto>
0.117 

> <ROCS_RefTversky>
0.192 

> <ROCS_RefColorTversky>
0.133 

> <ROCS_RefTverskyCombo>
0.325 

> <ROCS_FitTversky>
1.846 

> <ROCS_FitColorTversky>
0.500 

> <ROCS_FitTverskyCombo>
2.346 

> <ROCS_ColorScore>
-4.735

> <ROCS_Overlap>
2266.471

> <ROCS_Rank>
478                 

$$$$
untitled-dbase-1547_8
  -OEChem-02082415043D

 21 21  0     0  0  0  0  0  0999 V2000
    8.1274   11.7636   24.3287 C   0  0  0  0  0  0  0  0  0  0  0  0
    9.9711   11.7348   22.2353 C   0  0  0  0  0  0  0  0  0  0  0  0
    8.5309   10.5502   23.7715 C   0  0  0  0  0  0  0  0  0  0  0  0
    8.6456   12.9626   23.8392 C   0  0  0  0  0  0  0  0  0  0  0  0
    9.4528   10.5359   22.7248 C   0  0  0  0  0  0  0  0  0  0  0  0
    9.5675   12.9482   22.7926 C   0  0  0  0  0  0  0  0  0  0  0  0
    7.0854    9.4692   25.3200 C   0  0  0  0  0  0  0  0  0  0  0  0
   11.2611   13.8675   20.9510 N   0  0  0  0  0  0  0  0  0  0  0  0
    9.1387   15.1989   21.5581 O   0  0  0  0  0  0  0  0  0  0  0  0
   11.0265   15.0629   23.2210 O   0  0  0  0  0  0  0  0  0  0  0  0
    8.0236    9.3808   24.2486 O   0  0  0  0  0  0  0  0  0  0  0  0
    8.2498   14.1223   24.3822 F   0  0  0  0  0  0  0  0  0  0  0  0
    9.8439    9.3732   22.1850 F   0  0  0  0  0  0  0  0  0  0  0  0
   10.2207   14.4461   22.1767 S   0  0  0  0  0  0  0  0  0  0  0  0
    7.4085   11.7819   25.1433 H   0  0  0  0  0  0  0  0  0  0  0  0
   10.6874   11.7118   21.4186 H   0  0  0  0  0  0  0  0  0  0  0  0
    6.7603    8.4655   25.6043 H   0  0  0  0  0  0  0  0  0  0  0  0
    6.2262   10.0665   25.0046 H   0  0  0  0  0  0  0  0  0  0  0  0
    7.5666    9.9498   26.1751 H   0  0  0  0  0  0  0  0  0  0  0  0
   10.9856   14.0207   19.9732 H   0  0  0  0  0  0  0  0  0  0  0  0
   12.2741   13.9267   21.1111 H   0  0  0  0  0  0  0  0  0  0  0  0
  1  3  1  0  0  0  0
  1  4  2  0  0  0  0
  2  5  1  0  0  0  0
  2  6  2  0  0  0  0
  3  5  2  0  0  0  0
  3 11  1  0  0  0  0
  4  6  1  0  0  0  0
  4 12  1  0  0  0  0
  5 13  1  0  0  0  0
  6 14  1  0  0  0  0
  7 11  1  0  0  0  0
  8 14  1  0  0  0  0
  9 14  2  0  0  0  0
 10 14  2  0  0  0  0
  1 15  1  0  0  0  0
  2 16  1  0  0  0  0
  7 17  1  0  0  0  0
  7 18  1  0  0  0  0
  7 19  1  0  0  0  0
  8 20  1  0  0  0  0
  8 21  1  0  0  0  0
M  END
> <Mol Weight>
223,19

> <Formula>
C7H7F2NO3S

> <ID>
EN300-644665

> <name>
Sulfonamides

> <LogP>
0,71

> <ROCS_ShapeQuery>
x0446_0A_x1080_0A_x0929_0A_x0812_0A_x0719_0A_x1140_0A_x0528_0A_x0310_0A

> <ROCS_TanimotoCombo>
0.328 

> <ROCS_ShapeTanimoto>
0.196 

> <ROCS_ColorTanimoto>
0.132 

> <ROCS_RefTversky>
0.180 

> <ROCS_RefColorTversky>
0.138 

> <ROCS_RefTverskyCombo>
0.318 

> <ROCS_FitTversky>
1.791 

> <ROCS_FitColorTversky>
0.742 

> <ROCS_FitTverskyCombo>
2.533 

> <ROCS_ColorScore>
-4.909

> <ROCS_Overlap>
2127.097

> <ROCS_Rank>
479                 

$$$$
untitled-dbase-2303_0
  -OEChem-02082415043D

 26 27  0     0  0  0  0  0  0999 V2000
    8.8805    9.9402   24.7523 C   0  0  0  0  0  0  0  0  0  0  0  0
    8.8931    9.9271   23.3576 C   0  0  0  0  0  0  0  0  0  0  0  0
    9.0642   11.1397   25.4402 C   0  0  0  0  0  0  0  0  0  0  0  0
    9.0894   11.1135   22.6507 C   0  0  0  0  0  0  0  0  0  0  0  0
    9.2605   12.3260   24.7334 C   0  0  0  0  0  0  0  0  0  0  0  0
    9.2731   12.3130   23.3386 C   0  0  0  0  0  0  0  0  0  0  0  0
    9.4752   13.5397   22.6076 C   0  0  0  0  0  0  0  0  0  0  0  0
    8.5743   14.4728   22.1387 C   0  0  0  0  0  0  0  0  0  0  0  0
   10.4242   15.4182   21.4358 C   0  0  0  0  0  0  0  0  0  0  0  0
   11.3482   16.3818   20.7990 C   0  0  0  0  0  0  0  0  0  0  0  0
    9.1167   15.5509   21.4669 N   0  0  0  0  0  0  0  0  0  0  0  0
    6.3452   15.8084   21.5452 N   0  0  0  0  0  0  0  0  0  0  0  0
    6.3555   13.2309   21.5839 O   0  0  0  0  0  0  0  0  0  0  0  0
    6.5318   14.4972   23.7549 O   0  0  0  0  0  0  0  0  0  0  0  0
   11.0688   14.0205   22.1947 S   0  0  0  0  0  0  0  0  0  0  0  0
    6.8709   14.3798   22.3338 S   0  0  0  0  0  0  0  0  0  0  0  0
    8.7271    9.0165   25.3026 H   0  0  0  0  0  0  0  0  0  0  0  0
    8.7503    8.9930   22.8222 H   0  0  0  0  0  0  0  0  0  0  0  0
    9.0533   11.1501   26.5263 H   0  0  0  0  0  0  0  0  0  0  0  0
    9.0939   11.0872   21.5637 H   0  0  0  0  0  0  0  0  0  0  0  0
    9.4033   13.2527   25.2843 H   0  0  0  0  0  0  0  0  0  0  0  0
   11.6678   17.1542   21.5159 H   0  0  0  0  0  0  0  0  0  0  0  0
   12.2530   15.8872   20.4097 H   0  0  0  0  0  0  0  0  0  0  0  0
   10.8823   16.8908   19.9393 H   0  0  0  0  0  0  0  0  0  0  0  0
    6.5218   16.7105   22.0040 H   0  0  0  0  0  0  0  0  0  0  0  0
    6.3991   15.8465   20.5201 H   0  0  0  0  0  0  0  0  0  0  0  0
  1  2  1  0  0  0  0
  1  3  2  0  0  0  0
  2  4  2  0  0  0  0
  3  5  1  0  0  0  0
  4  6  1  0  0  0  0
  5  6  2  0  0  0  0
  6  7  1  0  0  0  0
  7  8  2  0  0  0  0
  7 15  1  0  0  0  0
  8 11  1  0  0  0  0
  8 16  1  0  0  0  0
  9 10  1  0  0  0  0
  9 11  2  0  0  0  0
  9 15  1  0  0  0  0
 12 16  1  0  0  0  0
 13 16  2  0  0  0  0
 14 16  2  0  0  0  0
  1 17  1  0  0  0  0
  2 18  1  0  0  0  0
  3 19  1  0  0  0  0
  4 20  1  0  0  0  0
  5 21  1  0  0  0  0
 10 22  1  0  0  0  0
 10 23  1  0  0  0  0
 10 24  1  0  0  0  0
 12 25  1  0  0  0  0
 12 26  1  0  0  0  0
M  END
> <Mol Weight>
254,32

> <Formula>
C10H10N2O2S2

> <ID>
EN300-107306

> <name>
Sulfonamides

> <LogP>
1,60

> <ROCS_ShapeQuery>
x0446_0A_x1080_0A_x0929_0A_x0812_0A_x0719_0A_x1140_0A_x0528_0A_x0310_0A

> <ROCS_TanimotoCombo>
0.328 

> <ROCS_ShapeTanimoto>
0.191 

> <ROCS_ColorTanimoto>
0.137 

> <ROCS_RefTversky>
0.177 

> <ROCS_RefColorTversky>
0.146 

> <ROCS_RefTverskyCombo>
0.323 

> <ROCS_FitTversky>
1.654 

> <ROCS_FitColorTversky>
0.687 

> <ROCS_FitTverskyCombo>
2.342 

> <ROCS_ColorScore>
-5.198

> <ROCS_Overlap>
2092.852

> <ROCS_Rank>
480                 

$$$$
untitled-dbase-1066_11
  -OEChem-02082415043D

 19 19  0     0  0  0  0  0  0999 V2000
    8.7918   10.9522   22.1085 C   0  0  0  0  0  0  0  0  0  0  0  0
    8.8842    9.8592   22.9549 C   0  0  0  0  0  0  0  0  0  0  0  0
    8.3243   11.1210   24.7913 C   0  0  0  0  0  0  0  0  0  0  0  0
    8.4457   12.1786   22.6646 C   0  0  0  0  0  0  0  0  0  0  0  0
    8.2059   12.2732   24.0310 C   0  0  0  0  0  0  0  0  0  0  0  0
    8.3418   13.3672   21.7656 C   0  0  0  0  0  0  0  0  0  0  0  0
    8.6586    9.9122   24.2868 N   0  0  0  0  0  0  0  0  0  0  0  0
   10.9139   13.5569   21.1335 N   0  0  0  0  0  0  0  0  0  0  0  0
    9.5039   15.6855   21.4460 O   0  0  0  0  0  0  0  0  0  0  0  0
   10.1029   14.2863   23.4631 O   0  0  0  0  0  0  0  0  0  0  0  0
    9.7478   14.3900   22.0577 S   0  0  0  0  0  0  0  0  0  0  0  0
    7.7738   13.7559   24.7873 Cl  0  0  0  0  0  0  0  0  0  0  0  0
    8.9854   10.8443   21.0466 H   0  0  0  0  0  0  0  0  0  0  0  0
    9.1511    8.8802   22.5707 H   0  0  0  0  0  0  0  0  0  0  0  0
    8.1502   11.1274   25.8632 H   0  0  0  0  0  0  0  0  0  0  0  0
    7.4438   13.9606   21.9667 H   0  0  0  0  0  0  0  0  0  0  0  0
    8.3417   13.0863   20.7071 H   0  0  0  0  0  0  0  0  0  0  0  0
   11.2414   12.6483   21.4839 H   0  0  0  0  0  0  0  0  0  0  0  0
   10.8335   13.6014   20.1102 H   0  0  0  0  0  0  0  0  0  0  0  0
  1  2  2  0  0  0  0
  1  4  1  0  0  0  0
  2  7  1  0  0  0  0
  3  5  1  0  0  0  0
  3  7  2  0  0  0  0
  4  5  2  0  0  0  0
  4  6  1  0  0  0  0
  5 12  1  0  0  0  0
  6 11  1  0  0  0  0
  8 11  1  0  0  0  0
  9 11  2  0  0  0  0
 10 11  2  0  0  0  0
  1 13  1  0  0  0  0
  2 14  1  0  0  0  0
  3 15  1  0  0  0  0
  6 16  1  0  0  0  0
  6 17  1  0  0  0  0
  8 18  1  0  0  0  0
  8 19  1  0  0  0  0
M  END
> <Mol Weight>
206,64

> <Formula>
C6H7ClN2O2S

> <ID>
EN300-278049

> <name>
Sulfonamides

> <LogP>
-0,27

> <ROCS_ShapeQuery>
x0446_0A_x1080_0A_x0929_0A_x0812_0A_x0719_0A_x1140_0A_x0528_0A_x0310_0A

> <ROCS_TanimotoCombo>
0.328 

> <ROCS_ShapeTanimoto>
0.166 

> <ROCS_ColorTanimoto>
0.161 

> <ROCS_RefTversky>
0.156 

> <ROCS_RefColorTversky>
0.165 

> <ROCS_RefTverskyCombo>
0.320 

> <ROCS_FitTversky>
1.689 

> <ROCS_FitColorTversky>
0.887 

> <ROCS_FitTverskyCombo>
2.575 

> <ROCS_ColorScore>
-5.864

> <ROCS_Overlap>
1834.520

> <ROCS_Rank>
481                 

$$$$
untitled-dbase-1631_0
  -OEChem-02082415043D

 29 30  0     1  0  0  0  0  0999 V2000
    9.3307   10.4314   21.5530 C   0  0  0  0  0  0  0  0  0  0  0  0
    8.2811   10.1069   22.4046 C   0  0  0  0  0  0  0  0  0  0  0  0
    9.8060   11.7351   21.5184 C   0  0  0  0  0  0  0  0  0  0  0  0
    7.7035   11.0847   23.2332 C   0  0  0  0  0  0  0  0  0  0  0  0
    8.1577   12.4259   23.1999 C   0  0  0  0  0  0  0  0  0  0  0  0
    9.2276   12.7158   22.3304 C   0  0  0  0  0  0  0  0  0  0  0  0
    6.5560   10.6769   24.1252 C   0  0  0  0  0  0  0  0  0  0  0  0
    6.3697   11.6646   25.2679 C   0  0  0  0  0  0  0  0  0  0  0  0
    6.3325   13.0832   24.7195 C   0  0  0  0  0  0  0  0  0  0  0  0
    7.9733   14.7950   23.9296 C   0  0  0  0  0  0  0  0  0  0  0  0
    7.5750   13.3974   24.0157 N   0  0  3  0  0  0  0  0  0  0  0  0
   11.2851   13.8400   21.0623 N   0  0  0  0  0  0  0  0  0  0  0  0
    9.1616   15.2070   21.5798 O   0  0  0  0  0  0  0  0  0  0  0  0
   10.6922   14.5448   23.4683 O   0  0  0  0  0  0  0  0  0  0  0  0
   10.0727   14.2551   22.1881 S   0  0  0  0  0  0  0  0  0  0  0  0
    9.7765    9.6694   20.9209 H   0  0  0  0  0  0  0  0  0  0  0  0
    7.9082    9.0856   22.4215 H   0  0  0  0  0  0  0  0  0  0  0  0
   10.6403   11.9678   20.8607 H   0  0  0  0  0  0  0  0  0  0  0  0
    5.6259   10.6217   23.5475 H   0  0  0  0  0  0  0  0  0  0  0  0
    6.7641    9.6769   24.5250 H   0  0  0  0  0  0  0  0  0  0  0  0
    5.4398   11.4516   25.8110 H   0  0  0  0  0  0  0  0  0  0  0  0
    7.1909   11.5584   25.9857 H   0  0  0  0  0  0  0  0  0  0  0  0
    5.4583   13.1730   24.0641 H   0  0  0  0  0  0  0  0  0  0  0  0
    6.1894   13.8032   25.5354 H   0  0  0  0  0  0  0  0  0  0  0  0
    7.3949   15.3870   24.6542 H   0  0  0  0  0  0  0  0  0  0  0  0
    9.0460   14.8851   24.1558 H   0  0  0  0  0  0  0  0  0  0  0  0
    7.7801   15.1692   22.9134 H   0  0  0  0  0  0  0  0  0  0  0  0
   11.2075   14.2218   20.1118 H   0  0  0  0  0  0  0  0  0  0  0  0
   12.2515   13.7681   21.4032 H   0  0  0  0  0  0  0  0  0  0  0  0
  1  2  2  0  0  0  0
  1  3  1  0  0  0  0
  2  4  1  0  0  0  0
  3  6  2  0  0  0  0
  4  5  2  0  0  0  0
  4  7  1  0  0  0  0
  5  6  1  0  0  0  0
  5 11  1  0  0  0  0
  6 15  1  0  0  0  0
  7  8  1  0  0  0  0
  8  9  1  0  0  0  0
  9 11  1  0  0  0  0
 10 11  1  0  0  0  0
 12 15  1  0  0  0  0
 13 15  2  0  0  0  0
 14 15  2  0  0  0  0
  1 16  1  0  0  0  0
  2 17  1  0  0  0  0
  3 18  1  0  0  0  0
  7 19  1  0  0  0  0
  7 20  1  0  0  0  0
  8 21  1  0  0  0  0
  8 22  1  0  0  0  0
  9 23  1  0  0  0  0
  9 24  1  0  0  0  0
 10 25  1  0  0  0  0
 10 26  1  0  0  0  0
 10 27  1  0  0  0  0
 12 28  1  0  0  0  0
 12 29  1  0  0  0  0
M  END
> <Mol Weight>
226,29

> <Formula>
C10H14N2O2S

> <ID>
EN300-137121

> <name>
Sulfonamides

> <LogP>
1,17

> <ROCS_ShapeQuery>
x0446_0A_x1080_0A_x0929_0A_x0812_0A_x0719_0A_x1140_0A_x0528_0A_x0310_0A

> <ROCS_TanimotoCombo>
0.328 

> <ROCS_ShapeTanimoto>
0.176 

> <ROCS_ColorTanimoto>
0.152 

> <ROCS_RefTversky>
0.165 

> <ROCS_RefColorTversky>
0.157 

> <ROCS_RefTverskyCombo>
0.321 

> <ROCS_FitTversky>
1.573 

> <ROCS_FitColorTversky>
0.842 

> <ROCS_FitTverskyCombo>
2.414 

> <ROCS_ColorScore>
-5.569

> <ROCS_Overlap>
1946.071

> <ROCS_Rank>
482                 

$$$$
untitled-dbase-1817_133
  -OEChem-02082415043D

 30 30  0     0  0  0  0  0  0999 V2000
    9.3437   12.1006   23.8037 C   0  0  0  0  0  0  0  0  0  0  0  0
    9.1243   10.8477   23.2005 C   0  0  0  0  0  0  0  0  0  0  0  0
    8.6274   12.0482   24.9744 C   0  0  0  0  0  0  0  0  0  0  0  0
    9.6562   10.3549   21.9175 C   0  0  0  0  0  0  0  0  0  0  0  0
    8.4457   13.0394   26.0520 C   0  0  0  0  0  0  0  0  0  0  0  0
    5.0622   12.3812   26.5556 C   0  0  0  0  0  0  0  0  0  0  0  0
    7.1890   10.2804   26.0336 C   0  0  0  0  0  0  0  0  0  0  0  0
    5.7166   10.3152   25.6467 C   0  0  0  0  0  0  0  0  0  0  0  0
    8.3309   10.0570   23.9280 N   0  0  0  0  0  0  0  0  0  0  0  0
    8.0454   10.8150   25.0004 N   0  0  0  0  0  0  0  0  0  0  0  0
   10.8785   12.7745   21.7312 N   0  0  0  0  0  0  0  0  0  0  0  0
    9.4210   14.5439   22.9105 O   0  0  0  0  0  0  0  0  0  0  0  0
   11.4399   13.6181   24.0998 O   0  0  0  0  0  0  0  0  0  0  0  0
    5.3270   11.6530   25.3644 O   0  0  0  0  0  0  0  0  0  0  0  0
   10.2827   13.3921   23.2195 S   0  0  0  0  0  0  0  0  0  0  0  0
   10.6235    9.8429   22.0561 H   0  0  0  0  0  0  0  0  0  0  0  0
    8.9691    9.6421   21.4284 H   0  0  0  0  0  0  0  0  0  0  0  0
    9.8126   11.1716   21.1907 H   0  0  0  0  0  0  0  0  0  0  0  0
    7.5737   13.6850   25.8560 H   0  0  0  0  0  0  0  0  0  0  0  0
    8.2932   12.5603   27.0345 H   0  0  0  0  0  0  0  0  0  0  0  0
    9.3274   13.6935   26.1664 H   0  0  0  0  0  0  0  0  0  0  0  0
    4.7665   13.4020   26.3014 H   0  0  0  0  0  0  0  0  0  0  0  0
    5.9579   12.3952   27.1818 H   0  0  0  0  0  0  0  0  0  0  0  0
    4.2488   11.8928   27.0974 H   0  0  0  0  0  0  0  0  0  0  0  0
    7.5198    9.2558   26.2396 H   0  0  0  0  0  0  0  0  0  0  0  0
    7.3626   10.8776   26.9362 H   0  0  0  0  0  0  0  0  0  0  0  0
    5.5576    9.7215   24.7410 H   0  0  0  0  0  0  0  0  0  0  0  0
    5.0764    9.9230   26.4436 H   0  0  0  0  0  0  0  0  0  0  0  0
   10.4930   13.1503   20.8562 H   0  0  0  0  0  0  0  0  0  0  0  0
   11.8711   12.5169   21.6707 H   0  0  0  0  0  0  0  0  0  0  0  0
  1  2  1  0  0  0  0
  1  3  2  0  0  0  0
  1 15  1  0  0  0  0
  2  4  1  0  0  0  0
  2  9  2  0  0  0  0
  3  5  1  0  0  0  0
  3 10  1  0  0  0  0
  6 14  1  0  0  0  0
  7  8  1  0  0  0  0
  7 10  1  0  0  0  0
  8 14  1  0  0  0  0
  9 10  1  0  0  0  0
 11 15  1  0  0  0  0
 12 15  2  0  0  0  0
 13 15  2  0  0  0  0
  4 16  1  0  0  0  0
  4 17  1  0  0  0  0
  4 18  1  0  0  0  0
  5 19  1  0  0  0  0
  5 20  1  0  0  0  0
  5 21  1  0  0  0  0
  6 22  1  0  0  0  0
  6 23  1  0  0  0  0
  6 24  1  0  0  0  0
  7 25  1  0  0  0  0
  7 26  1  0  0  0  0
  8 27  1  0  0  0  0
  8 28  1  0  0  0  0
 11 29  1  0  0  0  0
 11 30  1  0  0  0  0
M  END
> <Mol Weight>
233,29

> <Formula>
C8H15N3O3S

> <ID>
EN300-6449512

> <name>
Sulfonamides

> <LogP>
-0,71

> <ROCS_ShapeQuery>
x0446_0A_x1080_0A_x0929_0A_x0812_0A_x0719_0A_x1140_0A_x0528_0A_x0310_0A

> <ROCS_TanimotoCombo>
0.328 

> <ROCS_ShapeTanimoto>
0.184 

> <ROCS_ColorTanimoto>
0.143 

> <ROCS_RefTversky>
0.172 

> <ROCS_RefColorTversky>
0.152 

> <ROCS_RefTverskyCombo>
0.324 

> <ROCS_FitTversky>
1.666 

> <ROCS_FitColorTversky>
0.715 

> <ROCS_FitTverskyCombo>
2.381 

> <ROCS_ColorScore>
-5.408

> <ROCS_Overlap>
2025.519

> <ROCS_Rank>
483                 

$$$$
untitled-dbase-2091_1
  -OEChem-02082415043D

 21 22  0     0  0  0  0  0  0999 V2000
    6.3170   11.1496   24.0768 C   0  0  0  0  0  0  0  0  0  0  0  0
    5.6735   12.3828   24.1647 C   0  0  0  0  0  0  0  0  0  0  0  0
    7.8169   13.4681   24.1328 C   0  0  0  0  0  0  0  0  0  0  0  0
   10.3907   10.9791   23.9034 C   0  0  0  0  0  0  0  0  0  0  0  0
    7.7057   11.0597   24.0161 C   0  0  0  0  0  0  0  0  0  0  0  0
    8.4698   12.2408   24.0447 C   0  0  0  0  0  0  0  0  0  0  0  0
    6.4267   13.5470   24.1930 C   0  0  0  0  0  0  0  0  0  0  0  0
    9.6469    9.8294   23.8758 C   0  0  0  0  0  0  0  0  0  0  0  0
    9.8122   12.1906   23.9878 N   0  0  0  0  0  0  0  0  0  0  0  0
    8.3032    9.8582   23.9316 N   0  0  0  0  0  0  0  0  0  0  0  0
    5.4255   15.4756   22.6493 N   0  0  0  0  0  0  0  0  0  0  0  0
    4.3317   14.9122   24.9147 O   0  0  0  0  0  0  0  0  0  0  0  0
    6.5768   16.0550   24.8799 O   0  0  0  0  0  0  0  0  0  0  0  0
    5.6399   15.1007   24.3027 S   0  0  0  0  0  0  0  0  0  0  0  0
   10.3574    8.2788   23.7683 Cl  0  0  0  0  0  0  0  0  0  0  0  0
    5.7141   10.2437   24.0547 H   0  0  0  0  0  0  0  0  0  0  0  0
    4.5888   12.4190   24.2095 H   0  0  0  0  0  0  0  0  0  0  0  0
    8.4058   14.3837   24.1549 H   0  0  0  0  0  0  0  0  0  0  0  0
   11.4731   10.9787   23.8581 H   0  0  0  0  0  0  0  0  0  0  0  0
    4.4729   15.4394   22.2664 H   0  0  0  0  0  0  0  0  0  0  0  0
    6.0080   16.2183   22.2439 H   0  0  0  0  0  0  0  0  0  0  0  0
  1  2  2  0  0  0  0
  1  5  1  0  0  0  0
  2  7  1  0  0  0  0
  3  6  1  0  0  0  0
  3  7  2  0  0  0  0
  4  8  1  0  0  0  0
  4  9  2  0  0  0  0
  5  6  2  0  0  0  0
  5 10  1  0  0  0  0
  6  9  1  0  0  0  0
  7 14  1  0  0  0  0
  8 10  2  0  0  0  0
  8 15  1  0  0  0  0
 11 14  1  0  0  0  0
 12 14  2  0  0  0  0
 13 14  2  0  0  0  0
  1 16  1  0  0  0  0
  2 17  1  0  0  0  0
  3 18  1  0  0  0  0
  4 19  1  0  0  0  0
 11 20  1  0  0  0  0
 11 21  1  0  0  0  0
M  END
> <Mol Weight>
243,67

> <Formula>
C8H6ClN3O2S

> <ID>
EN300-214628

> <name>
Sulfonamides

> <LogP>
0,73

> <ROCS_ShapeQuery>
x0446_0A_x1080_0A_x0929_0A_x0812_0A_x0719_0A_x1140_0A_x0528_0A_x0310_0A

> <ROCS_TanimotoCombo>
0.328 

> <ROCS_ShapeTanimoto>
0.177 

> <ROCS_ColorTanimoto>
0.150 

> <ROCS_RefTversky>
0.167 

> <ROCS_RefColorTversky>
0.162 

> <ROCS_RefTverskyCombo>
0.328 

> <ROCS_FitTversky>
1.578 

> <ROCS_FitColorTversky>
0.677 

> <ROCS_FitTverskyCombo>
2.255 

> <ROCS_ColorScore>
-5.768

> <ROCS_Overlap>
1965.190

> <ROCS_Rank>
484                 

$$$$
untitled-dbase-988_22
  -OEChem-02082415043D

 23 23  0     0  0  0  0  0  0999 V2000
    9.0161   10.0586   24.6879 C   0  0  0  0  0  0  0  0  0  0  0  0
    7.8821   10.8632   24.7988 C   0  0  0  0  0  0  0  0  0  0  0  0
    9.7395   11.3419   22.7730 C   0  0  0  0  0  0  0  0  0  0  0  0
    9.9448   10.2979   23.6751 C   0  0  0  0  0  0  0  0  0  0  0  0
    8.6055   12.1465   22.8839 C   0  0  0  0  0  0  0  0  0  0  0  0
    7.6768   11.9072   23.8968 C   0  0  0  0  0  0  0  0  0  0  0  0
   11.1573    9.4377   23.5569 C   0  0  0  0  0  0  0  0  0  0  0  0
    8.3879   13.2614   21.9173 C   0  0  0  0  0  0  0  0  0  0  0  0
   10.9134   13.5708   21.1575 N   0  0  0  0  0  0  0  0  0  0  0  0
    9.3792   15.6218   21.3949 O   0  0  0  0  0  0  0  0  0  0  0  0
   10.1527   14.4036   23.4694 O   0  0  0  0  0  0  0  0  0  0  0  0
    6.5834   12.6741   24.0104 F   0  0  0  0  0  0  0  0  0  0  0  0
    9.7343   14.3893   22.0779 S   0  0  0  0  0  0  0  0  0  0  0  0
    9.1682    9.2481   25.3959 H   0  0  0  0  0  0  0  0  0  0  0  0
    7.1596   10.6786   25.5883 H   0  0  0  0  0  0  0  0  0  0  0  0
   10.4634   11.5277   21.9830 H   0  0  0  0  0  0  0  0  0  0  0  0
   10.9545    8.5791   22.9051 H   0  0  0  0  0  0  0  0  0  0  0  0
   12.0045    9.9980   23.1406 H   0  0  0  0  0  0  0  0  0  0  0  0
   11.4765    9.0620   24.5379 H   0  0  0  0  0  0  0  0  0  0  0  0
    7.4615   13.8113   22.1183 H   0  0  0  0  0  0  0  0  0  0  0  0
    8.3627   12.9124   20.8787 H   0  0  0  0  0  0  0  0  0  0  0  0
   11.1733   13.9719   20.2480 H   0  0  0  0  0  0  0  0  0  0  0  0
   11.6998   13.1421   21.6609 H   0  0  0  0  0  0  0  0  0  0  0  0
  1  2  2  0  0  0  0
  1  4  1  0  0  0  0
  2  6  1  0  0  0  0
  3  4  2  0  0  0  0
  3  5  1  0  0  0  0
  4  7  1  0  0  0  0
  5  6  2  0  0  0  0
  5  8  1  0  0  0  0
  6 12  1  0  0  0  0
  8 13  1  0  0  0  0
  9 13  1  0  0  0  0
 10 13  2  0  0  0  0
 11 13  2  0  0  0  0
  1 14  1  0  0  0  0
  2 15  1  0  0  0  0
  3 16  1  0  0  0  0
  7 17  1  0  0  0  0
  7 18  1  0  0  0  0
  7 19  1  0  0  0  0
  8 20  1  0  0  0  0
  8 21  1  0  0  0  0
  9 22  1  0  0  0  0
  9 23  1  0  0  0  0
M  END
> <Mol Weight>
203,23

> <Formula>
C8H10FNO2S

> <ID>
EN300-283805

> <name>
Sulfonamides

> <LogP>
1,00

> <ROCS_ShapeQuery>
x0446_0A_x1080_0A_x0929_0A_x0812_0A_x0719_0A_x1140_0A_x0528_0A_x0310_0A

> <ROCS_TanimotoCombo>
0.327 

> <ROCS_ShapeTanimoto>
0.182 

> <ROCS_ColorTanimoto>
0.146 

> <ROCS_RefTversky>
0.169 

> <ROCS_RefColorTversky>
0.148 

> <ROCS_RefTverskyCombo>
0.316 

> <ROCS_FitTversky>
1.752 

> <ROCS_FitColorTversky>
0.926 

> <ROCS_FitTverskyCombo>
2.678 

> <ROCS_ColorScore>
-5.242

> <ROCS_Overlap>
1986.947

> <ROCS_Rank>
485                 

$$$$
untitled-dbase-1330_615
  -OEChem-02082415043D

 27 27  0     1  0  0  0  0  0999 V2000
    5.7998   12.9930   24.8368 C   0  0  0  0  0  0  0  0  0  0  0  0
    6.0856   13.1443   23.4800 C   0  0  0  0  0  0  0  0  0  0  0  0
    6.7334   12.3961   25.6839 C   0  0  0  0  0  0  0  0  0  0  0  0
    7.3051   12.6987   22.9702 C   0  0  0  0  0  0  0  0  0  0  0  0
    7.9530   11.9504   25.1742 C   0  0  0  0  0  0  0  0  0  0  0  0
    8.2388   12.1017   23.8173 C   0  0  0  0  0  0  0  0  0  0  0  0
   11.9392   14.3686   21.9457 C   0  0  0  0  0  0  0  0  0  0  0  0
    9.5010   10.1638   22.7894 C   0  0  0  0  0  0  0  0  0  0  0  0
    9.5622   11.6178   23.2649 C   0  0  1  0  0  0  0  0  0  0  0  0
   10.0304   12.5004   22.1812 N   0  0  0  0  0  0  0  0  0  0  0  0
   10.2352   14.3944   23.9321 O   0  0  0  0  0  0  0  0  0  0  0  0
    9.4130   14.9253   21.6086 O   0  0  0  0  0  0  0  0  0  0  0  0
    8.6922    9.4103   23.6870 O   0  0  0  0  0  0  0  0  0  0  0  0
   10.2629   14.1611   22.5014 S   0  0  0  0  0  0  0  0  0  0  0  0
    4.8507   13.3412   25.2338 H   0  0  0  0  0  0  0  0  0  0  0  0
    5.3592   13.6101   22.8204 H   0  0  0  0  0  0  0  0  0  0  0  0
    6.5117   12.2790   26.7405 H   0  0  0  0  0  0  0  0  0  0  0  0
    7.5192   12.8206   21.9117 H   0  0  0  0  0  0  0  0  0  0  0  0
    8.6743   11.4864   25.8416 H   0  0  0  0  0  0  0  0  0  0  0  0
   12.2253   15.4108   22.0959 H   0  0  0  0  0  0  0  0  0  0  0  0
   12.5804   13.7079   22.5311 H   0  0  0  0  0  0  0  0  0  0  0  0
   11.9858   14.1080   20.8873 H   0  0  0  0  0  0  0  0  0  0  0  0
    9.0445   10.0959   21.7957 H   0  0  0  0  0  0  0  0  0  0  0  0
   10.4940    9.7027   22.7517 H   0  0  0  0  0  0  0  0  0  0  0  0
   10.3326   11.6951   24.0425 H   0  0  0  0  0  0  0  0  0  0  0  0
    9.6630   12.2528   21.2533 H   0  0  0  0  0  0  0  0  0  0  0  0
    7.8116    9.8171   23.6752 H   0  0  0  0  0  0  0  0  0  0  0  0
  1  2  1  0  0  0  0
  1  3  2  0  0  0  0
  2  4  2  0  0  0  0
  3  5  1  0  0  0  0
  4  6  1  0  0  0  0
  5  6  2  0  0  0  0
  6  9  1  0  0  0  0
  7 14  1  0  0  0  0
  8  9  1  0  0  0  0
  8 13  1  0  0  0  0
  9 10  1  0  0  0  0
 10 14  1  0  0  0  0
 11 14  2  0  0  0  0
 12 14  2  0  0  0  0
  1 15  1  0  0  0  0
  2 16  1  0  0  0  0
  3 17  1  0  0  0  0
  4 18  1  0  0  0  0
  5 19  1  0  0  0  0
  7 20  1  0  0  0  0
  7 21  1  0  0  0  0
  7 22  1  0  0  0  0
  8 23  1  0  0  0  0
  8 24  1  0  0  0  0
  9 25  1  0  0  0  0
 10 26  1  0  0  0  0
 13 27  1  0  0  0  0
M  END
> <Mol Weight>
215,27

> <Formula>
C9H13NO3S

> <ID>
EN300-2008446

> <name>
Sulfonamides

> <LogP>
-0,22

> <ROCS_ShapeQuery>
x0446_0A_x1080_0A_x0929_0A_x0812_0A_x0719_0A_x1140_0A_x0528_0A_x0310_0A

> <ROCS_TanimotoCombo>
0.327 

> <ROCS_ShapeTanimoto>
0.193 

> <ROCS_ColorTanimoto>
0.134 

> <ROCS_RefTversky>
0.178 

> <ROCS_RefColorTversky>
0.144 

> <ROCS_RefTverskyCombo>
0.321 

> <ROCS_FitTversky>
1.800 

> <ROCS_FitColorTversky>
0.677 

> <ROCS_FitTverskyCombo>
2.477 

> <ROCS_ColorScore>
-5.119

> <ROCS_Overlap>
2096.369

> <ROCS_Rank>
486                 

$$$$
untitled-dbase-2385_12
  -OEChem-02082415043D

 25 25  0     0  0  0  0  0  0999 V2000
    6.0053   12.5704   24.4404 C   0  0  0  0  0  0  0  0  0  0  0  0
    6.9275   11.5875   24.7994 C   0  0  0  0  0  0  0  0  0  0  0  0
    6.2838   13.4346   23.3814 C   0  0  0  0  0  0  0  0  0  0  0  0
    8.4068   12.3328   23.0407 C   0  0  0  0  0  0  0  0  0  0  0  0
    8.1282   11.4687   24.0996 C   0  0  0  0  0  0  0  0  0  0  0  0
    7.4845   13.3158   22.6815 C   0  0  0  0  0  0  0  0  0  0  0  0
    9.6657   12.2098   22.3092 C   0  0  0  0  0  0  0  0  0  0  0  0
   11.9273   12.9487   22.2384 C   0  0  0  0  0  0  0  0  0  0  0  0
    6.3652   15.3607   21.3892 N   0  0  0  0  0  0  0  0  0  0  0  0
    9.0491   10.4556   24.4890 N   0  3  0  0  0  0  0  0  0  0  0  0
    8.7524    9.7046   25.4473 O   0  5  0  0  0  0  0  0  0  0  0  0
    9.8222   11.4981   21.3130 O   0  0  0  0  0  0  0  0  0  0  0  0
   10.1285   10.3461   23.8617 O   0  0  0  0  0  0  0  0  0  0  0  0
    8.9193   15.2651   21.7252 O   0  0  0  0  0  0  0  0  0  0  0  0
    7.8257   13.6583   20.1221 O   0  0  0  0  0  0  0  0  0  0  0  0
   10.6424   12.9831   22.8689 O   0  0  0  0  0  0  0  0  0  0  0  0
    7.7917   14.4226   21.3591 S   0  0  0  0  0  0  0  0  0  0  0  0
    5.0703   12.6632   24.9853 H   0  0  0  0  0  0  0  0  0  0  0  0
    6.6965   10.9209   25.6270 H   0  0  0  0  0  0  0  0  0  0  0  0
    5.5567   14.1961   23.1115 H   0  0  0  0  0  0  0  0  0  0  0  0
   12.6159   13.6046   22.7768 H   0  0  0  0  0  0  0  0  0  0  0  0
   11.8333   13.2753   21.1997 H   0  0  0  0  0  0  0  0  0  0  0  0
   12.3082   11.9250   22.2634 H   0  0  0  0  0  0  0  0  0  0  0  0
    6.4340   16.3301   21.7223 H   0  0  0  0  0  0  0  0  0  0  0  0
    5.6875   15.2303   20.6283 H   0  0  0  0  0  0  0  0  0  0  0  0
  1  2  1  0  0  0  0
  1  3  2  0  0  0  0
  2  5  2  0  0  0  0
  3  6  1  0  0  0  0
  4  5  1  0  0  0  0
  4  6  2  0  0  0  0
  4  7  1  0  0  0  0
  5 10  1  0  0  0  0
  6 17  1  0  0  0  0
  7 12  2  0  0  0  0
  7 16  1  0  0  0  0
  8 16  1  0  0  0  0
  9 17  1  0  0  0  0
 10 11  1  0  0  0  0
 10 13  2  0  0  0  0
 14 17  2  0  0  0  0
 15 17  2  0  0  0  0
  1 18  1  0  0  0  0
  2 19  1  0  0  0  0
  3 20  1  0  0  0  0
  8 21  1  0  0  0  0
  8 22  1  0  0  0  0
  8 23  1  0  0  0  0
  9 24  1  0  0  0  0
  9 25  1  0  0  0  0
M  CHG  2  10   1  11  -1
M  END
> <Mol Weight>
260,22

> <Formula>
C8H8N2O6S

> <ID>
EN300-7436878

> <name>
Sulfonamides

> <LogP>
0,52

> <ROCS_ShapeQuery>
x0446_0A_x1080_0A_x0929_0A_x0812_0A_x0719_0A_x1140_0A_x0528_0A_x0310_0A

> <ROCS_TanimotoCombo>
0.327 

> <ROCS_ShapeTanimoto>
0.208 

> <ROCS_ColorTanimoto>
0.119 

> <ROCS_RefTversky>
0.192 

> <ROCS_RefColorTversky>
0.132 

> <ROCS_RefTverskyCombo>
0.324 

> <ROCS_FitTversky>
1.708 

> <ROCS_FitColorTversky>
0.551 

> <ROCS_FitTverskyCombo>
2.259 

> <ROCS_ColorScore>
-4.703

> <ROCS_Overlap>
2263.542

> <ROCS_Rank>
487                 

$$$$
untitled-dbase-330_181
  -OEChem-02082415043D

 20 20  0     0  0  0  0  0  0999 V2000
    7.8741   11.0296   24.6987 C   0  0  0  0  0  0  0  0  0  0  0  0
    9.3072   11.7848   23.2118 C   0  0  0  0  0  0  0  0  0  0  0  0
    8.4905   12.2062   24.2326 C   0  0  0  0  0  0  0  0  0  0  0  0
    6.7631   15.7582   22.5479 C   0  0  0  0  0  0  0  0  0  0  0  0
    8.3006   13.6076   24.7368 C   0  0  0  0  0  0  0  0  0  0  0  0
    8.2654    9.9423   24.0289 N   0  0  0  0  0  0  0  0  0  0  0  0
    9.1365   10.4340   23.1315 N   0  0  0  0  0  0  0  0  0  0  0  0
    8.8380   14.6090   23.7983 N   0  0  0  0  0  0  0  0  0  0  0  0
    7.6860   13.4234   21.8080 O   0  0  0  0  0  0  0  0  0  0  0  0
    9.0870   15.4786   21.3961 O   0  0  0  0  0  0  0  0  0  0  0  0
    8.1729   14.7221   22.2301 S   0  0  0  0  0  0  0  0  0  0  0  0
    7.1558   10.9162   25.4986 H   0  0  0  0  0  0  0  0  0  0  0  0
    9.9796   12.3106   22.5490 H   0  0  0  0  0  0  0  0  0  0  0  0
    6.2328   15.9161   21.6074 H   0  0  0  0  0  0  0  0  0  0  0  0
    6.1197   15.2524   23.2694 H   0  0  0  0  0  0  0  0  0  0  0  0
    7.1177   16.7079   22.9511 H   0  0  0  0  0  0  0  0  0  0  0  0
    7.2371   13.8229   24.8873 H   0  0  0  0  0  0  0  0  0  0  0  0
    8.8007   13.7496   25.7006 H   0  0  0  0  0  0  0  0  0  0  0  0
    9.5800    9.7882   22.4903 H   0  0  0  0  0  0  0  0  0  0  0  0
    9.1246   15.4891   24.2463 H   0  0  0  0  0  0  0  0  0  0  0  0
  1  3  1  0  0  0  0
  1  6  2  0  0  0  0
  2  3  2  0  0  0  0
  2  7  1  0  0  0  0
  3  5  1  0  0  0  0
  4 11  1  0  0  0  0
  5  8  1  0  0  0  0
  6  7  1  0  0  0  0
  8 11  1  0  0  0  0
  9 11  2  0  0  0  0
 10 11  2  0  0  0  0
  1 12  1  0  0  0  0
  2 13  1  0  0  0  0
  4 14  1  0  0  0  0
  4 15  1  0  0  0  0
  4 16  1  0  0  0  0
  5 17  1  0  0  0  0
  5 18  1  0  0  0  0
  7 19  1  0  0  0  0
  8 20  1  0  0  0  0
M  END
> <Mol Weight>
175,21

> <Formula>
C5H9N3O2S

> <ID>
EN300-366585

> <name>
Sulfonamides

> <LogP>
-1,28

> <ROCS_ShapeQuery>
x0446_0A_x1080_0A_x0929_0A_x0812_0A_x0719_0A_x1140_0A_x0528_0A_x0310_0A

> <ROCS_TanimotoCombo>
0.327 

> <ROCS_ShapeTanimoto>
0.162 

> <ROCS_ColorTanimoto>
0.165 

> <ROCS_RefTversky>
0.152 

> <ROCS_RefColorTversky>
0.172 

> <ROCS_RefTverskyCombo>
0.324 

> <ROCS_FitTversky>
1.705 

> <ROCS_FitColorTversky>
0.811 

> <ROCS_FitTverskyCombo>
2.516 

> <ROCS_ColorScore>
-6.130

> <ROCS_Overlap>
1789.123

> <ROCS_Rank>
488                 

$$$$
untitled-dbase-1747_7
  -OEChem-02082415043D

 25 25  0     0  0  0  0  0  0999 V2000
    7.9874   11.8053   24.8237 C   0  0  0  0  0  0  0  0  0  0  0  0
    9.6371   12.5722   23.2339 C   0  0  0  0  0  0  0  0  0  0  0  0
    8.3495   10.4840   24.5621 C   0  0  0  0  0  0  0  0  0  0  0  0
    9.9992   11.2508   22.9722 C   0  0  0  0  0  0  0  0  0  0  0  0
    8.6312   12.8495   24.1595 C   0  0  0  0  0  0  0  0  0  0  0  0
    9.3554   10.2067   23.6364 C   0  0  0  0  0  0  0  0  0  0  0  0
    8.2439   14.2622   24.4393 C   0  0  0  0  0  0  0  0  0  0  0  0
    7.1266   14.7837   23.5314 C   0  0  0  0  0  0  0  0  0  0  0  0
    6.4310   15.8267   21.1906 N   0  0  0  0  0  0  0  0  0  0  0  0
    9.7238    8.8615   23.3698 N   0  3  0  0  0  0  0  0  0  0  0  0
    9.1319    7.9370   23.9777 O   0  5  0  0  0  0  0  0  0  0  0  0
   10.6314    8.6339   22.5337 O   0  0  0  0  0  0  0  0  0  0  0  0
    8.8880   15.2207   21.6516 O   0  0  0  0  0  0  0  0  0  0  0  0
    7.1930   13.3739   21.3324 O   0  0  0  0  0  0  0  0  0  0  0  0
    7.5433   14.6973   21.8181 S   0  0  0  0  0  0  0  0  0  0  0  0
    7.2025   12.0119   25.5464 H   0  0  0  0  0  0  0  0  0  0  0  0
   10.1444   13.3790   22.7116 H   0  0  0  0  0  0  0  0  0  0  0  0
    7.8396    9.6795   25.0865 H   0  0  0  0  0  0  0  0  0  0  0  0
   10.7849   11.0484   22.2484 H   0  0  0  0  0  0  0  0  0  0  0  0
    9.1230   14.9166   24.3068 H   0  0  0  0  0  0  0  0  0  0  0  0
    7.9424   14.3914   25.4933 H   0  0  0  0  0  0  0  0  0  0  0  0
    6.2222   14.1785   23.6506 H   0  0  0  0  0  0  0  0  0  0  0  0
    6.8745   15.8260   23.7489 H   0  0  0  0  0  0  0  0  0  0  0  0
    5.4380   15.5631   21.1767 H   0  0  0  0  0  0  0  0  0  0  0  0
    6.5926   16.8207   21.3940 H   0  0  0  0  0  0  0  0  0  0  0  0
  1  3  2  0  0  0  0
  1  5  1  0  0  0  0
  2  4  1  0  0  0  0
  2  5  2  0  0  0  0
  3  6  1  0  0  0  0
  4  6  2  0  0  0  0
  5  7  1  0  0  0  0
  6 10  1  0  0  0  0
  7  8  1  0  0  0  0
  8 15  1  0  0  0  0
  9 15  1  0  0  0  0
 10 11  1  0  0  0  0
 10 12  2  0  0  0  0
 13 15  2  0  0  0  0
 14 15  2  0  0  0  0
  1 16  1  0  0  0  0
  2 17  1  0  0  0  0
  3 18  1  0  0  0  0
  4 19  1  0  0  0  0
  7 20  1  0  0  0  0
  7 21  1  0  0  0  0
  8 22  1  0  0  0  0
  8 23  1  0  0  0  0
  9 24  1  0  0  0  0
  9 25  1  0  0  0  0
M  CHG  2  10   1  11  -1
M  END
> <Mol Weight>
230,24

> <Formula>
C8H10N2O4S

> <ID>
EN300-109145

> <name>
Sulfonamides

> <LogP>
0,57

> <ROCS_ShapeQuery>
x0446_0A_x1080_0A_x0929_0A_x0812_0A_x0719_0A_x1140_0A_x0528_0A_x0310_0A

> <ROCS_TanimotoCombo>
0.327 

> <ROCS_ShapeTanimoto>
0.195 

> <ROCS_ColorTanimoto>
0.133 

> <ROCS_RefTversky>
0.180 

> <ROCS_RefColorTversky>
0.142 

> <ROCS_RefTverskyCombo>
0.322 

> <ROCS_FitTversky>
1.741 

> <ROCS_FitColorTversky>
0.667 

> <ROCS_FitTverskyCombo>
2.409 

> <ROCS_ColorScore>
-5.058

> <ROCS_Overlap>
2121.473

> <ROCS_Rank>
489                 

$$$$
untitled-dbase-2454_339
  -OEChem-02082415043D

 37 37  0     1  0  0  0  0  0999 V2000
    8.7936   10.8241   24.0970 C   0  0  0  0  0  0  0  0  0  0  0  0
    6.2439   13.5085   23.9351 C   0  0  0  0  0  0  0  0  0  0  0  0
    6.6070   12.0404   23.7570 C   0  0  0  0  0  0  0  0  0  0  0  0
    8.6275   13.3131   24.0821 C   0  0  0  0  0  0  0  0  0  0  0  0
    7.5338   14.2515   23.5924 C   0  0  1  0  0  0  0  0  0  0  0  0
   10.2245    9.8561   22.2525 C   0  0  0  0  0  0  0  0  0  0  0  0
   11.7638   11.7834   22.7270 C   0  0  0  0  0  0  0  0  0  0  0  0
   12.0122    9.6391   24.0108 C   0  0  0  0  0  0  0  0  0  0  0  0
    6.1627   16.8186   22.2154 C   0  0  0  0  0  0  0  0  0  0  0  0
   11.0282   10.5872   23.3269 C   0  0  0  0  0  0  0  0  0  0  0  0
    8.0444   11.9831   23.9859 N   0  0  0  0  0  0  0  0  0  0  0  0
    6.2701   15.4931   21.5797 N   0  0  0  0  0  0  0  0  0  0  0  0
    8.3276    9.6899   24.0144 O   0  0  0  0  0  0  0  0  0  0  0  0
    8.8537   15.3601   21.6229 O   0  0  0  0  0  0  0  0  0  0  0  0
    7.5036   13.2792   21.1719 O   0  0  0  0  0  0  0  0  0  0  0  0
   10.1193   11.0898   24.3128 O   0  0  0  0  0  0  0  0  0  0  0  0
    7.6696   14.5516   21.8527 S   0  0  0  0  0  0  0  0  0  0  0  0
    5.3922   13.8000   23.3134 H   0  0  0  0  0  0  0  0  0  0  0  0
    5.9830   13.6930   24.9844 H   0  0  0  0  0  0  0  0  0  0  0  0
    6.0775   11.3848   24.4548 H   0  0  0  0  0  0  0  0  0  0  0  0
    6.4151   11.6956   22.7352 H   0  0  0  0  0  0  0  0  0  0  0  0
    9.5619   13.3648   23.5148 H   0  0  0  0  0  0  0  0  0  0  0  0
    8.8506   13.4873   25.1408 H   0  0  0  0  0  0  0  0  0  0  0  0
    7.5819   15.2313   24.0766 H   0  0  0  0  0  0  0  0  0  0  0  0
    9.6950    8.9968   22.6792 H   0  0  0  0  0  0  0  0  0  0  0  0
    9.4908   10.5163   21.7785 H   0  0  0  0  0  0  0  0  0  0  0  0
   10.8848    9.4570   21.4741 H   0  0  0  0  0  0  0  0  0  0  0  0
   12.3418   12.3110   23.4944 H   0  0  0  0  0  0  0  0  0  0  0  0
   11.0550   12.5129   22.3187 H   0  0  0  0  0  0  0  0  0  0  0  0
   12.4465   11.4783   21.9273 H   0  0  0  0  0  0  0  0  0  0  0  0
   12.5888   10.1633   24.7816 H   0  0  0  0  0  0  0  0  0  0  0  0
   11.4982    8.7934   24.4791 H   0  0  0  0  0  0  0  0  0  0  0  0
   12.7410    9.2486   23.2914 H   0  0  0  0  0  0  0  0  0  0  0  0
    7.1552   17.2919   22.2476 H   0  0  0  0  0  0  0  0  0  0  0  0
    5.4745   17.4494   21.6336 H   0  0  0  0  0  0  0  0  0  0  0  0
    5.7779   16.7039   23.2395 H   0  0  0  0  0  0  0  0  0  0  0  0
    5.3767   14.9882   21.5141 H   0  0  0  0  0  0  0  0  0  0  0  0
  1 11  1  0  0  0  0
  1 13  2  0  0  0  0
  1 16  1  0  0  0  0
  2  3  1  0  0  0  0
  2  5  1  0  0  0  0
  3 11  1  0  0  0  0
  4  5  1  0  0  0  0
  4 11  1  0  0  0  0
  5 17  1  1  0  0  0
  6 10  1  0  0  0  0
  7 10  1  0  0  0  0
  8 10  1  0  0  0  0
  9 12  1  0  0  0  0
 10 16  1  0  0  0  0
 12 17  1  0  0  0  0
 14 17  2  0  0  0  0
 15 17  2  0  0  0  0
  2 18  1  0  0  0  0
  2 19  1  0  0  0  0
  3 20  1  0  0  0  0
  3 21  1  0  0  0  0
  4 22  1  0  0  0  0
  4 23  1  0  0  0  0
  5 24  1  0  0  0  0
  6 25  1  0  0  0  0
  6 26  1  0  0  0  0
  6 27  1  0  0  0  0
  7 28  1  0  0  0  0
  7 29  1  0  0  0  0
  7 30  1  0  0  0  0
  8 31  1  0  0  0  0
  8 32  1  0  0  0  0
  8 33  1  0  0  0  0
  9 34  1  0  0  0  0
  9 35  1  0  0  0  0
  9 36  1  0  0  0  0
 12 37  1  0  0  0  0
M  END
> <Mol Weight>
264,34

> <Formula>
C10H20N2O4S

> <ID>
EN300-26863033

> <name>
Sulfonamides

> <LogP>
-0,14

> <ROCS_ShapeQuery>
x0446_0A_x1080_0A_x0929_0A_x0812_0A_x0719_0A_x1140_0A_x0528_0A_x0310_0A

> <ROCS_TanimotoCombo>
0.327 

> <ROCS_ShapeTanimoto>
0.201 

> <ROCS_ColorTanimoto>
0.127 

> <ROCS_RefTversky>
0.185 

> <ROCS_RefColorTversky>
0.136 

> <ROCS_RefTverskyCombo>
0.322 

> <ROCS_FitTversky>
1.689 

> <ROCS_FitColorTversky>
0.642 

> <ROCS_FitTverskyCombo>
2.331 

> <ROCS_ColorScore>
-4.858

> <ROCS_Overlap>
2187.935

> <ROCS_Rank>
490                 

$$$$
untitled-dbase-1446_32
  -OEChem-02082415043D

 31 32  0     1  0  0  0  0  0999 V2000
    7.5483   11.3209   24.4883 C   0  0  0  0  0  0  0  0  0  0  0  0
   10.5448    8.5277   22.1640 C   0  0  0  0  0  0  0  0  0  0  0  0
   11.3866    9.6372   21.6085 C   0  0  0  0  0  0  0  0  0  0  0  0
    8.6512   10.2933   24.2555 C   0  0  0  0  0  0  0  0  0  0  0  0
    8.1447   12.7118   24.6788 C   0  0  0  0  0  0  0  0  0  0  0  0
   10.7318    9.7963   22.9575 C   0  0  0  0  0  0  0  0  0  0  0  0
    9.5874   10.7510   23.1353 C   0  0  2  0  0  0  0  0  0  0  0  0
    9.1052   13.0474   23.5363 C   0  0  1  0  0  0  0  0  0  0  0  0
    9.7939   14.3841   23.7748 C   0  0  0  0  0  0  0  0  0  0  0  0
   11.0559   13.6080   21.5712 N   0  0  0  0  0  0  0  0  0  0  0  0
    9.3477   15.5285   21.4687 O   0  0  0  0  0  0  0  0  0  0  0  0
   11.5710   15.9044   22.6094 O   0  0  0  0  0  0  0  0  0  0  0  0
   10.1219   12.0447   23.4349 O   0  0  0  0  0  0  0  0  0  0  0  0
   10.4511   15.0374   22.2789 S   0  0  0  0  0  0  0  0  0  0  0  0
    6.8687   11.3292   23.6274 H   0  0  0  0  0  0  0  0  0  0  0  0
    6.9544   11.0430   25.3660 H   0  0  0  0  0  0  0  0  0  0  0  0
    9.5842    8.3441   21.6986 H   0  0  0  0  0  0  0  0  0  0  0  0
   11.0513    7.6362   22.5130 H   0  0  0  0  0  0  0  0  0  0  0  0
   12.4598    9.4937   21.5848 H   0  0  0  0  0  0  0  0  0  0  0  0
   10.9907   10.1999   20.7721 H   0  0  0  0  0  0  0  0  0  0  0  0
    9.2198   10.1756   25.1873 H   0  0  0  0  0  0  0  0  0  0  0  0
    8.2135    9.3167   24.0197 H   0  0  0  0  0  0  0  0  0  0  0  0
    7.3443   13.4574   24.7414 H   0  0  0  0  0  0  0  0  0  0  0  0
    8.6860   12.7278   25.6335 H   0  0  0  0  0  0  0  0  0  0  0  0
   11.3669    9.7522   23.8337 H   0  0  0  0  0  0  0  0  0  0  0  0
    9.0400   10.8090   22.1854 H   0  0  0  0  0  0  0  0  0  0  0  0
    8.5624   13.0979   22.5838 H   0  0  0  0  0  0  0  0  0  0  0  0
   10.6216   14.2670   24.4743 H   0  0  0  0  0  0  0  0  0  0  0  0
    9.0860   15.1127   24.1692 H   0  0  0  0  0  0  0  0  0  0  0  0
   11.8886   13.1808   21.9950 H   0  0  0  0  0  0  0  0  0  0  0  0
   10.3744   12.9250   21.2180 H   0  0  0  0  0  0  0  0  0  0  0  0
  1  4  1  0  0  0  0
  1  5  1  0  0  0  0
  2  3  1  0  0  0  0
  2  6  1  0  0  0  0
  3  6  1  0  0  0  0
  4  7  1  0  0  0  0
  5  8  1  0  0  0  0
  6  7  1  0  0  0  0
  7 13  1  0  0  0  0
  8  9  1  0  0  0  0
  8 13  1  0  0  0  0
  9 14  1  0  0  0  0
 10 14  1  0  0  0  0
 11 14  2  0  0  0  0
 12 14  2  0  0  0  0
  1 15  1  0  0  0  0
  1 16  1  0  0  0  0
  2 17  1  0  0  0  0
  2 18  1  0  0  0  0
  3 19  1  0  0  0  0
  3 20  1  0  0  0  0
  4 21  1  0  0  0  0
  4 22  1  0  0  0  0
  5 23  1  0  0  0  0
  5 24  1  0  0  0  0
  6 25  1  0  0  0  0
  7 26  1  0  0  0  0
  8 27  1  0  0  0  0
  9 28  1  0  0  0  0
  9 29  1  0  0  0  0
 10 30  1  0  0  0  0
 10 31  1  0  0  0  0
M  END
> <Mol Weight>
219,30

> <Formula>
C9H17NO3S

> <ID>
EN300-1718173

> <name>
Sulfonamides

> <LogP>
0,32

> <ROCS_ShapeQuery>
x0446_0A_x1080_0A_x0929_0A_x0812_0A_x0719_0A_x1140_0A_x0528_0A_x0310_0A

> <ROCS_TanimotoCombo>
0.327 

> <ROCS_ShapeTanimoto>
0.190 

> <ROCS_ColorTanimoto>
0.137 

> <ROCS_RefTversky>
0.176 

> <ROCS_RefColorTversky>
0.143 

> <ROCS_RefTverskyCombo>
0.319 

> <ROCS_FitTversky>
1.784 

> <ROCS_FitColorTversky>
0.769 

> <ROCS_FitTverskyCombo>
2.553 

> <ROCS_ColorScore>
-5.085

> <ROCS_Overlap>
2070.606

> <ROCS_Rank>
491                 

$$$$
untitled-dbase-1525_0
  -OEChem-02082415043D

 25 26  0     0  0  0  0  0  0999 V2000
    9.9980   10.9983   25.0645 C   0  0  0  0  0  0  0  0  0  0  0  0
    9.9121   12.0030   24.1115 C   0  0  0  0  0  0  0  0  0  0  0  0
    7.0735   11.6973   21.0448 C   0  0  0  0  0  0  0  0  0  0  0  0
    7.1852   10.7027   22.0196 C   0  0  0  0  0  0  0  0  0  0  0  0
    9.1281    9.9330   24.9488 C   0  0  0  0  0  0  0  0  0  0  0  0
    8.9684   11.9165   23.0791 C   0  0  0  0  0  0  0  0  0  0  0  0
    7.9099   12.8060   21.0841 C   0  0  0  0  0  0  0  0  0  0  0  0
    8.1227   10.7880   23.0453 C   0  0  0  0  0  0  0  0  0  0  0  0
    8.8563   12.9171   22.0988 C   0  0  0  0  0  0  0  0  0  0  0  0
    7.7584   13.8473   20.0236 C   0  0  0  0  0  0  0  0  0  0  0  0
    8.2037    9.8115   23.9687 N   0  0  0  0  0  0  0  0  0  0  0  0
   11.1937   13.7830   21.1547 N   0  0  0  0  0  0  0  0  0  0  0  0
    9.1996   15.3990   21.3949 O   0  0  0  0  0  0  0  0  0  0  0  0
   10.3551   14.5501   23.4666 O   0  0  0  0  0  0  0  0  0  0  0  0
    9.8935   14.3418   22.1067 S   0  0  0  0  0  0  0  0  0  0  0  0
   10.7215   11.0492   25.8695 H   0  0  0  0  0  0  0  0  0  0  0  0
   10.5967   12.8412   24.2036 H   0  0  0  0  0  0  0  0  0  0  0  0
    6.3284   11.5920   20.2607 H   0  0  0  0  0  0  0  0  0  0  0  0
    6.5183    9.8443   21.9663 H   0  0  0  0  0  0  0  0  0  0  0  0
    9.1487    9.1185   25.6651 H   0  0  0  0  0  0  0  0  0  0  0  0
    7.0350   14.6078   20.3393 H   0  0  0  0  0  0  0  0  0  0  0  0
    8.7153   14.3404   19.8134 H   0  0  0  0  0  0  0  0  0  0  0  0
    7.4128   13.4051   19.0812 H   0  0  0  0  0  0  0  0  0  0  0  0
   11.2986   14.1734   20.2102 H   0  0  0  0  0  0  0  0  0  0  0  0
   12.0860   13.5924   21.6265 H   0  0  0  0  0  0  0  0  0  0  0  0
  1  2  2  0  0  0  0
  1  5  1  0  0  0  0
  2  6  1  0  0  0  0
  3  4  2  0  0  0  0
  3  7  1  0  0  0  0
  4  8  1  0  0  0  0
  5 11  2  0  0  0  0
  6  8  2  0  0  0  0
  6  9  1  0  0  0  0
  7  9  2  0  0  0  0
  7 10  1  0  0  0  0
  8 11  1  0  0  0  0
  9 15  1  0  0  0  0
 12 15  1  0  0  0  0
 13 15  2  0  0  0  0
 14 15  2  0  0  0  0
  1 16  1  0  0  0  0
  2 17  1  0  0  0  0
  3 18  1  0  0  0  0
  4 19  1  0  0  0  0
  5 20  1  0  0  0  0
 10 21  1  0  0  0  0
 10 22  1  0  0  0  0
 10 23  1  0  0  0  0
 12 24  1  0  0  0  0
 12 25  1  0  0  0  0
M  END
> <Mol Weight>
222,26

> <Formula>
C10H10N2O2S

> <ID>
EN300-371972

> <name>
Sulfonamides

> <LogP>
1,25

> <ROCS_ShapeQuery>
x0446_0A_x1080_0A_x0929_0A_x0812_0A_x0719_0A_x1140_0A_x0528_0A_x0310_0A

> <ROCS_TanimotoCombo>
0.327 

> <ROCS_ShapeTanimoto>
0.154 

> <ROCS_ColorTanimoto>
0.173 

> <ROCS_RefTversky>
0.148 

> <ROCS_RefColorTversky>
0.179 

> <ROCS_RefTverskyCombo>
0.327 

> <ROCS_FitTversky>
1.394 

> <ROCS_FitColorTversky>
0.841 

> <ROCS_FitTverskyCombo>
2.235 

> <ROCS_ColorScore>
-6.367

> <ROCS_Overlap>
1744.850

> <ROCS_Rank>
492                 

$$$$
untitled-dbase-1778_5
  -OEChem-02082415043D

 28 28  0     0  0  0  0  0  0999 V2000
    8.1344   11.7667   24.3350 C   0  0  0  0  0  0  0  0  0  0  0  0
    9.9894   11.7721   22.2514 C   0  0  0  0  0  0  0  0  0  0  0  0
    8.6318   12.9751   23.8473 C   0  0  0  0  0  0  0  0  0  0  0  0
    8.5645   10.5609   23.7810 C   0  0  0  0  0  0  0  0  0  0  0  0
    9.4919   10.5637   22.7391 C   0  0  0  0  0  0  0  0  0  0  0  0
    9.5593   12.9778   22.8055 C   0  0  0  0  0  0  0  0  0  0  0  0
    8.1510   14.2485   24.4626 C   0  0  0  0  0  0  0  0  0  0  0  0
    7.1273    9.4723   25.3319 C   0  0  0  0  0  0  0  0  0  0  0  0
    9.1751    8.8848   21.0848 C   0  0  0  0  0  0  0  0  0  0  0  0
   11.2529   13.8847   20.9577 N   0  0  0  0  0  0  0  0  0  0  0  0
    9.1175   15.2073   21.5377 O   0  0  0  0  0  0  0  0  0  0  0  0
   10.9997   15.1100   23.2097 O   0  0  0  0  0  0  0  0  0  0  0  0
    8.0715    9.3875   24.2662 O   0  0  0  0  0  0  0  0  0  0  0  0
    9.9197    9.3929   22.1901 O   0  0  0  0  0  0  0  0  0  0  0  0
   10.2044   14.4753   22.1697 S   0  0  0  0  0  0  0  0  0  0  0  0
    7.4108   11.7604   25.1468 H   0  0  0  0  0  0  0  0  0  0  0  0
   10.7124   11.7679   21.4392 H   0  0  0  0  0  0  0  0  0  0  0  0
    8.7963   14.5318   25.3020 H   0  0  0  0  0  0  0  0  0  0  0  0
    8.1493   15.0659   23.7312 H   0  0  0  0  0  0  0  0  0  0  0  0
    7.1226   14.1469   24.8306 H   0  0  0  0  0  0  0  0  0  0  0  0
    6.8150    8.4667   25.6240 H   0  0  0  0  0  0  0  0  0  0  0  0
    6.2612   10.0545   25.0071 H   0  0  0  0  0  0  0  0  0  0  0  0
    7.5975    9.9675   26.1848 H   0  0  0  0  0  0  0  0  0  0  0  0
    9.6221    7.9481   20.7431 H   0  0  0  0  0  0  0  0  0  0  0  0
    9.1771    9.6187   20.2748 H   0  0  0  0  0  0  0  0  0  0  0  0
    8.1466    8.7001   21.4038 H   0  0  0  0  0  0  0  0  0  0  0  0
   10.9801   14.0218   19.9768 H   0  0  0  0  0  0  0  0  0  0  0  0
   12.2647   13.9542   21.1209 H   0  0  0  0  0  0  0  0  0  0  0  0
  1  3  2  0  0  0  0
  1  4  1  0  0  0  0
  2  5  1  0  0  0  0
  2  6  2  0  0  0  0
  3  6  1  0  0  0  0
  3  7  1  0  0  0  0
  4  5  2  0  0  0  0
  4 13  1  0  0  0  0
  5 14  1  0  0  0  0
  6 15  1  0  0  0  0
  8 13  1  0  0  0  0
  9 14  1  0  0  0  0
 10 15  1  0  0  0  0
 11 15  2  0  0  0  0
 12 15  2  0  0  0  0
  1 16  1  0  0  0  0
  2 17  1  0  0  0  0
  7 18  1  0  0  0  0
  7 19  1  0  0  0  0
  7 20  1  0  0  0  0
  8 21  1  0  0  0  0
  8 22  1  0  0  0  0
  8 23  1  0  0  0  0
  9 24  1  0  0  0  0
  9 25  1  0  0  0  0
  9 26  1  0  0  0  0
 10 27  1  0  0  0  0
 10 28  1  0  0  0  0
M  END
> <Mol Weight>
231,27

> <Formula>
C9H13NO4S

> <ID>
EN300-188495

> <name>
Sulfonamides

> <LogP>
0,78

> <ROCS_ShapeQuery>
x0446_0A_x1080_0A_x0929_0A_x0812_0A_x0719_0A_x1140_0A_x0528_0A_x0310_0A

> <ROCS_TanimotoCombo>
0.327 

> <ROCS_ShapeTanimoto>
0.199 

> <ROCS_ColorTanimoto>
0.129 

> <ROCS_RefTversky>
0.183 

> <ROCS_RefColorTversky>
0.138 

> <ROCS_RefTverskyCombo>
0.321 

> <ROCS_FitTversky>
1.767 

> <ROCS_FitColorTversky>
0.651 

> <ROCS_FitTverskyCombo>
2.418 

> <ROCS_ColorScore>
-4.920

> <ROCS_Overlap>
2157.231

> <ROCS_Rank>
493                 

$$$$
untitled-dbase-1335_3
  -OEChem-02082415043D

 27 27  0     1  0  0  0  0  0999 V2000
   10.5317   11.8039   23.6075 C   0  0  0  0  0  0  0  0  0  0  0  0
    9.7569   12.9522   23.4444 C   0  0  0  0  0  0  0  0  0  0  0  0
    9.9212   10.5891   23.9197 C   0  0  0  0  0  0  0  0  0  0  0  0
    7.7611   11.6712   23.9059 C   0  0  0  0  0  0  0  0  0  0  0  0
    8.3717   12.8859   23.5936 C   0  0  0  0  0  0  0  0  0  0  0  0
    8.5359   10.5229   24.0690 C   0  0  0  0  0  0  0  0  0  0  0  0
    7.8993   15.2831   24.3418 C   0  0  0  0  0  0  0  0  0  0  0  0
    6.5202    9.3409   24.5112 C   0  0  0  0  0  0  0  0  0  0  0  0
    7.5435   14.1139   23.4197 C   0  0  1  0  0  0  0  0  0  0  0  0
    6.2842   15.5819   21.6003 N   0  0  0  0  0  0  0  0  0  0  0  0
    8.8524   15.4376   21.5861 O   0  0  0  0  0  0  0  0  0  0  0  0
    7.4921   13.4213   20.9007 O   0  0  0  0  0  0  0  0  0  0  0  0
    7.9402    9.3373   24.3731 O   0  0  0  0  0  0  0  0  0  0  0  0
    7.6738   14.6044   21.7176 S   0  0  0  0  0  0  0  0  0  0  0  0
   11.6101   11.8555   23.4908 H   0  0  0  0  0  0  0  0  0  0  0  0
   10.2415   13.8942   23.2016 H   0  0  0  0  0  0  0  0  0  0  0  0
   10.5302    9.6983   24.0455 H   0  0  0  0  0  0  0  0  0  0  0  0
    6.6813   11.6166   24.0231 H   0  0  0  0  0  0  0  0  0  0  0  0
    8.9558   15.5515   24.2354 H   0  0  0  0  0  0  0  0  0  0  0  0
    7.2992   16.1736   24.1267 H   0  0  0  0  0  0  0  0  0  0  0  0
    7.7196   15.0241   25.3911 H   0  0  0  0  0  0  0  0  0  0  0  0
    6.1744    8.3332   24.7540 H   0  0  0  0  0  0  0  0  0  0  0  0
    6.0632    9.6795   23.5779 H   0  0  0  0  0  0  0  0  0  0  0  0
    6.2433   10.0231   25.3185 H   0  0  0  0  0  0  0  0  0  0  0  0
    6.4739   13.8910   23.5706 H   0  0  0  0  0  0  0  0  0  0  0  0
    5.3679   15.1173   21.6131 H   0  0  0  0  0  0  0  0  0  0  0  0
    6.2945   16.4905   22.0798 H   0  0  0  0  0  0  0  0  0  0  0  0
  1  2  1  0  0  0  0
  1  3  2  0  0  0  0
  2  5  2  0  0  0  0
  3  6  1  0  0  0  0
  4  5  1  0  0  0  0
  4  6  2  0  0  0  0
  5  9  1  0  0  0  0
  6 13  1  0  0  0  0
  7  9  1  0  0  0  0
  8 13  1  0  0  0  0
  9 14  1  0  0  0  0
 10 14  1  0  0  0  0
 11 14  2  0  0  0  0
 12 14  2  0  0  0  0
  1 15  1  0  0  0  0
  2 16  1  0  0  0  0
  3 17  1  0  0  0  0
  4 18  1  0  0  0  0
  7 19  1  0  0  0  0
  7 20  1  0  0  0  0
  7 21  1  0  0  0  0
  8 22  1  0  0  0  0
  8 23  1  0  0  0  0
  8 24  1  0  0  0  0
  9 25  1  0  0  0  0
 10 26  1  0  0  0  0
 10 27  1  0  0  0  0
M  END
> <Mol Weight>
215,27

> <Formula>
C9H13NO3S

> <ID>
EN300-199249

> <name>
Sulfonamides

> <LogP>
0,75

> <ROCS_ShapeQuery>
x0446_0A_x1080_0A_x0929_0A_x0812_0A_x0719_0A_x1140_0A_x0528_0A_x0310_0A

> <ROCS_TanimotoCombo>
0.327 

> <ROCS_ShapeTanimoto>
0.181 

> <ROCS_ColorTanimoto>
0.146 

> <ROCS_RefTversky>
0.169 

> <ROCS_RefColorTversky>
0.151 

> <ROCS_RefTverskyCombo>
0.320 

> <ROCS_FitTversky>
1.695 

> <ROCS_FitColorTversky>
0.813 

> <ROCS_FitTverskyCombo>
2.508 

> <ROCS_ColorScore>
-5.376

> <ROCS_Overlap>
1988.311

> <ROCS_Rank>
494                 

$$$$
untitled-dbase-1480_63
  -OEChem-02082415043D

 22 22  0     0  0  0  0  0  0999 V2000
    7.1552   11.5443   24.2220 C   0  0  0  0  0  0  0  0  0  0  0  0
    7.8463   10.3482   24.0633 C   0  0  0  0  0  0  0  0  0  0  0  0
    9.2167   12.7066   23.9858 C   0  0  0  0  0  0  0  0  0  0  0  0
    7.8460   12.7503   24.1838 C   0  0  0  0  0  0  0  0  0  0  0  0
    9.2169   10.4120   23.8705 C   0  0  0  0  0  0  0  0  0  0  0  0
    7.1354   14.0462   24.3500 C   0  0  0  0  0  0  0  0  0  0  0  0
    7.7944   15.2123   23.6047 C   0  0  0  0  0  0  0  0  0  0  0  0
    9.9225   11.5644   23.8276 N   0  0  0  0  0  0  0  0  0  0  0  0
    6.2420   15.4074   21.4592 N   0  0  0  0  0  0  0  0  0  0  0  0
    8.7528   15.9392   21.2851 O   0  0  0  0  0  0  0  0  0  0  0  0
    8.0104   13.5449   21.6044 O   0  0  0  0  0  0  0  0  0  0  0  0
    7.8397   14.9651   21.8572 S   0  0  0  0  0  0  0  0  0  0  0  0
   10.1510    8.9879   23.6656 Cl  0  0  0  0  0  0  0  0  0  0  0  0
    6.0797   11.5271   24.3750 H   0  0  0  0  0  0  0  0  0  0  0  0
    7.3159    9.4022   24.0919 H   0  0  0  0  0  0  0  0  0  0  0  0
    9.8092   13.6156   23.9462 H   0  0  0  0  0  0  0  0  0  0  0  0
    7.0941   14.3117   25.4220 H   0  0  0  0  0  0  0  0  0  0  0  0
    6.0794   13.9697   24.0325 H   0  0  0  0  0  0  0  0  0  0  0  0
    7.2312   16.1378   23.7617 H   0  0  0  0  0  0  0  0  0  0  0  0
    8.8252   15.3766   23.9331 H   0  0  0  0  0  0  0  0  0  0  0  0
    5.4856   14.7712   21.7396 H   0  0  0  0  0  0  0  0  0  0  0  0
    5.9914   16.4018   21.5220 H   0  0  0  0  0  0  0  0  0  0  0  0
  1  2  2  0  0  0  0
  1  4  1  0  0  0  0
  2  5  1  0  0  0  0
  3  4  2  0  0  0  0
  3  8  1  0  0  0  0
  4  6  1  0  0  0  0
  5  8  2  0  0  0  0
  5 13  1  0  0  0  0
  6  7  1  0  0  0  0
  7 12  1  0  0  0  0
  9 12  1  0  0  0  0
 10 12  2  0  0  0  0
 11 12  2  0  0  0  0
  1 14  1  0  0  0  0
  2 15  1  0  0  0  0
  3 16  1  0  0  0  0
  6 17  1  0  0  0  0
  6 18  1  0  0  0  0
  7 19  1  0  0  0  0
  7 20  1  0  0  0  0
  9 21  1  0  0  0  0
  9 22  1  0  0  0  0
M  END
> <Mol Weight>
220,67

> <Formula>
C7H9ClN2O2S

> <ID>
EN300-7439787

> <name>
Sulfonamides

> <LogP>
0,24

> <ROCS_ShapeQuery>
x0446_0A_x1080_0A_x0929_0A_x0812_0A_x0719_0A_x1140_0A_x0528_0A_x0310_0A

> <ROCS_TanimotoCombo>
0.327 

> <ROCS_ShapeTanimoto>
0.181 

> <ROCS_ColorTanimoto>
0.146 

> <ROCS_RefTversky>
0.168 

> <ROCS_RefColorTversky>
0.151 

> <ROCS_RefTverskyCombo>
0.319 

> <ROCS_FitTversky>
1.765 

> <ROCS_FitColorTversky>
0.814 

> <ROCS_FitTverskyCombo>
2.579 

> <ROCS_ColorScore>
-5.380

> <ROCS_Overlap>
1976.979

> <ROCS_Rank>
495                 

$$$$
untitled-dbase-1550_2
  -OEChem-02082415043D

 24 25  0     0  0  0  0  0  0999 V2000
    9.8218   10.1878   23.3109 C   0  0  0  0  0  0  0  0  0  0  0  0
    8.8631    9.7671   24.2326 C   0  0  0  0  0  0  0  0  0  0  0  0
    9.8612   11.5219   22.9054 C   0  0  0  0  0  0  0  0  0  0  0  0
    7.9437   10.6803   24.7486 C   0  0  0  0  0  0  0  0  0  0  0  0
    9.1942   15.9163   22.9295 C   0  0  0  0  0  0  0  0  0  0  0  0
    9.2142   14.8466   23.7931 C   0  0  0  0  0  0  0  0  0  0  0  0
    8.8713   14.1985   21.7149 C   0  0  0  0  0  0  0  0  0  0  0  0
    8.9418   12.4351   23.4214 C   0  0  0  0  0  0  0  0  0  0  0  0
    7.9830   12.0144   24.3430 C   0  0  0  0  0  0  0  0  0  0  0  0
    8.9800   15.5062   21.6374 N   0  0  0  0  0  0  0  0  0  0  0  0
    9.0056   13.7532   23.0006 N   0  0  0  0  0  0  0  0  0  0  0  0
    7.6420   13.6780   26.3975 N   0  0  0  0  0  0  0  0  0  0  0  0
    6.6427   14.2304   24.0862 O   0  0  0  0  0  0  0  0  0  0  0  0
    5.6472   12.3559   25.4437 O   0  0  0  0  0  0  0  0  0  0  0  0
    6.8056   13.1240   25.0158 S   0  0  0  0  0  0  0  0  0  0  0  0
   10.5383    9.4764   22.9099 H   0  0  0  0  0  0  0  0  0  0  0  0
    8.8318    8.7283   24.5481 H   0  0  0  0  0  0  0  0  0  0  0  0
   10.6144   11.8346   22.1861 H   0  0  0  0  0  0  0  0  0  0  0  0
    7.2018   10.3392   25.4659 H   0  0  0  0  0  0  0  0  0  0  0  0
    9.3228   16.9608   23.1726 H   0  0  0  0  0  0  0  0  0  0  0  0
    9.3542   14.7771   24.8634 H   0  0  0  0  0  0  0  0  0  0  0  0
    8.6964   13.5323   20.8802 H   0  0  0  0  0  0  0  0  0  0  0  0
    7.9933   14.6434   26.3920 H   0  0  0  0  0  0  0  0  0  0  0  0
    7.3136   13.3610   27.3178 H   0  0  0  0  0  0  0  0  0  0  0  0
  1  2  1  0  0  0  0
  1  3  2  0  0  0  0
  2  4  2  0  0  0  0
  3  8  1  0  0  0  0
  4  9  1  0  0  0  0
  5  6  2  0  0  0  0
  5 10  1  0  0  0  0
  6 11  1  0  0  0  0
  7 10  2  0  0  0  0
  7 11  1  0  0  0  0
  8  9  2  0  0  0  0
  8 11  1  0  0  0  0
  9 15  1  0  0  0  0
 12 15  1  0  0  0  0
 13 15  2  0  0  0  0
 14 15  2  0  0  0  0
  1 16  1  0  0  0  0
  2 17  1  0  0  0  0
  3 18  1  0  0  0  0
  4 19  1  0  0  0  0
  5 20  1  0  0  0  0
  6 21  1  0  0  0  0
  7 22  1  0  0  0  0
 12 23  1  0  0  0  0
 12 24  1  0  0  0  0
M  END
> <Mol Weight>
223,25

> <Formula>
C9H9N3O2S

> <ID>
EN300-272030

> <name>
Sulfonamides

> <LogP>
0,34

> <ROCS_ShapeQuery>
x0446_0A_x1080_0A_x0929_0A_x0812_0A_x0719_0A_x1140_0A_x0528_0A_x0310_0A

> <ROCS_TanimotoCombo>
0.327 

> <ROCS_ShapeTanimoto>
0.201 

> <ROCS_ColorTanimoto>
0.126 

> <ROCS_RefTversky>
0.185 

> <ROCS_RefColorTversky>
0.138 

> <ROCS_RefTverskyCombo>
0.324 

> <ROCS_FitTversky>
1.744 

> <ROCS_FitColorTversky>
0.580 

> <ROCS_FitTverskyCombo>
2.324 

> <ROCS_ColorScore>
-4.936

> <ROCS_Overlap>
2186.271

> <ROCS_Rank>
496                 

$$$$
untitled-dbase-1658_33
  -OEChem-02082415043D

 32 32  0     1  0  0  0  0  0999 V2000
    8.9094   10.0758   23.4851 C   0  0  0  0  0  0  0  0  0  0  0  0
    8.0584   10.4897   24.5099 C   0  0  0  0  0  0  0  0  0  0  0  0
    9.6486   11.0176   22.7693 C   0  0  0  0  0  0  0  0  0  0  0  0
    7.9465   11.8453   24.8188 C   0  0  0  0  0  0  0  0  0  0  0  0
    9.5367   12.3732   23.0782 C   0  0  0  0  0  0  0  0  0  0  0  0
    8.6856   12.7871   24.1030 C   0  0  0  0  0  0  0  0  0  0  0  0
    6.9986   16.7570   25.4593 C   0  0  0  0  0  0  0  0  0  0  0  0
    5.1826   14.9197   20.7581 C   0  0  0  0  0  0  0  0  0  0  0  0
    8.5647   14.2556   24.4369 C   0  0  0  0  0  0  0  0  0  0  0  0
    7.3469   16.4646   24.0055 C   0  0  0  0  0  0  0  0  0  0  0  0
    7.4607   14.9745   23.6461 C   0  0  1  0  0  0  0  0  0  0  0  0
    6.3418   15.6480   21.3044 N   0  0  0  0  0  0  0  0  0  0  0  0
    8.9111   15.4272   21.5150 O   0  0  0  0  0  0  0  0  0  0  0  0
    7.4692   13.3606   21.5966 O   0  0  0  0  0  0  0  0  0  0  0  0
    7.6785   14.7645   21.8933 S   0  0  0  0  0  0  0  0  0  0  0  0
    8.9974    9.0201   23.2456 H   0  0  0  0  0  0  0  0  0  0  0  0
    7.4836    9.7564   25.0681 H   0  0  0  0  0  0  0  0  0  0  0  0
   10.3120   10.6957   21.9721 H   0  0  0  0  0  0  0  0  0  0  0  0
    7.2808   12.1585   25.6188 H   0  0  0  0  0  0  0  0  0  0  0  0
   10.1163   13.0999   22.5151 H   0  0  0  0  0  0  0  0  0  0  0  0
    7.7497   16.3089   26.1181 H   0  0  0  0  0  0  0  0  0  0  0  0
    6.9848   17.8321   25.6609 H   0  0  0  0  0  0  0  0  0  0  0  0
    6.0259   16.3392   25.7337 H   0  0  0  0  0  0  0  0  0  0  0  0
    5.0310   13.9908   21.3275 H   0  0  0  0  0  0  0  0  0  0  0  0
    4.2839   15.5490   20.8372 H   0  0  0  0  0  0  0  0  0  0  0  0
    5.3677   14.6759   19.7015 H   0  0  0  0  0  0  0  0  0  0  0  0
    8.3635   14.3344   25.5135 H   0  0  0  0  0  0  0  0  0  0  0  0
    9.5333   14.7448   24.2740 H   0  0  0  0  0  0  0  0  0  0  0  0
    6.5805   16.9236   23.3688 H   0  0  0  0  0  0  0  0  0  0  0  0
    8.2914   16.9689   23.7661 H   0  0  0  0  0  0  0  0  0  0  0  0
    6.4873   14.5136   23.8570 H   0  0  0  0  0  0  0  0  0  0  0  0
    6.5456   16.5316   20.8196 H   0  0  0  0  0  0  0  0  0  0  0  0
  1  2  1  0  0  0  0
  1  3  2  0  0  0  0
  2  4  2  0  0  0  0
  3  5  1  0  0  0  0
  4  6  1  0  0  0  0
  5  6  2  0  0  0  0
  6  9  1  0  0  0  0
  7 10  1  0  0  0  0
  8 12  1  0  0  0  0
  9 11  1  0  0  0  0
 10 11  1  0  0  0  0
 11 15  1  0  0  0  0
 12 15  1  0  0  0  0
 13 15  2  0  0  0  0
 14 15  2  0  0  0  0
  1 16  1  0  0  0  0
  2 17  1  0  0  0  0
  3 18  1  0  0  0  0
  4 19  1  0  0  0  0
  5 20  1  0  0  0  0
  7 21  1  0  0  0  0
  7 22  1  0  0  0  0
  7 23  1  0  0  0  0
  8 24  1  0  0  0  0
  8 25  1  0  0  0  0
  8 26  1  0  0  0  0
  9 27  1  0  0  0  0
  9 28  1  0  0  0  0
 10 29  1  0  0  0  0
 10 30  1  0  0  0  0
 11 31  1  0  0  0  0
 12 32  1  0  0  0  0
M  END
> <Mol Weight>
227,32

> <Formula>
C11H17NO2S

> <ID>
EN300-680152

> <name>
Sulfonamides

> <LogP>
1,95

> <ROCS_ShapeQuery>
x0446_0A_x1080_0A_x0929_0A_x0812_0A_x0719_0A_x1140_0A_x0528_0A_x0310_0A

> <ROCS_TanimotoCombo>
0.327 

> <ROCS_ShapeTanimoto>
0.180 

> <ROCS_ColorTanimoto>
0.147 

> <ROCS_RefTversky>
0.168 

> <ROCS_RefColorTversky>
0.152 

> <ROCS_RefTverskyCombo>
0.320 

> <ROCS_FitTversky>
1.656 

> <ROCS_FitColorTversky>
0.818 

> <ROCS_FitTverskyCombo>
2.474 

> <ROCS_ColorScore>
-5.412

> <ROCS_Overlap>
1979.516

> <ROCS_Rank>
497                 

$$$$
untitled-dbase-2595_34
  -OEChem-02082415043D

 21 21  0     0  0  0  0  0  0999 V2000
   10.3397   11.2888   24.3824 C   0  0  0  0  0  0  0  0  0  0  0  0
    9.5771   10.1230   24.4517 C   0  0  0  0  0  0  0  0  0  0  0  0
    7.6448   11.3403   23.6630 C   0  0  0  0  0  0  0  0  0  0  0  0
    9.7549   12.4804   23.9535 C   0  0  0  0  0  0  0  0  0  0  0  0
    8.4075   12.5061   23.5938 C   0  0  0  0  0  0  0  0  0  0  0  0
    8.2296   10.1487   24.0920 C   0  0  0  0  0  0  0  0  0  0  0  0
   11.6608   13.6025   23.0474 C   0  0  0  0  0  0  0  0  0  0  0  0
    8.9668   15.0736   23.1467 N   0  0  0  0  0  0  0  0  0  0  0  0
    7.2752   13.8237   21.6560 O   0  0  0  0  0  0  0  0  0  0  0  0
    6.6501   14.3778   24.0330 O   0  0  0  0  0  0  0  0  0  0  0  0
   10.5186   13.6075   23.8953 O   0  0  0  0  0  0  0  0  0  0  0  0
   11.4750   12.7894   21.9860 F   0  0  0  0  0  0  0  0  0  0  0  0
   12.7198   13.1372   23.7481 F   0  0  0  0  0  0  0  0  0  0  0  0
   11.9580   14.8494   22.6241 F   0  0  0  0  0  0  0  0  0  0  0  0
    7.6518   13.9876   23.0521 S   0  0  0  0  0  0  0  0  0  0  0  0
    7.2884    8.7106   24.1812 Cl  0  0  0  0  0  0  0  0  0  0  0  0
   11.3884   11.2620   24.6660 H   0  0  0  0  0  0  0  0  0  0  0  0
   10.0456    9.2021   24.7894 H   0  0  0  0  0  0  0  0  0  0  0  0
    6.5937   11.3624   23.3843 H   0  0  0  0  0  0  0  0  0  0  0  0
    9.3821   15.4044   22.2672 H   0  0  0  0  0  0  0  0  0  0  0  0
    8.9548   15.7806   23.8918 H   0  0  0  0  0  0  0  0  0  0  0  0
  1  2  2  0  0  0  0
  1  4  1  0  0  0  0
  2  6  1  0  0  0  0
  3  5  1  0  0  0  0
  3  6  2  0  0  0  0
  4  5  2  0  0  0  0
  4 11  1  0  0  0  0
  5 15  1  0  0  0  0
  6 16  1  0  0  0  0
  7 11  1  0  0  0  0
  7 12  1  0  0  0  0
  7 13  1  0  0  0  0
  7 14  1  0  0  0  0
  8 15  1  0  0  0  0
  9 15  2  0  0  0  0
 10 15  2  0  0  0  0
  1 17  1  0  0  0  0
  2 18  1  0  0  0  0
  3 19  1  0  0  0  0
  8 20  1  0  0  0  0
  8 21  1  0  0  0  0
M  END
> <Mol Weight>
275,63

> <Formula>
C7H5ClF3NO3S

> <ID>
EN300-262402

> <name>
Sulfonamides

> <LogP>
2,61

> <ROCS_ShapeQuery>
x0446_0A_x1080_0A_x0929_0A_x0812_0A_x0719_0A_x1140_0A_x0528_0A_x0310_0A

> <ROCS_TanimotoCombo>
0.327 

> <ROCS_ShapeTanimoto>
0.203 

> <ROCS_ColorTanimoto>
0.124 

> <ROCS_RefTversky>
0.187 

> <ROCS_RefColorTversky>
0.131 

> <ROCS_RefTverskyCombo>
0.318 

> <ROCS_FitTversky>
1.727 

> <ROCS_FitColorTversky>
0.705 

> <ROCS_FitTverskyCombo>
2.432 

> <ROCS_ColorScore>
-4.662

> <ROCS_Overlap>
2203.347

> <ROCS_Rank>
498                 

$$$$
untitled-dbase-1227_6
  -OEChem-02082415043D

 25 26  0     0  0  0  0  0  0999 V2000
    9.5030   10.6430   22.6230 C   0  0  0  0  0  0  0  0  0  0  0  0
   10.0209   11.8366   22.1223 C   0  0  0  0  0  0  0  0  0  0  0  0
    8.7446   13.0760   23.7562 C   0  0  0  0  0  0  0  0  0  0  0  0
    8.2094   11.8834   24.2601 C   0  0  0  0  0  0  0  0  0  0  0  0
    8.6109   10.6638   23.6981 C   0  0  0  0  0  0  0  0  0  0  0  0
    9.6454   13.0519   22.6909 C   0  0  0  0  0  0  0  0  0  0  0  0
    7.2416   11.9232   25.4081 C   0  0  0  0  0  0  0  0  0  0  0  0
    6.5059   10.5959   25.5288 C   0  0  0  0  0  0  0  0  0  0  0  0
    7.5067    9.4582   25.4036 C   0  0  0  0  0  0  0  0  0  0  0  0
   11.3161   13.9625   20.8243 N   0  0  0  0  0  0  0  0  0  0  0  0
    9.2216   15.3155   21.4785 O   0  0  0  0  0  0  0  0  0  0  0  0
   11.1377   15.1460   23.1056 O   0  0  0  0  0  0  0  0  0  0  0  0
    8.1474    9.4449   24.1236 O   0  0  0  0  0  0  0  0  0  0  0  0
   10.3054   14.5455   22.0725 S   0  0  0  0  0  0  0  0  0  0  0  0
    9.7943    9.7003   22.1673 H   0  0  0  0  0  0  0  0  0  0  0  0
   10.7156   11.8075   21.2871 H   0  0  0  0  0  0  0  0  0  0  0  0
    8.4588   14.0257   24.2031 H   0  0  0  0  0  0  0  0  0  0  0  0
    7.7660   12.1341   26.3472 H   0  0  0  0  0  0  0  0  0  0  0  0
    6.5230   12.7328   25.2316 H   0  0  0  0  0  0  0  0  0  0  0  0
    6.0151   10.5415   26.5090 H   0  0  0  0  0  0  0  0  0  0  0  0
    5.7297   10.5210   24.7603 H   0  0  0  0  0  0  0  0  0  0  0  0
    8.2929    9.5773   26.1567 H   0  0  0  0  0  0  0  0  0  0  0  0
    7.0350    8.4829   25.5766 H   0  0  0  0  0  0  0  0  0  0  0  0
   12.1776   13.4710   21.0918 H   0  0  0  0  0  0  0  0  0  0  0  0
   10.8699   13.5878   19.9783 H   0  0  0  0  0  0  0  0  0  0  0  0
  1  2  2  0  0  0  0
  1  5  1  0  0  0  0
  2  6  1  0  0  0  0
  3  4  1  0  0  0  0
  3  6  2  0  0  0  0
  4  5  2  0  0  0  0
  4  7  1  0  0  0  0
  5 13  1  0  0  0  0
  6 14  1  0  0  0  0
  7  8  1  0  0  0  0
  8  9  1  0  0  0  0
  9 13  1  0  0  0  0
 10 14  1  0  0  0  0
 11 14  2  0  0  0  0
 12 14  2  0  0  0  0
  1 15  1  0  0  0  0
  2 16  1  0  0  0  0
  3 17  1  0  0  0  0
  7 18  1  0  0  0  0
  7 19  1  0  0  0  0
  8 20  1  0  0  0  0
  8 21  1  0  0  0  0
  9 22  1  0  0  0  0
  9 23  1  0  0  0  0
 10 24  1  0  0  0  0
 10 25  1  0  0  0  0
M  END
> <Mol Weight>
213,25

> <Formula>
C9H11NO3S

> <ID>
EN300-125533

> <name>
Sulfonamides

> <LogP>
0,91

> <ROCS_ShapeQuery>
x0446_0A_x1080_0A_x0929_0A_x0812_0A_x0719_0A_x1140_0A_x0528_0A_x0310_0A

> <ROCS_TanimotoCombo>
0.327 

> <ROCS_ShapeTanimoto>
0.192 

> <ROCS_ColorTanimoto>
0.135 

> <ROCS_RefTversky>
0.177 

> <ROCS_RefColorTversky>
0.144 

> <ROCS_RefTverskyCombo>
0.322 

> <ROCS_FitTversky>
1.753 

> <ROCS_FitColorTversky>
0.680 

> <ROCS_FitTverskyCombo>
2.432 

> <ROCS_ColorScore>
-5.143

> <ROCS_Overlap>
2089.333

> <ROCS_Rank>
499                 

$$$$
untitled-dbase-2565_414
  -OEChem-02082415043D

 34 34  0     0  0  0  0  0  0999 V2000
    9.9763   10.6292   23.5650 C   0  0  0  0  0  0  0  0  0  0  0  0
    9.2828   12.9409   23.6749 C   0  0  0  0  0  0  0  0  0  0  0  0
    8.6958   10.2270   23.9446 C   0  0  0  0  0  0  0  0  0  0  0  0
    8.0023   12.5387   24.0546 C   0  0  0  0  0  0  0  0  0  0  0  0
   10.2698   11.9861   23.4301 C   0  0  0  0  0  0  0  0  0  0  0  0
    7.7088   11.1817   24.1894 C   0  0  0  0  0  0  0  0  0  0  0  0
    9.7837   14.4745   20.7792 C   0  0  0  0  0  0  0  0  0  0  0  0
    6.8541   14.2392   19.6486 C   0  0  0  0  0  0  0  0  0  0  0  0
   11.6552   12.4216   23.0201 C   0  0  0  0  0  0  0  0  0  0  0  0
   11.6603   13.7330   22.2384 C   0  0  0  0  0  0  0  0  0  0  0  0
    8.1091   14.9330   19.1636 C   0  0  0  0  0  0  0  0  0  0  0  0
    5.3490   10.5254   23.1380 N   0  0  0  0  0  0  0  0  0  0  0  0
   10.8691   13.6622   21.0317 N   0  0  0  0  0  0  0  0  0  0  0  0
    9.3524   15.3466   21.5262 O   0  0  0  0  0  0  0  0  0  0  0  0
    6.1993    9.3605   25.2748 O   0  0  0  0  0  0  0  0  0  0  0  0
    5.4735   11.7704   25.3900 O   0  0  0  0  0  0  0  0  0  0  0  0
    9.2502   14.1639   19.5600 O   0  0  0  0  0  0  0  0  0  0  0  0
    6.1054   10.6785   24.6625 S   0  0  0  0  0  0  0  0  0  0  0  0
   10.7389    9.8782   23.3767 H   0  0  0  0  0  0  0  0  0  0  0  0
    9.5025   14.0004   23.5728 H   0  0  0  0  0  0  0  0  0  0  0  0
    8.4778    9.1672   24.0473 H   0  0  0  0  0  0  0  0  0  0  0  0
    7.2410   13.2910   24.2432 H   0  0  0  0  0  0  0  0  0  0  0  0
    6.7687   13.2391   19.2146 H   0  0  0  0  0  0  0  0  0  0  0  0
    6.8585   14.1518   20.7400 H   0  0  0  0  0  0  0  0  0  0  0  0
    5.9645   14.8182   19.3793 H   0  0  0  0  0  0  0  0  0  0  0  0
   12.1006   11.6304   22.4038 H   0  0  0  0  0  0  0  0  0  0  0  0
   12.2947   12.5086   23.9078 H   0  0  0  0  0  0  0  0  0  0  0  0
   11.2321   14.5334   22.8501 H   0  0  0  0  0  0  0  0  0  0  0  0
   12.6749   14.0283   21.9514 H   0  0  0  0  0  0  0  0  0  0  0  0
    8.1885   15.9326   19.6013 H   0  0  0  0  0  0  0  0  0  0  0  0
    8.1034   15.0188   18.0729 H   0  0  0  0  0  0  0  0  0  0  0  0
    5.1390    9.5793   22.7971 H   0  0  0  0  0  0  0  0  0  0  0  0
    4.6453   11.2266   22.8765 H   0  0  0  0  0  0  0  0  0  0  0  0
   11.1268   12.9755   20.3297 H   0  0  0  0  0  0  0  0  0  0  0  0
  1  3  2  0  0  0  0
  1  5  1  0  0  0  0
  2  4  1  0  0  0  0
  2  5  2  0  0  0  0
  3  6  1  0  0  0  0
  4  6  2  0  0  0  0
  5  9  1  0  0  0  0
  6 18  1  0  0  0  0
  7 13  1  0  0  0  0
  7 14  2  0  0  0  0
  7 17  1  0  0  0  0
  8 11  1  0  0  0  0
  9 10  1  0  0  0  0
 10 13  1  0  0  0  0
 11 17  1  0  0  0  0
 12 18  1  0  0  0  0
 15 18  2  0  0  0  0
 16 18  2  0  0  0  0
  1 19  1  0  0  0  0
  2 20  1  0  0  0  0
  3 21  1  0  0  0  0
  4 22  1  0  0  0  0
  8 23  1  0  0  0  0
  8 24  1  0  0  0  0
  8 25  1  0  0  0  0
  9 26  1  0  0  0  0
  9 27  1  0  0  0  0
 10 28  1  0  0  0  0
 10 29  1  0  0  0  0
 11 30  1  0  0  0  0
 11 31  1  0  0  0  0
 12 32  1  0  0  0  0
 12 33  1  0  0  0  0
 13 34  1  0  0  0  0
M  END
> <Mol Weight>
272,32

> <Formula>
C11H16N2O4S

> <ID>
EN300-23741027

> <name>
Sulfonamides

> <LogP>
0,79

> <ROCS_ShapeQuery>
x0446_0A_x1080_0A_x0929_0A_x0812_0A_x0719_0A_x1140_0A_x0528_0A_x0310_0A

> <ROCS_TanimotoCombo>
0.327 

> <ROCS_ShapeTanimoto>
0.190 

> <ROCS_ColorTanimoto>
0.136 

> <ROCS_RefTversky>
0.178 

> <ROCS_RefColorTversky>
0.146 

> <ROCS_RefTverskyCombo>
0.324 

> <ROCS_FitTversky>
1.577 

> <ROCS_FitColorTversky>
0.686 

> <ROCS_FitTverskyCombo>
2.263 

> <ROCS_ColorScore>
-5.186

> <ROCS_Overlap>
2100.819

> <ROCS_Rank>
500                 

$$$$
