untitled-dbase-1167501_5
  -OEChem-02092421083D

 34 36  0     0  0  0  0  0  0999 V2000
    8.1691   12.4285   24.3804 C   0  0  0  0  0  0  0  0  0  0  0  0
   11.8564   14.2583   21.5082 C   0  0  0  0  0  0  0  0  0  0  0  0
    7.1884   11.7742   25.1364 C   0  0  0  0  0  0  0  0  0  0  0  0
    9.1082   11.6311   23.7261 C   0  0  0  0  0  0  0  0  0  0  0  0
   11.6024   14.2798   22.8624 C   0  0  0  0  0  0  0  0  0  0  0  0
    6.0812   12.1188   25.9370 C   0  0  0  0  0  0  0  0  0  0  0  0
   11.9763   15.5401   23.4103 C   0  0  0  0  0  0  0  0  0  0  0  0
    7.2196   10.3892   25.1813 C   0  0  0  0  0  0  0  0  0  0  0  0
    9.0243   10.2488   23.8558 C   0  0  0  0  0  0  0  0  0  0  0  0
   10.1482   12.2634   22.9280 C   0  0  0  0  0  0  0  0  0  0  0  0
    5.5764   13.4689   26.2436 C   0  0  0  0  0  0  0  0  0  0  0  0
   11.8477   15.9265   24.8328 C   0  0  0  0  0  0  0  0  0  0  0  0
   11.3790   12.9616   25.0060 C   0  0  0  0  0  0  0  0  0  0  0  0
    5.4594   11.0513   26.4485 N   0  0  0  0  0  0  0  0  0  0  0  0
   12.4828   16.4422   22.5731 N   0  0  0  0  0  0  0  0  0  0  0  0
    8.0966    9.5708   24.5740 N   0  0  0  0  0  0  0  0  0  0  0  0
    6.1734   10.0153   25.9721 N   0  0  0  0  0  0  0  0  0  0  0  0
   11.0351   13.1614   23.5900 N   0  0  0  0  0  0  0  0  0  0  0  0
   10.2319   12.0299   21.7149 O   0  0  0  0  0  0  0  0  0  0  0  0
    9.9534    9.4695   23.2081 O   0  0  0  0  0  0  0  0  0  0  0  0
   12.5210   15.7700   21.0537 S   0  0  0  0  0  0  0  0  0  0  0  0
    8.1946   13.5112   24.3085 H   0  0  0  0  0  0  0  0  0  0  0  0
   11.6927   13.4648   20.7923 H   0  0  0  0  0  0  0  0  0  0  0  0
    4.8293   13.7946   25.5003 H   0  0  0  0  0  0  0  0  0  0  0  0
    5.1001   13.5191   27.2387 H   0  0  0  0  0  0  0  0  0  0  0  0
    6.3840   14.2221   26.2565 H   0  0  0  0  0  0  0  0  0  0  0  0
   12.7589   15.6691   25.3947 H   0  0  0  0  0  0  0  0  0  0  0  0
   11.6725   17.0082   24.9498 H   0  0  0  0  0  0  0  0  0  0  0  0
   10.9966   15.4227   25.3193 H   0  0  0  0  0  0  0  0  0  0  0  0
   10.6592   13.5018   25.6384 H   0  0  0  0  0  0  0  0  0  0  0  0
   11.3428   11.8883   25.2441 H   0  0  0  0  0  0  0  0  0  0  0  0
   12.3926   13.3450   25.1946 H   0  0  0  0  0  0  0  0  0  0  0  0
    5.8892    9.0775   26.2263 H   0  0  0  0  0  0  0  0  0  0  0  0
   10.5694   10.0357   22.7256 H   0  0  0  0  0  0  0  0  0  0  0  0
  1  3  2  0  0  0  0
  1  4  1  0  0  0  0
  2  5  2  0  0  0  0
  2 21  1  0  0  0  0
  3  6  1  0  0  0  0
  3  8  1  0  0  0  0
  4  9  2  0  0  0  0
  4 10  1  0  0  0  0
  5  7  1  0  0  0  0
  5 18  1  0  0  0  0
  6 11  1  0  0  0  0
  6 14  2  0  0  0  0
  7 12  1  0  0  0  0
  7 15  2  0  0  0  0
  8 16  2  0  0  0  0
  8 17  1  0  0  0  0
  9 16  1  0  0  0  0
  9 20  1  0  0  0  0
 10 18  1  0  0  0  0
 10 19  2  0  0  0  0
 13 18  1  0  0  0  0
 14 17  1  0  0  0  0
 15 21  1  0  0  0  0
  1 22  1  0  0  0  0
  2 23  1  0  0  0  0
 11 24  1  0  0  0  0
 11 25  1  0  0  0  0
 11 26  1  0  0  0  0
 12 27  1  0  0  0  0
 12 28  1  0  0  0  0
 12 29  1  0  0  0  0
 13 30  1  0  0  0  0
 13 31  1  0  0  0  0
 13 32  1  0  0  0  0
 17 33  1  0  0  0  0
 20 34  1  0  0  0  0
M  END
> <idnumber>
Z8346438374

> <heavy_atoms>
21

> <LogS>
-3.051

> <LogP>
1.161

> <rotating_bonds>
2

> <PSA>
95

> <hb_acceptors>
5

> <hb_donors>
2

> <Collection>
Advanced

> <link>
https://www.enaminestore.com/catalog/Z8346438374

> <ROCS_ShapeQuery>
_x1140_x0812_0A_x1140_0A_x1097_0A_x0365_0A_x1097_0A_x0310_0A

> <ROCS_TanimotoCombo>
0.704 

> <ROCS_ShapeTanimoto>
0.298 

> <ROCS_ColorTanimoto>
0.406 

> <ROCS_RefTversky>
0.262 

> <ROCS_RefColorTversky>
0.643 

> <ROCS_RefTverskyCombo>
0.905 

> <ROCS_FitTversky>
1.848 

> <ROCS_FitColorTversky>
0.524 

> <ROCS_FitTverskyCombo>
2.372 

> <ROCS_ColorScore>
-5.207

> <ROCS_Overlap>
2691.305

> <ROCS_Rank>
1                   

$$$$
untitled-dbase-1040387_2
  -OEChem-02092421083D

 29 30  0     1  0  0  0  0  0999 V2000
   12.0888   15.1530   22.4703 C   0  0  0  0  0  0  0  0  0  0  0  0
    8.6496   12.3945   24.4963 C   0  0  0  0  0  0  0  0  0  0  0  0
    8.7357   10.2343   23.4678 C   0  0  0  0  0  0  0  0  0  0  0  0
    6.1839   11.3068   26.9615 C   0  0  0  0  0  0  0  0  0  0  0  0
    7.7064   11.8584   25.3879 C   0  0  0  0  0  0  0  0  0  0  0  0
    9.1705   11.5520   23.5159 C   0  0  0  0  0  0  0  0  0  0  0  0
    6.9557   12.3467   26.4899 C   0  0  0  0  0  0  0  0  0  0  0  0
    7.3603   10.5201   25.2257 C   0  0  0  0  0  0  0  0  0  0  0  0
   10.1500   12.0455   22.5631 C   0  0  0  0  0  0  0  0  0  0  0  0
    6.9884   13.7173   27.0385 C   0  0  0  0  0  0  0  0  0  0  0  0
   13.2932   13.0093   22.2786 C   0  0  0  0  0  0  0  0  0  0  0  0
   11.9589   13.7292   22.1344 C   0  0  1  0  0  0  0  0  0  0  0  0
   12.1890   16.2787   22.7337 N   0  0  0  0  0  0  0  0  0  0  0  0
    7.8318    9.6650   24.2987 N   0  0  0  0  0  0  0  0  0  0  0  0
    6.4375   10.2040   26.1878 N   0  0  0  0  0  0  0  0  0  0  0  0
   10.9567   13.1137   22.9744 N   0  0  0  0  0  0  0  0  0  0  0  0
   10.2388   11.5416   21.4285 O   0  0  0  0  0  0  0  0  0  0  0  0
    8.9616   13.4319   24.5694 H   0  0  0  0  0  0  0  0  0  0  0  0
    9.1256    9.5552   22.7130 H   0  0  0  0  0  0  0  0  0  0  0  0
    5.4767   11.2516   27.7778 H   0  0  0  0  0  0  0  0  0  0  0  0
    7.7556   13.8120   27.8240 H   0  0  0  0  0  0  0  0  0  0  0  0
    7.2094   14.4683   26.2612 H   0  0  0  0  0  0  0  0  0  0  0  0
    6.0197   14.0095   27.4784 H   0  0  0  0  0  0  0  0  0  0  0  0
   13.6837   13.0877   23.3003 H   0  0  0  0  0  0  0  0  0  0  0  0
   14.0426   13.4408   21.6059 H   0  0  0  0  0  0  0  0  0  0  0  0
   13.1949   11.9445   22.0399 H   0  0  0  0  0  0  0  0  0  0  0  0
   11.6068   13.6259   21.1024 H   0  0  0  0  0  0  0  0  0  0  0  0
    6.0091    9.2966   26.3072 H   0  0  0  0  0  0  0  0  0  0  0  0
   10.8009   13.5292   23.8870 H   0  0  0  0  0  0  0  0  0  0  0  0
  1 12  1  0  0  0  0
  1 13  3  0  0  0  0
  2  5  1  0  0  0  0
  2  6  2  0  0  0  0
  3  6  1  0  0  0  0
  3 14  2  0  0  0  0
  4  7  2  0  0  0  0
  4 15  1  0  0  0  0
  5  7  1  0  0  0  0
  5  8  2  0  0  0  0
  6  9  1  0  0  0  0
  7 10  1  0  0  0  0
  8 14  1  0  0  0  0
  8 15  1  0  0  0  0
  9 16  1  0  0  0  0
  9 17  2  0  0  0  0
 11 12  1  1  0  0  0
 12 16  1  0  0  0  0
  2 18  1  0  0  0  0
  3 19  1  0  0  0  0
  4 20  1  0  0  0  0
 10 21  1  0  0  0  0
 10 22  1  0  0  0  0
 10 23  1  0  0  0  0
 11 24  1  0  0  0  0
 11 25  1  0  0  0  0
 11 26  1  0  0  0  0
 12 27  1  0  0  0  0
 15 28  1  0  0  0  0
 16 29  1  0  0  0  0
M  END
> <idnumber>
Z3542299488

> <heavy_atoms>
17

> <LogS>
-3.195

> <LogP>
0.815

> <rotating_bonds>
2

> <PSA>
81.57

> <hb_acceptors>
3

> <hb_donors>
2

> <Collection>
Functional

> <link>
https://www.enaminestore.com/catalog/Z3542299488

> <ROCS_ShapeQuery>
_x1140_x0812_0A_x1140_0A_x1097_0A_x0365_0A_x1097_0A_x0310_0A

> <ROCS_TanimotoCombo>
0.704 

> <ROCS_ShapeTanimoto>
0.259 

> <ROCS_ColorTanimoto>
0.444 

> <ROCS_RefTversky>
0.231 

> <ROCS_RefColorTversky>
0.581 

> <ROCS_RefTverskyCombo>
0.813 

> <ROCS_FitTversky>
1.872 

> <ROCS_FitColorTversky>
0.654 

> <ROCS_FitTverskyCombo>
2.526 

> <ROCS_ColorScore>
-4.622

> <ROCS_Overlap>
2373.330

> <ROCS_Rank>
2                   

$$$$
untitled-dbase-333919_135
  -OEChem-02092421083D

 44 46  0     0  0  0  0  0  0999 V2000
    8.6525   12.2807   24.1702 C   0  0  0  0  0  0  0  0  0  0  0  0
    7.6135   11.9268   25.0237 C   0  0  0  0  0  0  0  0  0  0  0  0
    9.0080    9.9708   23.7295 C   0  0  0  0  0  0  0  0  0  0  0  0
    9.3680   11.2901   23.5069 C   0  0  0  0  0  0  0  0  0  0  0  0
    7.3319   10.5790   25.1783 C   0  0  0  0  0  0  0  0  0  0  0  0
   10.4597   11.6294   22.6056 C   0  0  0  0  0  0  0  0  0  0  0  0
   12.6977   15.7273   23.6768 C   0  0  0  0  0  0  0  0  0  0  0  0
    4.3364   11.9063   26.1278 C   0  0  0  0  0  0  0  0  0  0  0  0
    4.1142   10.9182   27.2363 C   0  0  0  0  0  0  0  0  0  0  0  0
   12.3549   12.8007   25.3363 C   0  0  0  0  0  0  0  0  0  0  0  0
   12.0803   11.5012   24.5791 C   0  0  0  0  0  0  0  0  0  0  0  0
   13.4809   13.6370   24.7255 C   0  0  0  0  0  0  0  0  0  0  0  0
   12.8616   12.1467   22.3141 C   0  0  0  0  0  0  0  0  0  0  0  0
   12.9761   13.6685   22.2461 C   0  0  0  0  0  0  0  0  0  0  0  0
    5.5082   11.2107   26.7596 C   0  0  0  0  0  0  0  0  0  0  0  0
   12.8380   16.3166   25.0597 C   0  0  0  0  0  0  0  0  0  0  0  0
    8.0048    9.5883   24.5510 N   0  0  0  0  0  0  0  0  0  0  0  0
   11.7493   11.7219   23.1651 N   0  0  0  0  0  0  0  0  0  0  0  0
   13.0334   14.3733   23.5370 N   0  0  0  0  0  0  0  0  0  0  0  0
    6.2713   10.2345   26.0526 N   0  0  0  0  0  0  0  0  0  0  0  0
   10.2399   11.8254   21.4092 O   0  0  0  0  0  0  0  0  0  0  0  0
   12.3102   16.4454   22.7514 O   0  0  0  0  0  0  0  0  0  0  0  0
    8.8969   13.3302   24.0305 H   0  0  0  0  0  0  0  0  0  0  0  0
    7.0494   12.6935   25.5453 H   0  0  0  0  0  0  0  0  0  0  0  0
    9.5293    9.1530   23.2410 H   0  0  0  0  0  0  0  0  0  0  0  0
    4.0415   11.6146   25.1274 H   0  0  0  0  0  0  0  0  0  0  0  0
    4.1923   12.9562   26.3514 H   0  0  0  0  0  0  0  0  0  0  0  0
    3.8204   11.3039   28.2046 H   0  0  0  0  0  0  0  0  0  0  0  0
    3.6696    9.9649   26.9780 H   0  0  0  0  0  0  0  0  0  0  0  0
   11.4375   13.3980   25.4165 H   0  0  0  0  0  0  0  0  0  0  0  0
   12.6451   12.5468   26.3641 H   0  0  0  0  0  0  0  0  0  0  0  0
   12.9208   10.7939   24.6485 H   0  0  0  0  0  0  0  0  0  0  0  0
   11.2260   11.0006   25.0604 H   0  0  0  0  0  0  0  0  0  0  0  0
   13.8668   14.3199   25.4815 H   0  0  0  0  0  0  0  0  0  0  0  0
   14.3148   12.9947   24.4291 H   0  0  0  0  0  0  0  0  0  0  0  0
   12.7305   11.7562   21.3166 H   0  0  0  0  0  0  0  0  0  0  0  0
   13.7672   11.7367   22.7388 H   0  0  0  0  0  0  0  0  0  0  0  0
   13.8541   13.9764   21.6344 H   0  0  0  0  0  0  0  0  0  0  0  0
   12.1012   14.0594   21.6803 H   0  0  0  0  0  0  0  0  0  0  0  0
    6.1339   11.8076   27.4140 H   0  0  0  0  0  0  0  0  0  0  0  0
   13.8398   16.7170   25.1748 H   0  0  0  0  0  0  0  0  0  0  0  0
   12.6622   15.5396   25.7967 H   0  0  0  0  0  0  0  0  0  0  0  0
   12.1056   17.1077   25.1845 H   0  0  0  0  0  0  0  0  0  0  0  0
    6.0760    9.2598   26.1573 H   0  0  0  0  0  0  0  0  0  0  0  0
  1  2  2  0  0  0  0
  1  4  1  0  0  0  0
  2  5  1  0  0  0  0
  3  4  2  0  0  0  0
  3 17  1  0  0  0  0
  4  6  1  0  0  0  0
  5 17  2  0  0  0  0
  5 20  1  0  0  0  0
  6 18  1  0  0  0  0
  6 21  2  0  0  0  0
  7 16  1  0  0  0  0
  7 19  1  0  0  0  0
  7 22  2  0  0  0  0
  8  9  1  0  0  0  0
  8 15  1  0  0  0  0
  9 15  1  0  0  0  0
 10 11  1  0  0  0  0
 10 12  1  0  0  0  0
 11 18  1  0  0  0  0
 12 19  1  0  0  0  0
 13 14  1  0  0  0  0
 13 18  1  0  0  0  0
 14 19  1  0  0  0  0
 15 20  1  0  0  0  0
  1 23  1  0  0  0  0
  2 24  1  0  0  0  0
  3 25  1  0  0  0  0
  8 26  1  0  0  0  0
  8 27  1  0  0  0  0
  9 28  1  0  0  0  0
  9 29  1  0  0  0  0
 10 30  1  0  0  0  0
 10 31  1  0  0  0  0
 11 32  1  0  0  0  0
 11 33  1  0  0  0  0
 12 34  1  0  0  0  0
 12 35  1  0  0  0  0
 13 36  1  0  0  0  0
 13 37  1  0  0  0  0
 14 38  1  0  0  0  0
 14 39  1  0  0  0  0
 15 40  1  0  0  0  0
 16 41  1  0  0  0  0
 16 42  1  0  0  0  0
 16 43  1  0  0  0  0
 20 44  1  0  0  0  0
M  END
> <idnumber>
Z827414772

> <heavy_atoms>
22

> <LogS>
-2.37

> <LogP>
-0.011

> <rotating_bonds>
3

> <PSA>
65.54

> <hb_acceptors>
4

> <hb_donors>
1

> <Collection>
Legacy

> <link>
https://www.enaminestore.com/catalog/Z827414772

> <ROCS_ShapeQuery>
_x1140_x0812_0A_x1140_0A_x1097_0A_x0365_0A_x1097_0A_x0310_0A

> <ROCS_TanimotoCombo>
0.703 

> <ROCS_ShapeTanimoto>
0.244 

> <ROCS_ColorTanimoto>
0.458 

> <ROCS_RefTversky>
0.224 

> <ROCS_RefColorTversky>
0.557 

> <ROCS_RefTverskyCombo>
0.781 

> <ROCS_FitTversky>
1.573 

> <ROCS_FitColorTversky>
0.721 

> <ROCS_FitTverskyCombo>
2.294 

> <ROCS_ColorScore>
-4.401

> <ROCS_Overlap>
2302.617

> <ROCS_Rank>
3                   

$$$$
untitled-dbase-969241_8
  -OEChem-02092421083D

 36 37  0     0  0  0  0  0  0999 V2000
    6.4732   12.4709   25.9223 C   0  0  0  0  0  0  0  0  0  0  0  0
    8.5040   12.6357   24.2808 C   0  0  0  0  0  0  0  0  0  0  0  0
    9.1966   10.4350   23.6415 C   0  0  0  0  0  0  0  0  0  0  0  0
    5.8254   11.3556   26.4084 C   0  0  0  0  0  0  0  0  0  0  0  0
    7.5121   12.0235   25.0639 C   0  0  0  0  0  0  0  0  0  0  0  0
    9.3621   11.8108   23.5558 C   0  0  0  0  0  0  0  0  0  0  0  0
    7.4592   10.6327   25.0578 C   0  0  0  0  0  0  0  0  0  0  0  0
   13.0344   13.4798   22.1502 C   0  0  0  0  0  0  0  0  0  0  0  0
   11.4285   13.5408   20.2392 C   0  0  0  0  0  0  0  0  0  0  0  0
   12.4084   17.6131   22.7416 C   0  0  0  0  0  0  0  0  0  0  0  0
   10.5963   13.7689   22.6240 C   0  0  0  0  0  0  0  0  0  0  0  0
   11.9062   15.6539   21.5447 C   0  0  0  0  0  0  0  0  0  0  0  0
   11.7304   14.1215   21.6341 C   0  0  0  0  0  0  0  0  0  0  0  0
    8.2611    9.7915   24.3779 N   0  0  0  0  0  0  0  0  0  0  0  0
    6.4318   10.2466   25.8779 N   0  0  0  0  0  0  0  0  0  0  0  0
   10.3634   12.3565   22.7630 N   0  0  0  0  0  0  0  0  0  0  0  0
   12.2106   16.2084   22.8192 O   0  0  0  0  0  0  0  0  0  0  0  0
    6.2226   13.4952   26.1617 H   0  0  0  0  0  0  0  0  0  0  0  0
    8.5963   13.7170   24.2437 H   0  0  0  0  0  0  0  0  0  0  0  0
    9.8522    9.7680   23.0861 H   0  0  0  0  0  0  0  0  0  0  0  0
    4.9879   11.2525   27.0838 H   0  0  0  0  0  0  0  0  0  0  0  0
   13.2949   13.8610   23.1443 H   0  0  0  0  0  0  0  0  0  0  0  0
   13.8729   13.6988   21.4796 H   0  0  0  0  0  0  0  0  0  0  0  0
   12.9463   12.3906   22.2297 H   0  0  0  0  0  0  0  0  0  0  0  0
   10.5085   13.9619   19.8197 H   0  0  0  0  0  0  0  0  0  0  0  0
   12.2383   13.7530   19.5324 H   0  0  0  0  0  0  0  0  0  0  0  0
   11.3083   12.4526   20.2838 H   0  0  0  0  0  0  0  0  0  0  0  0
   12.6396   18.0047   23.7352 H   0  0  0  0  0  0  0  0  0  0  0  0
   11.5045   18.0883   22.3522 H   0  0  0  0  0  0  0  0  0  0  0  0
   13.2442   17.8177   22.0683 H   0  0  0  0  0  0  0  0  0  0  0  0
   10.8211   14.1521   23.6258 H   0  0  0  0  0  0  0  0  0  0  0  0
    9.6488   14.2173   22.3045 H   0  0  0  0  0  0  0  0  0  0  0  0
   10.9882   16.1278   21.1792 H   0  0  0  0  0  0  0  0  0  0  0  0
   12.7224   15.9187   20.8640 H   0  0  0  0  0  0  0  0  0  0  0  0
    6.1618    9.2906   26.0637 H   0  0  0  0  0  0  0  0  0  0  0  0
   10.9640   11.7153   22.2516 H   0  0  0  0  0  0  0  0  0  0  0  0
  1  4  2  0  0  0  0
  1  5  1  0  0  0  0
  2  5  1  0  0  0  0
  2  6  2  0  0  0  0
  3  6  1  0  0  0  0
  3 14  2  0  0  0  0
  4 15  1  0  0  0  0
  5  7  2  0  0  0  0
  6 16  1  0  0  0  0
  7 14  1  0  0  0  0
  7 15  1  0  0  0  0
  8 13  1  0  0  0  0
  9 13  1  0  0  0  0
 10 17  1  0  0  0  0
 11 13  1  0  0  0  0
 11 16  1  0  0  0  0
 12 13  1  0  0  0  0
 12 17  1  0  0  0  0
  1 18  1  0  0  0  0
  2 19  1  0  0  0  0
  3 20  1  0  0  0  0
  4 21  1  0  0  0  0
  8 22  1  0  0  0  0
  8 23  1  0  0  0  0
  8 24  1  0  0  0  0
  9 25  1  0  0  0  0
  9 26  1  0  0  0  0
  9 27  1  0  0  0  0
 10 28  1  0  0  0  0
 10 29  1  0  0  0  0
 10 30  1  0  0  0  0
 11 31  1  0  0  0  0
 11 32  1  0  0  0  0
 12 33  1  0  0  0  0
 12 34  1  0  0  0  0
 15 35  1  0  0  0  0
 16 36  1  0  0  0  0
M  END
> <idnumber>
Z2900814193

> <heavy_atoms>
17

> <LogS>
-2.545

> <LogP>
2.801

> <rotating_bonds>
5

> <PSA>
49.94

> <hb_acceptors>
3

> <hb_donors>
2

> <Collection>
HTS

> <link>
https://www.enaminestore.com/catalog/Z2900814193

> <ROCS_ShapeQuery>
_x1140_x0812_0A_x1140_0A_x1097_0A_x0365_0A_x1097_0A_x0310_0A

> <ROCS_TanimotoCombo>
0.700 

> <ROCS_ShapeTanimoto>
0.251 

> <ROCS_ColorTanimoto>
0.450 

> <ROCS_RefTversky>
0.225 

> <ROCS_RefColorTversky>
0.586 

> <ROCS_RefTverskyCombo>
0.811 

> <ROCS_FitTversky>
1.842 

> <ROCS_FitColorTversky>
0.659 

> <ROCS_FitTverskyCombo>
2.501 

> <ROCS_ColorScore>
-4.659

> <ROCS_Overlap>
2307.876

> <ROCS_Rank>
4                   

$$$$
untitled-dbase-425083_51
  -OEChem-02092421083D

 32 33  0     0  0  0  0  0  0999 V2000
   10.9585   15.1880   21.1703 C   0  0  0  0  0  0  0  0  0  0  0  0
   11.8333   14.2507   21.6629 C   0  0  0  0  0  0  0  0  0  0  0  0
    9.3465   11.8136   23.7149 C   0  0  0  0  0  0  0  0  0  0  0  0
    8.5147   12.5781   24.5074 C   0  0  0  0  0  0  0  0  0  0  0  0
    9.1113   10.4541   23.7400 C   0  0  0  0  0  0  0  0  0  0  0  0
   12.5423   14.9277   22.6733 C   0  0  0  0  0  0  0  0  0  0  0  0
    7.3973   10.7267   25.2079 C   0  0  0  0  0  0  0  0  0  0  0  0
   10.8816   11.9067   21.7200 C   0  0  0  0  0  0  0  0  0  0  0  0
    8.6716   14.0628   24.5632 C   0  0  0  0  0  0  0  0  0  0  0  0
   10.5042   17.5868   21.7338 C   0  0  0  0  0  0  0  0  0  0  0  0
   11.9825   12.8224   21.2084 C   0  0  0  0  0  0  0  0  0  0  0  0
    7.5262   12.0658   25.2694 N   0  0  0  0  0  0  0  0  0  0  0  0
    8.1418    9.8745   24.4779 N   0  0  0  0  0  0  0  0  0  0  0  0
   12.1518   16.1971   22.8152 N   0  0  0  0  0  0  0  0  0  0  0  0
   11.1880   16.3253   21.8875 N   0  0  0  0  0  0  0  0  0  0  0  0
   10.3598   12.3742   22.9385 N   0  0  0  0  0  0  0  0  0  0  0  0
   10.5309   10.9002   21.1124 O   0  0  0  0  0  0  0  0  0  0  0  0
    9.8849    9.6110   22.9855 O   0  0  0  0  0  0  0  0  0  0  0  0
    6.3993   10.1696   25.9733 O   0  0  0  0  0  0  0  0  0  0  0  0
   13.7681   14.2821   23.6516 Cl  0  0  0  0  0  0  0  0  0  0  0  0
   10.2107   15.1436   20.3901 H   0  0  0  0  0  0  0  0  0  0  0  0
    8.0547   14.5387   23.7925 H   0  0  0  0  0  0  0  0  0  0  0  0
    8.3731   14.4559   25.5427 H   0  0  0  0  0  0  0  0  0  0  0  0
    9.7167   14.3565   24.4060 H   0  0  0  0  0  0  0  0  0  0  0  0
    9.6361   17.5830   22.3981 H   0  0  0  0  0  0  0  0  0  0  0  0
   11.1829   18.4032   21.9962 H   0  0  0  0  0  0  0  0  0  0  0  0
   10.1900   17.7030   20.6928 H   0  0  0  0  0  0  0  0  0  0  0  0
   11.9904   12.7839   20.1116 H   0  0  0  0  0  0  0  0  0  0  0  0
   12.9515   12.4303   21.5425 H   0  0  0  0  0  0  0  0  0  0  0  0
   10.7780   13.2384   23.3032 H   0  0  0  0  0  0  0  0  0  0  0  0
    9.5938    8.6976   23.1138 H   0  0  0  0  0  0  0  0  0  0  0  0
    5.9333   10.8669   26.4517 H   0  0  0  0  0  0  0  0  0  0  0  0
  1  2  2  0  0  0  0
  1 15  1  0  0  0  0
  2  6  1  0  0  0  0
  2 11  1  0  0  0  0
  3  4  2  0  0  0  0
  3  5  1  0  0  0  0
  3 16  1  0  0  0  0
  4  9  1  0  0  0  0
  4 12  1  0  0  0  0
  5 13  2  0  0  0  0
  5 18  1  0  0  0  0
  6 14  2  0  0  0  0
  6 20  1  0  0  0  0
  7 12  2  0  0  0  0
  7 13  1  0  0  0  0
  7 19  1  0  0  0  0
  8 11  1  0  0  0  0
  8 16  1  0  0  0  0
  8 17  2  0  0  0  0
 10 15  1  0  0  0  0
 14 15  1  0  0  0  0
  1 21  1  0  0  0  0
  9 22  1  0  0  0  0
  9 23  1  0  0  0  0
  9 24  1  0  0  0  0
 10 25  1  0  0  0  0
 10 26  1  0  0  0  0
 10 27  1  0  0  0  0
 11 28  1  0  0  0  0
 11 29  1  0  0  0  0
 16 30  1  0  0  0  0
 18 31  1  0  0  0  0
 19 32  1  0  0  0  0
M  END
> <idnumber>
Z2222823437

> <heavy_atoms>
20

> <LogS>
-1.761

> <LogP>
1.604

> <rotating_bonds>
3

> <PSA>
113.16

> <hb_acceptors>
6

> <hb_donors>
3

> <Collection>
HTS

> <link>
https://www.enaminestore.com/catalog/Z2222823437

> <ROCS_ShapeQuery>
_x1140_x0812_0A_x1140_0A_x1097_0A_x0365_0A_x1097_0A_x0310_0A

> <ROCS_TanimotoCombo>
0.700 

> <ROCS_ShapeTanimoto>
0.258 

> <ROCS_ColorTanimoto>
0.442 

> <ROCS_RefTversky>
0.233 

> <ROCS_RefColorTversky>
0.716 

> <ROCS_RefTverskyCombo>
0.949 

> <ROCS_FitTversky>
1.709 

> <ROCS_FitColorTversky>
0.536 

> <ROCS_FitTverskyCombo>
2.245 

> <ROCS_ColorScore>
-5.833

> <ROCS_Overlap>
2394.290

> <ROCS_Rank>
5                   

$$$$
untitled-dbase-886601_48
  -OEChem-02092421083D

 32 33  0     0  0  0  0  0  0999 V2000
   11.2563   16.4664   21.8531 C   0  0  0  0  0  0  0  0  0  0  0  0
   10.9428   15.2593   21.2743 C   0  0  0  0  0  0  0  0  0  0  0  0
    9.3564   11.7158   23.8607 C   0  0  0  0  0  0  0  0  0  0  0  0
    8.4530   12.4790   24.5719 C   0  0  0  0  0  0  0  0  0  0  0  0
    9.1392   10.3533   23.8885 C   0  0  0  0  0  0  0  0  0  0  0  0
   12.6957   15.0869   22.5988 C   0  0  0  0  0  0  0  0  0  0  0  0
    7.3093   10.6211   25.2103 C   0  0  0  0  0  0  0  0  0  0  0  0
   10.6933   12.2028   21.7829 C   0  0  0  0  0  0  0  0  0  0  0  0
    8.5840   13.9665   24.6166 C   0  0  0  0  0  0  0  0  0  0  0  0
   13.8250   14.4511   23.3074 C   0  0  0  0  0  0  0  0  0  0  0  0
   11.9589   12.9647   21.4354 C   0  0  0  0  0  0  0  0  0  0  0  0
   12.3486   16.3525   22.6763 N   0  0  0  0  0  0  0  0  0  0  0  0
    7.4140   11.9627   25.2606 N   0  0  0  0  0  0  0  0  0  0  0  0
    8.1219    9.7698   24.5556 N   0  0  0  0  0  0  0  0  0  0  0  0
   11.8737   14.3855   21.7611 N   0  0  0  0  0  0  0  0  0  0  0  0
   10.4206   12.2803   23.1589 N   0  0  0  0  0  0  0  0  0  0  0  0
   10.0294   11.6140   20.9360 O   0  0  0  0  0  0  0  0  0  0  0  0
    9.9826    9.5113   23.2116 O   0  0  0  0  0  0  0  0  0  0  0  0
    6.2612   10.0600   25.9021 O   0  0  0  0  0  0  0  0  0  0  0  0
   10.7512   17.4117   21.7190 H   0  0  0  0  0  0  0  0  0  0  0  0
   10.1668   14.9589   20.5840 H   0  0  0  0  0  0  0  0  0  0  0  0
    8.0241   14.4216   23.7916 H   0  0  0  0  0  0  0  0  0  0  0  0
    8.2024   14.3693   25.5627 H   0  0  0  0  0  0  0  0  0  0  0  0
    9.6340   14.2739   24.5387 H   0  0  0  0  0  0  0  0  0  0  0  0
   13.5086   14.0623   24.2887 H   0  0  0  0  0  0  0  0  0  0  0  0
   14.2512   13.6105   22.7344 H   0  0  0  0  0  0  0  0  0  0  0  0
   14.6554   15.1571   23.4775 H   0  0  0  0  0  0  0  0  0  0  0  0
   12.8088   12.5420   21.9834 H   0  0  0  0  0  0  0  0  0  0  0  0
   12.1646   12.8747   20.3627 H   0  0  0  0  0  0  0  0  0  0  0  0
   11.0941   12.8240   23.7118 H   0  0  0  0  0  0  0  0  0  0  0  0
    9.6950    8.5955   23.3308 H   0  0  0  0  0  0  0  0  0  0  0  0
    5.7486   10.7570   26.3307 H   0  0  0  0  0  0  0  0  0  0  0  0
  1  2  2  0  0  0  0
  1 12  1  0  0  0  0
  2 15  1  0  0  0  0
  3  4  1  0  0  0  0
  3  5  2  0  0  0  0
  3 16  1  0  0  0  0
  4  9  1  0  0  0  0
  4 13  2  0  0  0  0
  5 14  1  0  0  0  0
  5 18  1  0  0  0  0
  6 10  1  0  0  0  0
  6 12  2  0  0  0  0
  6 15  1  0  0  0  0
  7 13  1  0  0  0  0
  7 14  2  0  0  0  0
  7 19  1  0  0  0  0
  8 11  1  0  0  0  0
  8 16  1  0  0  0  0
  8 17  2  0  0  0  0
 11 15  1  0  0  0  0
  1 20  1  0  0  0  0
  2 21  1  0  0  0  0
  9 22  1  0  0  0  0
  9 23  1  0  0  0  0
  9 24  1  0  0  0  0
 10 25  1  0  0  0  0
 10 26  1  0  0  0  0
 10 27  1  0  0  0  0
 11 28  1  0  0  0  0
 11 29  1  0  0  0  0
 16 30  1  0  0  0  0
 18 31  1  0  0  0  0
 19 32  1  0  0  0  0
M  END
> <idnumber>
Z2302773997

> <heavy_atoms>
19

> <LogS>
-0.589

> <LogP>
1.011

> <rotating_bonds>
3

> <PSA>
113.16

> <hb_acceptors>
6

> <hb_donors>
3

> <Collection>
Advanced

> <link>
https://www.enaminestore.com/catalog/Z2302773997

> <ROCS_ShapeQuery>
_x1140_x0812_0A_x1140_0A_x1097_0A_x0365_0A_x1097_0A_x0310_0A

> <ROCS_TanimotoCombo>
0.699 

> <ROCS_ShapeTanimoto>
0.259 

> <ROCS_ColorTanimoto>
0.440 

> <ROCS_RefTversky>
0.233 

> <ROCS_RefColorTversky>
0.747 

> <ROCS_RefTverskyCombo>
0.980 

> <ROCS_FitTversky>
1.749 

> <ROCS_FitColorTversky>
0.517 

> <ROCS_FitTverskyCombo>
2.266 

> <ROCS_ColorScore>
-6.123

> <ROCS_Overlap>
2394.569

> <ROCS_Rank>
6                   

$$$$
untitled-dbase-1028396_58
  -OEChem-02092421083D

 31 33  0     0  0  0  0  0  0999 V2000
    6.3485   12.3969   25.9273 C   0  0  0  0  0  0  0  0  0  0  0  0
    8.3227   12.4130   24.2103 C   0  0  0  0  0  0  0  0  0  0  0  0
    8.9736   10.1623   23.7185 C   0  0  0  0  0  0  0  0  0  0  0  0
    5.7082   11.3294   26.5190 C   0  0  0  0  0  0  0  0  0  0  0  0
    7.3531   11.8736   25.0710 C   0  0  0  0  0  0  0  0  0  0  0  0
    9.1480   11.5256   23.5220 C   0  0  0  0  0  0  0  0  0  0  0  0
    7.2880   10.4871   25.1734 C   0  0  0  0  0  0  0  0  0  0  0  0
   10.1872   12.0270   22.6037 C   0  0  0  0  0  0  0  0  0  0  0  0
   11.9888   15.8621   23.7207 C   0  0  0  0  0  0  0  0  0  0  0  0
   12.3259   13.5047   22.6126 C   0  0  0  0  0  0  0  0  0  0  0  0
   11.2190   13.4586   24.4493 C   0  0  0  0  0  0  0  0  0  0  0  0
   12.3209   14.3724   23.8847 C   0  0  0  0  0  0  0  0  0  0  0  0
   11.1480   16.4907   24.7987 C   0  0  0  0  0  0  0  0  0  0  0  0
    8.0586    9.5875   24.5333 N   0  0  0  0  0  0  0  0  0  0  0  0
    6.2863   10.1763   26.0550 N   0  0  0  0  0  0  0  0  0  0  0  0
   11.1532   12.8384   23.1408 N   0  0  0  0  0  0  0  0  0  0  0  0
   10.1434   11.6789   21.4262 O   0  0  0  0  0  0  0  0  0  0  0  0
   12.3920   16.5107   22.7564 O   0  0  0  0  0  0  0  0  0  0  0  0
    6.1153   13.4391   26.0958 H   0  0  0  0  0  0  0  0  0  0  0  0
    8.4231   13.4873   24.0874 H   0  0  0  0  0  0  0  0  0  0  0  0
    9.6050    9.4474   23.1954 H   0  0  0  0  0  0  0  0  0  0  0  0
    4.8933   11.2873   27.2279 H   0  0  0  0  0  0  0  0  0  0  0  0
   12.1252   14.0298   21.6708 H   0  0  0  0  0  0  0  0  0  0  0  0
   13.2025   12.8568   22.5012 H   0  0  0  0  0  0  0  0  0  0  0  0
   11.5392   12.7803   25.2480 H   0  0  0  0  0  0  0  0  0  0  0  0
   10.2792   13.9500   24.7294 H   0  0  0  0  0  0  0  0  0  0  0  0
   13.2591   14.2685   24.4485 H   0  0  0  0  0  0  0  0  0  0  0  0
   11.7947   16.8922   25.5838 H   0  0  0  0  0  0  0  0  0  0  0  0
   10.4886   15.7365   25.2354 H   0  0  0  0  0  0  0  0  0  0  0  0
   10.5586   17.3071   24.3744 H   0  0  0  0  0  0  0  0  0  0  0  0
    6.0153    9.2398   26.3208 H   0  0  0  0  0  0  0  0  0  0  0  0
  1  4  2  0  0  0  0
  1  5  1  0  0  0  0
  2  5  1  0  0  0  0
  2  6  2  0  0  0  0
  3  6  1  0  0  0  0
  3 14  2  0  0  0  0
  4 15  1  0  0  0  0
  5  7  2  0  0  0  0
  6  8  1  0  0  0  0
  7 14  1  0  0  0  0
  7 15  1  0  0  0  0
  8 16  1  0  0  0  0
  8 17  2  0  0  0  0
  9 12  1  0  0  0  0
  9 13  1  0  0  0  0
  9 18  2  0  0  0  0
 10 12  1  0  0  0  0
 10 16  1  0  0  0  0
 11 12  1  0  0  0  0
 11 16  1  0  0  0  0
  1 19  1  0  0  0  0
  2 20  1  0  0  0  0
  3 21  1  0  0  0  0
  4 22  1  0  0  0  0
 10 23  1  0  0  0  0
 10 24  1  0  0  0  0
 11 25  1  0  0  0  0
 11 26  1  0  0  0  0
 12 27  1  0  0  0  0
 13 28  1  0  0  0  0
 13 29  1  0  0  0  0
 13 30  1  0  0  0  0
 15 31  1  0  0  0  0
M  END
> <idnumber>
Z3368128972

> <heavy_atoms>
18

> <LogS>
-3.002

> <LogP>
0.724

> <rotating_bonds>
2

> <PSA>
66.06

> <hb_acceptors>
3

> <hb_donors>
1

> <Collection>
Advanced

> <link>
https://www.enaminestore.com/catalog/Z3368128972

> <ROCS_ShapeQuery>
_x1140_x0812_0A_x1140_0A_x1097_0A_x0365_0A_x1097_0A_x0310_0A

> <ROCS_TanimotoCombo>
0.697 

> <ROCS_ShapeTanimoto>
0.266 

> <ROCS_ColorTanimoto>
0.430 

> <ROCS_RefTversky>
0.238 

> <ROCS_RefColorTversky>
0.568 

> <ROCS_RefTverskyCombo>
0.806 

> <ROCS_FitTversky>
1.839 

> <ROCS_FitColorTversky>
0.639 

> <ROCS_FitTverskyCombo>
2.478 

> <ROCS_ColorScore>
-4.519

> <ROCS_Overlap>
2437.557

> <ROCS_Rank>
7                   

$$$$
untitled-dbase-1131878_15
  -OEChem-02092421083D

 35 36  0     0  0  0  0  0  0999 V2000
   10.9951    8.8728   22.4712 C   0  0  0  0  0  0  0  0  0  0  0  0
   10.2131    9.5648   23.0641 C   0  0  0  0  0  0  0  0  0  0  0  0
    8.4701   12.4749   24.5710 C   0  0  0  0  0  0  0  0  0  0  0  0
    7.3497   10.4237   25.0111 C   0  0  0  0  0  0  0  0  0  0  0  0
    9.2827   10.3882   23.7700 C   0  0  0  0  0  0  0  0  0  0  0  0
    9.4303   11.7629   23.8608 C   0  0  0  0  0  0  0  0  0  0  0  0
    7.4068   11.8000   25.1602 C   0  0  0  0  0  0  0  0  0  0  0  0
    9.6484   14.2518   21.8628 C   0  0  0  0  0  0  0  0  0  0  0  0
   11.8695   13.1333   21.3649 C   0  0  0  0  0  0  0  0  0  0  0  0
   10.3907   15.4309   22.4880 C   0  0  0  0  0  0  0  0  0  0  0  0
   12.6017   14.3240   21.9810 C   0  0  0  0  0  0  0  0  0  0  0  0
   10.4550   12.9510   21.9256 C   0  0  0  0  0  0  0  0  0  0  0  0
   11.7803   15.6076   21.8816 C   0  0  0  0  0  0  0  0  0  0  0  0
   13.5218   17.1838   21.8080 C   0  0  0  0  0  0  0  0  0  0  0  0
    8.2635    9.6978   24.3288 N   0  0  0  0  0  0  0  0  0  0  0  0
   10.4891   12.4301   23.2734 N   0  0  0  0  0  0  0  0  0  0  0  0
   12.4477   16.6574   22.5738 O   0  0  0  0  0  0  0  0  0  0  0  0
    6.2038   12.6436   26.0446 Cl  0  0  0  0  0  0  0  0  0  0  0  0
   11.6890    8.2593   21.9456 H   0  0  0  0  0  0  0  0  0  0  0  0
    8.5528   13.5557   24.6638 H   0  0  0  0  0  0  0  0  0  0  0  0
    6.5444    9.8398   25.4464 H   0  0  0  0  0  0  0  0  0  0  0  0
    8.6755   14.1219   22.3519 H   0  0  0  0  0  0  0  0  0  0  0  0
    9.4368   14.4848   20.8112 H   0  0  0  0  0  0  0  0  0  0  0  0
   11.7992   13.2886   20.2804 H   0  0  0  0  0  0  0  0  0  0  0  0
   12.4590   12.2193   21.5065 H   0  0  0  0  0  0  0  0  0  0  0  0
    9.8103   16.3510   22.3457 H   0  0  0  0  0  0  0  0  0  0  0  0
   10.4693   15.3047   23.5750 H   0  0  0  0  0  0  0  0  0  0  0  0
   12.8433   14.1179   23.0315 H   0  0  0  0  0  0  0  0  0  0  0  0
   13.5681   14.4646   21.4816 H   0  0  0  0  0  0  0  0  0  0  0  0
    9.9310   12.1997   21.2993 H   0  0  0  0  0  0  0  0  0  0  0  0
   11.6844   15.9086   20.8315 H   0  0  0  0  0  0  0  0  0  0  0  0
   14.0107   17.9852   22.3674 H   0  0  0  0  0  0  0  0  0  0  0  0
   13.1397   17.5682   20.8589 H   0  0  0  0  0  0  0  0  0  0  0  0
   14.2429   16.3868   21.6122 H   0  0  0  0  0  0  0  0  0  0  0  0
   11.3363   12.5633   23.8091 H   0  0  0  0  0  0  0  0  0  0  0  0
  1  2  3  0  0  0  0
  2  5  1  0  0  0  0
  3  6  1  0  0  0  0
  3  7  2  0  0  0  0
  4  7  1  0  0  0  0
  4 15  2  0  0  0  0
  5  6  2  0  0  0  0
  5 15  1  0  0  0  0
  6 16  1  0  0  0  0
  7 18  1  0  0  0  0
  8 10  1  0  0  0  0
  8 12  1  0  0  0  0
  9 11  1  0  0  0  0
  9 12  1  0  0  0  0
 10 13  1  0  0  0  0
 11 13  1  0  0  0  0
 12 16  1  0  0  0  0
 13 17  1  0  0  0  0
 14 17  1  0  0  0  0
  1 19  1  0  0  0  0
  3 20  1  0  0  0  0
  4 21  1  0  0  0  0
  8 22  1  0  0  0  0
  8 23  1  0  0  0  0
  9 24  1  0  0  0  0
  9 25  1  0  0  0  0
 10 26  1  0  0  0  0
 10 27  1  0  0  0  0
 11 28  1  0  0  0  0
 11 29  1  0  0  0  0
 12 30  1  0  0  0  0
 13 31  1  0  0  0  0
 14 32  1  0  0  0  0
 14 33  1  0  0  0  0
 14 34  1  0  0  0  0
 16 35  1  0  0  0  0
M  END
> <idnumber>
Z5698504955

> <heavy_atoms>
18

> <LogS>
-2.807

> <LogP>
2.89

> <rotating_bonds>
3

> <PSA>
34.15

> <hb_acceptors>
3

> <hb_donors>
1

> <Collection>
Advanced

> <link>
https://www.enaminestore.com/catalog/Z5698504955

> <ROCS_ShapeQuery>
_x1140_x0812_0A_x1140_0A_x1097_0A_x0365_0A_x1097_0A_x0310_0A

> <ROCS_TanimotoCombo>
0.695 

> <ROCS_ShapeTanimoto>
0.255 

> <ROCS_ColorTanimoto>
0.441 

> <ROCS_RefTversky>
0.228 

> <ROCS_RefColorTversky>
0.542 

> <ROCS_RefTverskyCombo>
0.770 

> <ROCS_FitTversky>
1.834 

> <ROCS_FitColorTversky>
0.702 

> <ROCS_FitTverskyCombo>
2.536 

> <ROCS_ColorScore>
-4.282

> <ROCS_Overlap>
2340.893

> <ROCS_Rank>
8                   

$$$$
untitled-dbase-917538_8
  -OEChem-02092421083D

 42 43  0     0  0  0  0  0  0999 V2000
    8.4925   12.5323   24.2155 C   0  0  0  0  0  0  0  0  0  0  0  0
    7.5702   12.1111   25.1669 C   0  0  0  0  0  0  0  0  0  0  0  0
    9.2687   11.5938   23.5446 C   0  0  0  0  0  0  0  0  0  0  0  0
    7.4633   10.7510   25.4089 C   0  0  0  0  0  0  0  0  0  0  0  0
    9.0858   10.2569   23.8593 C   0  0  0  0  0  0  0  0  0  0  0  0
   10.2386   12.0488   22.5408 C   0  0  0  0  0  0  0  0  0  0  0  0
   10.4458   15.8297   22.5135 C   0  0  0  0  0  0  0  0  0  0  0  0
   10.8489   15.8952   23.9878 C   0  0  0  0  0  0  0  0  0  0  0  0
   11.6180   15.7345   21.5345 C   0  0  0  0  0  0  0  0  0  0  0  0
   11.8686   14.8657   24.4712 C   0  0  0  0  0  0  0  0  0  0  0  0
   11.8497   14.3326   20.9633 C   0  0  0  0  0  0  0  0  0  0  0  0
   11.4264   13.4098   24.3258 C   0  0  0  0  0  0  0  0  0  0  0  0
   12.2935   13.2639   21.9646 C   0  0  0  0  0  0  0  0  0  0  0  0
    6.4837   10.2632   26.4235 C   0  0  0  0  0  0  0  0  0  0  0  0
    9.4158    7.9685   22.9213 C   0  0  0  0  0  0  0  0  0  0  0  0
    8.1999    9.8097   24.7773 N   0  0  0  0  0  0  0  0  0  0  0  0
   11.2637   12.9189   22.9478 N   0  0  0  0  0  0  0  0  0  0  0  0
    9.8739    9.2942   23.1795 N   0  0  0  0  0  0  0  0  0  0  0  0
   10.0760   11.6212   21.3984 O   0  0  0  0  0  0  0  0  0  0  0  0
    8.5974   13.5935   24.0057 H   0  0  0  0  0  0  0  0  0  0  0  0
    6.9581   12.8331   25.6965 H   0  0  0  0  0  0  0  0  0  0  0  0
    9.7266   15.0202   22.3477 H   0  0  0  0  0  0  0  0  0  0  0  0
    9.8930   16.7533   22.2951 H   0  0  0  0  0  0  0  0  0  0  0  0
   11.2634   16.8922   24.1864 H   0  0  0  0  0  0  0  0  0  0  0  0
    9.9412   15.8202   24.5997 H   0  0  0  0  0  0  0  0  0  0  0  0
   11.3925   16.3885   20.6816 H   0  0  0  0  0  0  0  0  0  0  0  0
   12.5412   16.1280   21.9742 H   0  0  0  0  0  0  0  0  0  0  0  0
   12.8424   15.0355   24.0014 H   0  0  0  0  0  0  0  0  0  0  0  0
   12.0392   15.0506   25.5403 H   0  0  0  0  0  0  0  0  0  0  0  0
   10.9470   13.9998   20.4365 H   0  0  0  0  0  0  0  0  0  0  0  0
   12.6297   14.4112   20.1950 H   0  0  0  0  0  0  0  0  0  0  0  0
   12.1832   12.7631   24.7866 H   0  0  0  0  0  0  0  0  0  0  0  0
   10.5042   13.2651   24.8962 H   0  0  0  0  0  0  0  0  0  0  0  0
   12.5241   12.3516   21.3994 H   0  0  0  0  0  0  0  0  0  0  0  0
   13.2216   13.5468   22.4709 H   0  0  0  0  0  0  0  0  0  0  0  0
    5.5136   10.0653   25.9522 H   0  0  0  0  0  0  0  0  0  0  0  0
    6.8336    9.3397   26.9021 H   0  0  0  0  0  0  0  0  0  0  0  0
    6.3390   11.0009   27.2231 H   0  0  0  0  0  0  0  0  0  0  0  0
    8.3993    7.8463   23.3237 H   0  0  0  0  0  0  0  0  0  0  0  0
    9.4043    7.7895   21.8360 H   0  0  0  0  0  0  0  0  0  0  0  0
   10.0906    7.2468   23.4048 H   0  0  0  0  0  0  0  0  0  0  0  0
   10.7820    9.5880   22.8838 H   0  0  0  0  0  0  0  0  0  0  0  0
  1  2  2  0  0  0  0
  1  3  1  0  0  0  0
  2  4  1  0  0  0  0
  3  5  2  0  0  0  0
  3  6  1  0  0  0  0
  4 14  1  0  0  0  0
  4 16  2  0  0  0  0
  5 16  1  0  0  0  0
  5 18  1  0  0  0  0
  6 17  1  0  0  0  0
  6 19  2  0  0  0  0
  7  8  1  0  0  0  0
  7  9  1  0  0  0  0
  8 10  1  0  0  0  0
  9 11  1  0  0  0  0
 10 12  1  0  0  0  0
 11 13  1  0  0  0  0
 12 17  1  0  0  0  0
 13 17  1  0  0  0  0
 15 18  1  0  0  0  0
  1 20  1  0  0  0  0
  2 21  1  0  0  0  0
  7 22  1  0  0  0  0
  7 23  1  0  0  0  0
  8 24  1  0  0  0  0
  8 25  1  0  0  0  0
  9 26  1  0  0  0  0
  9 27  1  0  0  0  0
 10 28  1  0  0  0  0
 10 29  1  0  0  0  0
 11 30  1  0  0  0  0
 11 31  1  0  0  0  0
 12 32  1  0  0  0  0
 12 33  1  0  0  0  0
 13 34  1  0  0  0  0
 13 35  1  0  0  0  0
 14 36  1  0  0  0  0
 14 37  1  0  0  0  0
 14 38  1  0  0  0  0
 15 39  1  0  0  0  0
 15 40  1  0  0  0  0
 15 41  1  0  0  0  0
 18 42  1  0  0  0  0
M  END
> <idnumber>
Z2523346630

> <heavy_atoms>
19

> <LogS>
-2.881

> <LogP>
2.873

> <rotating_bonds>
2

> <PSA>
45.23

> <hb_acceptors>
3

> <hb_donors>
1

> <Collection>
Advanced

> <link>
https://www.enaminestore.com/catalog/Z2523346630

> <ROCS_ShapeQuery>
_x1140_x0812_0A_x1140_0A_x1097_0A_x0365_0A_x1097_0A_x0310_0A

> <ROCS_TanimotoCombo>
0.694 

> <ROCS_ShapeTanimoto>
0.262 

> <ROCS_ColorTanimoto>
0.433 

> <ROCS_RefTversky>
0.234 

> <ROCS_RefColorTversky>
0.465 

> <ROCS_RefTverskyCombo>
0.699 

> <ROCS_FitTversky>
1.817 

> <ROCS_FitColorTversky>
0.863 

> <ROCS_FitTverskyCombo>
2.680 

> <ROCS_ColorScore>
-3.625

> <ROCS_Overlap>
2401.816

> <ROCS_Rank>
9                   

$$$$
untitled-dbase-565881_9
  -OEChem-02092421083D

 32 33  0     0  0  0  0  0  0999 V2000
    8.1727   12.3772   23.8270 C   0  0  0  0  0  0  0  0  0  0  0  0
    7.2382   11.9468   24.7622 C   0  0  0  0  0  0  0  0  0  0  0  0
    9.0168   10.1560   23.7253 C   0  0  0  0  0  0  0  0  0  0  0  0
    9.0825   11.4710   23.2937 C   0  0  0  0  0  0  0  0  0  0  0  0
    7.2549   10.6105   25.1279 C   0  0  0  0  0  0  0  0  0  0  0  0
   11.8203   15.5907   22.7722 C   0  0  0  0  0  0  0  0  0  0  0  0
   10.0800   11.8948   22.3030 C   0  0  0  0  0  0  0  0  0  0  0  0
   10.8745   15.0512   23.8260 C   0  0  0  0  0  0  0  0  0  0  0  0
   11.8692   14.8327   21.4609 C   0  0  0  0  0  0  0  0  0  0  0  0
   11.0612   13.5478   23.9799 C   0  0  0  0  0  0  0  0  0  0  0  0
   12.0029   13.3367   21.7148 C   0  0  0  0  0  0  0  0  0  0  0  0
    5.7885   11.0519   27.0977 C   0  0  0  0  0  0  0  0  0  0  0  0
    8.1232    9.7007   24.6318 N   0  0  0  0  0  0  0  0  0  0  0  0
   10.9926   12.8845   22.6713 N   0  0  0  0  0  0  0  0  0  0  0  0
    6.2973   10.1878   26.0831 N   0  0  0  0  0  0  0  0  0  0  0  0
   12.4304   16.6467   22.9312 O   0  0  0  0  0  0  0  0  0  0  0  0
   10.0259   11.3417   21.2057 O   0  0  0  0  0  0  0  0  0  0  0  0
    8.1841   13.4201   23.5221 H   0  0  0  0  0  0  0  0  0  0  0  0
    6.5240   12.6472   25.1834 H   0  0  0  0  0  0  0  0  0  0  0  0
    9.7004    9.4023   23.3459 H   0  0  0  0  0  0  0  0  0  0  0  0
   11.0804   15.5502   24.7786 H   0  0  0  0  0  0  0  0  0  0  0  0
    9.8498   15.2921   23.5238 H   0  0  0  0  0  0  0  0  0  0  0  0
   10.9530   15.0550   20.9033 H   0  0  0  0  0  0  0  0  0  0  0  0
   12.7237   15.1875   20.8756 H   0  0  0  0  0  0  0  0  0  0  0  0
   12.0498   13.3262   24.4001 H   0  0  0  0  0  0  0  0  0  0  0  0
   10.3164   13.1521   24.6746 H   0  0  0  0  0  0  0  0  0  0  0  0
   11.9178   12.7884   20.7712 H   0  0  0  0  0  0  0  0  0  0  0  0
   12.9847   13.1059   22.1452 H   0  0  0  0  0  0  0  0  0  0  0  0
    6.2515   12.0449   27.0005 H   0  0  0  0  0  0  0  0  0  0  0  0
    4.6978   11.1437   26.9879 H   0  0  0  0  0  0  0  0  0  0  0  0
    6.0234   10.6332   28.0875 H   0  0  0  0  0  0  0  0  0  0  0  0
    5.9872    9.2399   26.0169 H   0  0  0  0  0  0  0  0  0  0  0  0
  1  2  2  0  0  0  0
  1  4  1  0  0  0  0
  2  5  1  0  0  0  0
  3  4  2  0  0  0  0
  3 13  1  0  0  0  0
  4  7  1  0  0  0  0
  5 13  2  0  0  0  0
  5 15  1  0  0  0  0
  6  8  1  0  0  0  0
  6  9  1  0  0  0  0
  6 16  2  0  0  0  0
  7 14  1  0  0  0  0
  7 17  2  0  0  0  0
  8 10  1  0  0  0  0
  9 11  1  0  0  0  0
 10 14  1  0  0  0  0
 11 14  1  0  0  0  0
 12 15  1  0  0  0  0
  1 18  1  0  0  0  0
  2 19  1  0  0  0  0
  3 20  1  0  0  0  0
  8 21  1  0  0  0  0
  8 22  1  0  0  0  0
  9 23  1  0  0  0  0
  9 24  1  0  0  0  0
 10 25  1  0  0  0  0
 10 26  1  0  0  0  0
 11 27  1  0  0  0  0
 11 28  1  0  0  0  0
 12 29  1  0  0  0  0
 12 30  1  0  0  0  0
 12 31  1  0  0  0  0
 15 32  1  0  0  0  0
M  END
> <idnumber>
Z1937846200

> <heavy_atoms>
17

> <LogS>
-1.758

> <LogP>
0.165

> <rotating_bonds>
2

> <PSA>
62.3

> <hb_acceptors>
4

> <hb_donors>
1

> <Collection>
Advanced

> <link>
https://www.enaminestore.com/catalog/Z1937846200

> <ROCS_ShapeQuery>
_x1140_x0812_0A_x1140_0A_x1097_0A_x0365_0A_x1097_0A_x0310_0A

> <ROCS_TanimotoCombo>
0.694 

> <ROCS_ShapeTanimoto>
0.245 

> <ROCS_ColorTanimoto>
0.449 

> <ROCS_RefTversky>
0.221 

> <ROCS_RefColorTversky>
0.549 

> <ROCS_RefTverskyCombo>
0.770 

> <ROCS_FitTversky>
1.805 

> <ROCS_FitColorTversky>
0.711 

> <ROCS_FitTverskyCombo>
2.516 

> <ROCS_ColorScore>
-4.339

> <ROCS_Overlap>
2263.385

> <ROCS_Rank>
10                  

$$$$
untitled-dbase-112102_108
  -OEChem-02092421083D

 35 36  0     0  0  0  0  0  0999 V2000
    7.3639   11.9329   25.0771 C   0  0  0  0  0  0  0  0  0  0  0  0
    8.2217   12.3320   24.0581 C   0  0  0  0  0  0  0  0  0  0  0  0
    7.3592   10.5940   25.4337 C   0  0  0  0  0  0  0  0  0  0  0  0
    9.0370   11.3933   23.4357 C   0  0  0  0  0  0  0  0  0  0  0  0
   11.6576   15.7820   22.7310 C   0  0  0  0  0  0  0  0  0  0  0  0
   12.2494   14.7229   22.0886 C   0  0  0  0  0  0  0  0  0  0  0  0
    8.9575   10.0786   23.8659 C   0  0  0  0  0  0  0  0  0  0  0  0
   13.5920   16.3864   22.1691 C   0  0  0  0  0  0  0  0  0  0  0  0
    9.9283   11.8203   22.3659 C   0  0  0  0  0  0  0  0  0  0  0  0
   10.3110   15.8745   23.3126 C   0  0  0  0  0  0  0  0  0  0  0  0
   14.8652   17.0759   21.9094 C   0  0  0  0  0  0  0  0  0  0  0  0
    9.7793    7.7373   23.6035 C   0  0  0  0  0  0  0  0  0  0  0  0
   11.8270   13.3269   21.7326 C   0  0  0  0  0  0  0  0  0  0  0  0
    8.1366    9.6532   24.8523 N   0  0  0  0  0  0  0  0  0  0  0  0
   12.5228   16.8449   22.7798 N   0  0  0  0  0  0  0  0  0  0  0  0
    9.7837    9.1150   23.2345 N   0  0  0  0  0  0  0  0  0  0  0  0
   10.8877   12.7857   22.6885 N   0  0  0  0  0  0  0  0  0  0  0  0
    9.8090   11.3496   21.2220 O   0  0  0  0  0  0  0  0  0  0  0  0
   13.5041   15.1044   21.7201 O   0  0  0  0  0  0  0  0  0  0  0  0
    6.7183   12.6472   25.5751 H   0  0  0  0  0  0  0  0  0  0  0  0
    8.2457   13.3762   23.7578 H   0  0  0  0  0  0  0  0  0  0  0  0
    6.7081   10.2320   26.2226 H   0  0  0  0  0  0  0  0  0  0  0  0
   10.3059   15.5586   24.3711 H   0  0  0  0  0  0  0  0  0  0  0  0
    9.9062   16.9028   23.2735 H   0  0  0  0  0  0  0  0  0  0  0  0
    9.5776   15.2438   22.7766 H   0  0  0  0  0  0  0  0  0  0  0  0
   15.5807   16.9245   22.7367 H   0  0  0  0  0  0  0  0  0  0  0  0
   15.3517   16.7219   20.9823 H   0  0  0  0  0  0  0  0  0  0  0  0
   14.7328   18.1659   21.7818 H   0  0  0  0  0  0  0  0  0  0  0  0
    9.0573    7.5776   24.4178 H   0  0  0  0  0  0  0  0  0  0  0  0
    9.4932    7.1261   22.7348 H   0  0  0  0  0  0  0  0  0  0  0  0
   10.7843    7.4454   23.9422 H   0  0  0  0  0  0  0  0  0  0  0  0
   11.3527   13.3069   20.7453 H   0  0  0  0  0  0  0  0  0  0  0  0
   12.6896   12.6534   21.6927 H   0  0  0  0  0  0  0  0  0  0  0  0
   10.3822    9.4474   22.5066 H   0  0  0  0  0  0  0  0  0  0  0  0
   10.8999   13.1820   23.6226 H   0  0  0  0  0  0  0  0  0  0  0  0
  1  2  2  0  0  0  0
  1  3  1  0  0  0  0
  2  4  1  0  0  0  0
  3 14  2  0  0  0  0
  4  7  2  0  0  0  0
  4  9  1  0  0  0  0
  5  6  2  0  0  0  0
  5 10  1  0  0  0  0
  5 15  1  0  0  0  0
  6 13  1  0  0  0  0
  6 19  1  0  0  0  0
  7 14  1  0  0  0  0
  7 16  1  0  0  0  0
  8 11  1  0  0  0  0
  8 15  2  0  0  0  0
  8 19  1  0  0  0  0
  9 17  1  0  0  0  0
  9 18  2  0  0  0  0
 12 16  1  0  0  0  0
 13 17  1  0  0  0  0
  1 20  1  0  0  0  0
  2 21  1  0  0  0  0
  3 22  1  0  0  0  0
 10 23  1  0  0  0  0
 10 24  1  0  0  0  0
 10 25  1  0  0  0  0
 11 26  1  0  0  0  0
 11 27  1  0  0  0  0
 11 28  1  0  0  0  0
 12 29  1  0  0  0  0
 12 30  1  0  0  0  0
 12 31  1  0  0  0  0
 13 32  1  0  0  0  0
 13 33  1  0  0  0  0
 16 34  1  0  0  0  0
 17 35  1  0  0  0  0
M  END
> <idnumber>
Z3051968396

> <heavy_atoms>
19

> <LogS>
-1.269

> <LogP>
1.168

> <rotating_bonds>
4

> <PSA>
80.05

> <hb_acceptors>
4

> <hb_donors>
2

> <Collection>
HTS

> <link>
https://www.enaminestore.com/catalog/Z3051968396

> <ROCS_ShapeQuery>
_x1140_x0812_0A_x1140_0A_x1097_0A_x0365_0A_x1097_0A_x0310_0A

> <ROCS_TanimotoCombo>
0.694 

> <ROCS_ShapeTanimoto>
0.233 

> <ROCS_ColorTanimoto>
0.461 

> <ROCS_RefTversky>
0.214 

> <ROCS_RefColorTversky>
0.596 

> <ROCS_RefTverskyCombo>
0.809 

> <ROCS_FitTversky>
1.622 

> <ROCS_FitColorTversky>
0.672 

> <ROCS_FitTverskyCombo>
2.293 

> <ROCS_ColorScore>
-4.735

> <ROCS_Overlap>
2191.507

> <ROCS_Rank>
11                  

$$$$
untitled-dbase-107533_169
  -OEChem-02092421083D

 35 36  0     0  0  0  0  0  0999 V2000
    7.1174   11.7715   25.0176 C   0  0  0  0  0  0  0  0  0  0  0  0
   13.8143   16.8301   24.4572 C   0  0  0  0  0  0  0  0  0  0  0  0
    8.0188   12.3415   24.1255 C   0  0  0  0  0  0  0  0  0  0  0  0
   13.9059   15.5021   24.8588 C   0  0  0  0  0  0  0  0  0  0  0  0
   13.0284   17.1212   23.3539 C   0  0  0  0  0  0  0  0  0  0  0  0
    7.2281   10.4142   25.2730 C   0  0  0  0  0  0  0  0  0  0  0  0
    8.9896   11.5479   23.5245 C   0  0  0  0  0  0  0  0  0  0  0  0
   13.2185   14.5197   24.1548 C   0  0  0  0  0  0  0  0  0  0  0  0
   12.4591   14.9143   23.0651 C   0  0  0  0  0  0  0  0  0  0  0  0
    9.0166   10.2006   23.8469 C   0  0  0  0  0  0  0  0  0  0  0  0
    9.9260   12.1533   22.5875 C   0  0  0  0  0  0  0  0  0  0  0  0
   13.3124   13.0952   24.5802 C   0  0  0  0  0  0  0  0  0  0  0  0
   11.3999    9.6202   23.3906 C   0  0  0  0  0  0  0  0  0  0  0  0
   11.6965   13.8965   22.2672 C   0  0  0  0  0  0  0  0  0  0  0  0
   12.3460   16.1943   22.6449 N   0  0  0  0  0  0  0  0  0  0  0  0
    8.1577    9.6112   24.7087 N   0  0  0  0  0  0  0  0  0  0  0  0
   10.0018    9.3843   23.2363 N   0  0  0  0  0  0  0  0  0  0  0  0
   10.7363   13.1825   23.0779 N   0  0  0  0  0  0  0  0  0  0  0  0
    9.9699   11.7704   21.4060 O   0  0  0  0  0  0  0  0  0  0  0  0
    6.3514   12.3707   25.4965 H   0  0  0  0  0  0  0  0  0  0  0  0
   14.3402   17.6136   24.9905 H   0  0  0  0  0  0  0  0  0  0  0  0
    7.9547   13.4040   23.9063 H   0  0  0  0  0  0  0  0  0  0  0  0
   14.5142   15.2430   25.7211 H   0  0  0  0  0  0  0  0  0  0  0  0
   12.9242   18.1416   23.0000 H   0  0  0  0  0  0  0  0  0  0  0  0
    6.5490    9.9217   25.9612 H   0  0  0  0  0  0  0  0  0  0  0  0
   12.5222   12.8580   25.3040 H   0  0  0  0  0  0  0  0  0  0  0  0
   13.2138   12.4144   23.7240 H   0  0  0  0  0  0  0  0  0  0  0  0
   14.2841   12.8796   25.0451 H   0  0  0  0  0  0  0  0  0  0  0  0
   11.5553   10.4989   24.0338 H   0  0  0  0  0  0  0  0  0  0  0  0
   11.8714    8.7401   23.8522 H   0  0  0  0  0  0  0  0  0  0  0  0
   11.8517    9.8033   22.4045 H   0  0  0  0  0  0  0  0  0  0  0  0
   11.1534   14.3774   21.4463 H   0  0  0  0  0  0  0  0  0  0  0  0
   12.3727   13.1592   21.8219 H   0  0  0  0  0  0  0  0  0  0  0  0
    9.6700    8.6225   22.6814 H   0  0  0  0  0  0  0  0  0  0  0  0
   10.6147   13.4982   24.0346 H   0  0  0  0  0  0  0  0  0  0  0  0
  1  3  2  0  0  0  0
  1  6  1  0  0  0  0
  2  4  2  0  0  0  0
  2  5  1  0  0  0  0
  3  7  1  0  0  0  0
  4  8  1  0  0  0  0
  5 15  2  0  0  0  0
  6 16  2  0  0  0  0
  7 10  2  0  0  0  0
  7 11  1  0  0  0  0
  8  9  2  0  0  0  0
  8 12  1  0  0  0  0
  9 14  1  0  0  0  0
  9 15  1  0  0  0  0
 10 16  1  0  0  0  0
 10 17  1  0  0  0  0
 11 18  1  0  0  0  0
 11 19  2  0  0  0  0
 13 17  1  0  0  0  0
 14 18  1  0  0  0  0
  1 20  1  0  0  0  0
  2 21  1  0  0  0  0
  3 22  1  0  0  0  0
  4 23  1  0  0  0  0
  5 24  1  0  0  0  0
  6 25  1  0  0  0  0
 12 26  1  0  0  0  0
 12 27  1  0  0  0  0
 12 28  1  0  0  0  0
 13 29  1  0  0  0  0
 13 30  1  0  0  0  0
 13 31  1  0  0  0  0
 14 32  1  0  0  0  0
 14 33  1  0  0  0  0
 17 34  1  0  0  0  0
 18 35  1  0  0  0  0
M  END
> <idnumber>
Z1123709381

> <heavy_atoms>
19

> <LogS>
-1.974

> <LogP>
1.953

> <rotating_bonds>
4

> <PSA>
66.91

> <hb_acceptors>
4

> <hb_donors>
2

> <Collection>
Advanced

> <link>
https://www.enaminestore.com/catalog/Z1123709381

> <ROCS_ShapeQuery>
_x1140_x0812_0A_x1140_0A_x1097_0A_x0365_0A_x1097_0A_x0310_0A

> <ROCS_TanimotoCombo>
0.690 

> <ROCS_ShapeTanimoto>
0.242 

> <ROCS_ColorTanimoto>
0.448 

> <ROCS_RefTversky>
0.221 

> <ROCS_RefColorTversky>
0.584 

> <ROCS_RefTverskyCombo>
0.804 

> <ROCS_FitTversky>
1.682 

> <ROCS_FitColorTversky>
0.658 

> <ROCS_FitTverskyCombo>
2.340 

> <ROCS_ColorScore>
-4.640

> <ROCS_Overlap>
2265.790

> <ROCS_Rank>
12                  

$$$$
untitled-dbase-1139571_1
  -OEChem-02092421083D

 31 32  0     0  0  0  0  0  0999 V2000
    8.4002   12.5322   24.1033 C   0  0  0  0  0  0  0  0  0  0  0  0
    9.1793   11.5781   23.4581 C   0  0  0  0  0  0  0  0  0  0  0  0
    7.5376   12.1438   25.1222 C   0  0  0  0  0  0  0  0  0  0  0  0
    9.0596   10.2594   23.8661 C   0  0  0  0  0  0  0  0  0  0  0  0
    7.4913   10.7997   25.4556 C   0  0  0  0  0  0  0  0  0  0  0  0
   10.1003   12.0030   22.3726 C   0  0  0  0  0  0  0  0  0  0  0  0
   12.1193   15.1321   19.8295 C   0  0  0  0  0  0  0  0  0  0  0  0
   10.7332   14.5537   19.8453 C   0  0  0  0  0  0  0  0  0  0  0  0
   11.5026   14.6953   21.1378 C   0  0  0  0  0  0  0  0  0  0  0  0
   12.0319   13.4447   21.7842 C   0  0  0  0  0  0  0  0  0  0  0  0
   11.0678   15.7629   22.1038 C   0  0  0  0  0  0  0  0  0  0  0  0
    8.2328    9.8441   24.8517 N   0  0  0  0  0  0  0  0  0  0  0  0
    9.8514    9.2812   23.2140 N   0  0  0  0  0  0  0  0  0  0  0  0
   11.0858   12.9223   22.7240 N   0  0  0  0  0  0  0  0  0  0  0  0
    9.9422   11.5523   21.2410 O   0  0  0  0  0  0  0  0  0  0  0  0
   12.1994   16.2369   22.8246 O   0  0  0  0  0  0  0  0  0  0  0  0
    6.5814   13.3393   25.9104 Cl  0  0  0  0  0  0  0  0  0  0  0  0
    6.4716   10.1739   26.6945 Cl  0  0  0  0  0  0  0  0  0  0  0  0
    8.4691   13.5773   23.8095 H   0  0  0  0  0  0  0  0  0  0  0  0
   12.9112   14.5286   19.4019 H   0  0  0  0  0  0  0  0  0  0  0  0
   12.2195   16.1926   19.6312 H   0  0  0  0  0  0  0  0  0  0  0  0
    9.9052   15.2270   19.6574 H   0  0  0  0  0  0  0  0  0  0  0  0
   10.5969   13.5629   19.4281 H   0  0  0  0  0  0  0  0  0  0  0  0
   12.2196   12.7028   20.9999 H   0  0  0  0  0  0  0  0  0  0  0  0
   12.9663   13.6911   22.3008 H   0  0  0  0  0  0  0  0  0  0  0  0
   10.3393   15.3690   22.8241 H   0  0  0  0  0  0  0  0  0  0  0  0
   10.6143   16.6113   21.5753 H   0  0  0  0  0  0  0  0  0  0  0  0
   10.4322    9.5610   22.4541 H   0  0  0  0  0  0  0  0  0  0  0  0
    9.7382    8.3241   23.4677 H   0  0  0  0  0  0  0  0  0  0  0  0
   11.1069   13.2934   23.6747 H   0  0  0  0  0  0  0  0  0  0  0  0
   11.8758   16.9203   23.4329 H   0  0  0  0  0  0  0  0  0  0  0  0
  1  2  1  0  0  0  0
  1  3  2  0  0  0  0
  2  4  2  0  0  0  0
  2  6  1  0  0  0  0
  3  5  1  0  0  0  0
  3 17  1  0  0  0  0
  4 12  1  0  0  0  0
  4 13  1  0  0  0  0
  5 12  2  0  0  0  0
  5 18  1  0  0  0  0
  6 14  1  0  0  0  0
  6 15  2  0  0  0  0
  7  8  1  0  0  0  0
  7  9  1  0  0  0  0
  8  9  1  0  0  0  0
  9 10  1  0  0  0  0
  9 11  1  0  0  0  0
 10 14  1  0  0  0  0
 11 16  1  0  0  0  0
  1 19  1  0  0  0  0
  7 20  1  0  0  0  0
  7 21  1  0  0  0  0
  8 22  1  0  0  0  0
  8 23  1  0  0  0  0
 10 24  1  0  0  0  0
 10 25  1  0  0  0  0
 11 26  1  0  0  0  0
 11 27  1  0  0  0  0
 13 28  1  0  0  0  0
 13 29  1  0  0  0  0
 14 30  1  0  0  0  0
 16 31  1  0  0  0  0
M  END
> <idnumber>
Z6375138515

> <heavy_atoms>
18

> <LogS>
-3.227

> <LogP>
2.005

> <rotating_bonds>
4

> <PSA>
88.24

> <hb_acceptors>
4

> <hb_donors>
3

> <Collection>
Advanced

> <link>
https://www.enaminestore.com/catalog/Z6375138515

> <ROCS_ShapeQuery>
_x1140_x0812_0A_x1140_0A_x1097_0A_x0365_0A_x1097_0A_x0310_0A

> <ROCS_TanimotoCombo>
0.689 

> <ROCS_ShapeTanimoto>
0.254 

> <ROCS_ColorTanimoto>
0.435 

> <ROCS_RefTversky>
0.227 

> <ROCS_RefColorTversky>
0.607 

> <ROCS_RefTverskyCombo>
0.834 

> <ROCS_FitTversky>
1.833 

> <ROCS_FitColorTversky>
0.606 

> <ROCS_FitTverskyCombo>
2.439 

> <ROCS_ColorScore>
-4.854

> <ROCS_Overlap>
2332.737

> <ROCS_Rank>
13                  

$$$$
untitled-dbase-145071_14
  -OEChem-02092421083D

 27 28  0     0  0  0  0  0  0999 V2000
    8.6802   12.5770   24.6810 C   0  0  0  0  0  0  0  0  0  0  0  0
    7.6904   11.9904   25.4617 C   0  0  0  0  0  0  0  0  0  0  0  0
    8.9801   10.4882   23.5841 C   0  0  0  0  0  0  0  0  0  0  0  0
    9.3421   11.8185   23.7221 C   0  0  0  0  0  0  0  0  0  0  0  0
    7.4021   10.6524   25.2458 C   0  0  0  0  0  0  0  0  0  0  0  0
   10.6995   12.0321   21.6159 C   0  0  0  0  0  0  0  0  0  0  0  0
   11.6318   13.6256   19.8340 C   0  0  0  0  0  0  0  0  0  0  0  0
   11.6716   14.3576   21.1416 C   0  0  0  0  0  0  0  0  0  0  0  0
   11.8350   12.8821   21.1033 C   0  0  0  0  0  0  0  0  0  0  0  0
    5.2925   10.8157   26.5681 C   0  0  0  0  0  0  0  0  0  0  0  0
    8.0238    9.8834   24.3239 N   0  0  0  0  0  0  0  0  0  0  0  0
   10.3387   12.3786   22.9263 N   0  0  0  0  0  0  0  0  0  0  0  0
    6.3921   10.0688   26.0503 N   0  0  0  0  0  0  0  0  0  0  0  0
   10.1987   11.1618   20.9112 O   0  0  0  0  0  0  0  0  0  0  0  0
    8.9281   13.6247   24.8290 H   0  0  0  0  0  0  0  0  0  0  0  0
    7.1673   12.5754   26.2115 H   0  0  0  0  0  0  0  0  0  0  0  0
    9.4614    9.8448   22.8537 H   0  0  0  0  0  0  0  0  0  0  0  0
   10.6811   13.5673   19.3182 H   0  0  0  0  0  0  0  0  0  0  0  0
   12.4911   13.7129   19.1803 H   0  0  0  0  0  0  0  0  0  0  0  0
   12.5577   14.9382   21.3680 H   0  0  0  0  0  0  0  0  0  0  0  0
   10.7476   14.7928   21.5023 H   0  0  0  0  0  0  0  0  0  0  0  0
   12.7923   12.4568   21.3133 H   0  0  0  0  0  0  0  0  0  0  0  0
    5.3742   11.8631   26.2421 H   0  0  0  0  0  0  0  0  0  0  0  0
    4.3504   10.3880   26.1945 H   0  0  0  0  0  0  0  0  0  0  0  0
    5.3047   10.7719   27.6671 H   0  0  0  0  0  0  0  0  0  0  0  0
   10.8827   13.1437   23.3443 H   0  0  0  0  0  0  0  0  0  0  0  0
    6.4835    9.0928   26.2455 H   0  0  0  0  0  0  0  0  0  0  0  0
  1  2  2  0  0  0  0
  1  4  1  0  0  0  0
  2  5  1  0  0  0  0
  3  4  2  0  0  0  0
  3 11  1  0  0  0  0
  4 12  1  0  0  0  0
  5 11  2  0  0  0  0
  5 13  1  0  0  0  0
  6  9  1  0  0  0  0
  6 12  1  0  0  0  0
  6 14  2  0  0  0  0
  7  8  1  0  0  0  0
  7  9  1  0  0  0  0
  8  9  1  0  0  0  0
 10 13  1  0  0  0  0
  1 15  1  0  0  0  0
  2 16  1  0  0  0  0
  3 17  1  0  0  0  0
  7 18  1  0  0  0  0
  7 19  1  0  0  0  0
  8 20  1  0  0  0  0
  8 21  1  0  0  0  0
  9 22  1  0  0  0  0
 10 23  1  0  0  0  0
 10 24  1  0  0  0  0
 10 25  1  0  0  0  0
 12 26  1  0  0  0  0
 13 27  1  0  0  0  0
M  END
> <idnumber>
Z2394926725

> <heavy_atoms>
14

> <LogS>
-1.473

> <LogP>
1.547

> <rotating_bonds>
3

> <PSA>
54.02

> <hb_acceptors>
3

> <hb_donors>
2

> <Collection>
Advanced

> <link>
https://www.enaminestore.com/catalog/Z2394926725

> <ROCS_ShapeQuery>
_x1140_x0812_0A_x1140_0A_x1097_0A_x0365_0A_x1097_0A_x0310_0A

> <ROCS_TanimotoCombo>
0.688 

> <ROCS_ShapeTanimoto>
0.216 

> <ROCS_ColorTanimoto>
0.472 

> <ROCS_RefTversky>
0.197 

> <ROCS_RefColorTversky>
0.531 

> <ROCS_RefTverskyCombo>
0.728 

> <ROCS_FitTversky>
1.798 

> <ROCS_FitColorTversky>
0.810 

> <ROCS_FitTverskyCombo>
2.608 

> <ROCS_ColorScore>
-4.171

> <ROCS_Overlap>
2018.911

> <ROCS_Rank>
14                  

$$$$
untitled-dbase-1172836_58
  -OEChem-02092421083D

 30 31  0     0  0  0  0  0  0999 V2000
    8.4701   12.4614   24.3168 C   0  0  0  0  0  0  0  0  0  0  0  0
    6.4938   12.3580   26.0377 C   0  0  0  0  0  0  0  0  0  0  0  0
    7.4839   11.9070   25.1422 C   0  0  0  0  0  0  0  0  0  0  0  0
    9.2523   11.5768   23.5742 C   0  0  0  0  0  0  0  0  0  0  0  0
    9.0168   10.2108   23.6895 C   0  0  0  0  0  0  0  0  0  0  0  0
    7.3550   10.5271   25.1633 C   0  0  0  0  0  0  0  0  0  0  0  0
   10.2895   12.1090   22.7020 C   0  0  0  0  0  0  0  0  0  0  0  0
    9.8512    9.2527   22.8971 C   0  0  0  0  0  0  0  0  0  0  0  0
   12.3607   17.4115   23.5988 C   0  0  0  0  0  0  0  0  0  0  0  0
   11.8568   13.9060   22.7123 C   0  0  0  0  0  0  0  0  0  0  0  0
   11.5675   15.2052   23.4392 C   0  0  0  0  0  0  0  0  0  0  0  0
    5.7941   11.3576   26.5832 N   0  0  0  0  0  0  0  0  0  0  0  0
    8.0771    9.6277   24.4725 N   0  0  0  0  0  0  0  0  0  0  0  0
    6.3398   10.2578   26.0331 N   0  0  0  0  0  0  0  0  0  0  0  0
   10.3308   11.9336   21.4779 O   0  0  0  0  0  0  0  0  0  0  0  0
   11.2147   12.8301   23.4050 O   0  0  0  0  0  0  0  0  0  0  0  0
   12.2222   16.2714   22.7625 O   0  0  0  0  0  0  0  0  0  0  0  0
    8.6160   13.5354   24.2597 H   0  0  0  0  0  0  0  0  0  0  0  0
    6.2506   13.3735   26.3165 H   0  0  0  0  0  0  0  0  0  0  0  0
   10.7364    8.9609   23.4716 H   0  0  0  0  0  0  0  0  0  0  0  0
    9.2815    8.3516   22.6450 H   0  0  0  0  0  0  0  0  0  0  0  0
   10.1763    9.7035   21.9528 H   0  0  0  0  0  0  0  0  0  0  0  0
   12.8663   18.2088   23.0484 H   0  0  0  0  0  0  0  0  0  0  0  0
   12.9382   17.1447   24.4874 H   0  0  0  0  0  0  0  0  0  0  0  0
   11.3679   17.7534   23.9009 H   0  0  0  0  0  0  0  0  0  0  0  0
   12.9313   13.7004   22.6846 H   0  0  0  0  0  0  0  0  0  0  0  0
   11.4617   13.9414   21.6929 H   0  0  0  0  0  0  0  0  0  0  0  0
   11.9409   15.1737   24.4675 H   0  0  0  0  0  0  0  0  0  0  0  0
   10.4930   15.4105   23.4433 H   0  0  0  0  0  0  0  0  0  0  0  0
    5.9695    9.3534   26.2971 H   0  0  0  0  0  0  0  0  0  0  0  0
  1  3  2  0  0  0  0
  1  4  1  0  0  0  0
  2  3  1  0  0  0  0
  2 12  2  0  0  0  0
  3  6  1  0  0  0  0
  4  5  2  0  0  0  0
  4  7  1  0  0  0  0
  5  8  1  0  0  0  0
  5 13  1  0  0  0  0
  6 13  2  0  0  0  0
  6 14  1  0  0  0  0
  7 15  2  0  0  0  0
  7 16  1  0  0  0  0
  9 17  1  0  0  0  0
 10 11  1  0  0  0  0
 10 16  1  0  0  0  0
 11 17  1  0  0  0  0
 12 14  1  0  0  0  0
  1 18  1  0  0  0  0
  2 19  1  0  0  0  0
  8 20  1  0  0  0  0
  8 21  1  0  0  0  0
  8 22  1  0  0  0  0
  9 23  1  0  0  0  0
  9 24  1  0  0  0  0
  9 25  1  0  0  0  0
 10 26  1  0  0  0  0
 10 27  1  0  0  0  0
 11 28  1  0  0  0  0
 11 29  1  0  0  0  0
 14 30  1  0  0  0  0
M  END
> <idnumber>
Z8571455930

> <heavy_atoms>
18

> <LogS>
-2.598

> <LogP>
1.327

> <rotating_bonds>
5

> <PSA>
77.1

> <hb_acceptors>
4

> <hb_donors>
1

> <SaltType>
Cl

> <Collection>
Advanced

> <link>
https://www.enaminestore.com/catalog/Z8571455930

> <ROCS_ShapeQuery>
_x1140_x0812_0A_x1140_0A_x1097_0A_x0365_0A_x1097_0A_x0310_0A

> <ROCS_TanimotoCombo>
0.687 

> <ROCS_ShapeTanimoto>
0.284 

> <ROCS_ColorTanimoto>
0.403 

> <ROCS_RefTversky>
0.248 

> <ROCS_RefColorTversky>
0.543 

> <ROCS_RefTverskyCombo>
0.792 

> <ROCS_FitTversky>
2.006 

> <ROCS_FitColorTversky>
0.611 

> <ROCS_FitTverskyCombo>
2.616 

> <ROCS_ColorScore>
-4.318

> <ROCS_Overlap>
2549.309

> <ROCS_Rank>
15                  

$$$$
untitled-dbase-945297_44
  -OEChem-02092421083D

 30 31  0     0  0  0  0  0  0999 V2000
    8.6837   12.5773   24.6826 C   0  0  0  0  0  0  0  0  0  0  0  0
    7.6941   11.9914   25.4640 C   0  0  0  0  0  0  0  0  0  0  0  0
    8.9784   10.4894   23.5825 C   0  0  0  0  0  0  0  0  0  0  0  0
    9.3429   11.8189   23.7216 C   0  0  0  0  0  0  0  0  0  0  0  0
    7.4033   10.6542   25.2468 C   0  0  0  0  0  0  0  0  0  0  0  0
   10.6975   12.0329   21.6136 C   0  0  0  0  0  0  0  0  0  0  0  0
   12.8189   12.2496   20.1867 C   0  0  0  0  0  0  0  0  0  0  0  0
   11.8326   13.2489   19.6615 C   0  0  0  0  0  0  0  0  0  0  0  0
   11.8335   12.8817   21.1003 C   0  0  0  0  0  0  0  0  0  0  0  0
    4.3143   11.2617   25.8240 C   0  0  0  0  0  0  0  0  0  0  0  0
    5.4143   10.8470   26.7408 C   0  0  0  0  0  0  0  0  0  0  0  0
    8.0222    9.8853   24.3229 N   0  0  0  0  0  0  0  0  0  0  0  0
   10.3392   12.3784   22.9250 N   0  0  0  0  0  0  0  0  0  0  0  0
    6.3935   10.0712   26.0521 N   0  0  0  0  0  0  0  0  0  0  0  0
   10.1941   11.1643   20.9085 O   0  0  0  0  0  0  0  0  0  0  0  0
    8.9337   13.6244   24.8315 H   0  0  0  0  0  0  0  0  0  0  0  0
    7.1732   12.5763   26.2154 H   0  0  0  0  0  0  0  0  0  0  0  0
    9.4575    9.8461   22.8505 H   0  0  0  0  0  0  0  0  0  0  0  0
   12.6956   11.2156   19.8885 H   0  0  0  0  0  0  0  0  0  0  0  0
   13.8498   12.5653   20.2921 H   0  0  0  0  0  0  0  0  0  0  0  0
   12.1997   14.2373   19.4127 H   0  0  0  0  0  0  0  0  0  0  0  0
   11.0483   12.8856   19.0086 H   0  0  0  0  0  0  0  0  0  0  0  0
   12.1704   13.5946   21.8214 H   0  0  0  0  0  0  0  0  0  0  0  0
    3.8285   10.3679   25.4054 H   0  0  0  0  0  0  0  0  0  0  0  0
    3.5743   11.8530   26.3832 H   0  0  0  0  0  0  0  0  0  0  0  0
    4.7282   11.8706   25.0067 H   0  0  0  0  0  0  0  0  0  0  0  0
    5.8946   11.7458   27.1549 H   0  0  0  0  0  0  0  0  0  0  0  0
    4.9917   10.2466   27.5600 H   0  0  0  0  0  0  0  0  0  0  0  0
   10.8851   13.1420   23.3431 H   0  0  0  0  0  0  0  0  0  0  0  0
    6.3956    9.0740   26.1206 H   0  0  0  0  0  0  0  0  0  0  0  0
  1  2  2  0  0  0  0
  1  4  1  0  0  0  0
  2  5  1  0  0  0  0
  3  4  2  0  0  0  0
  3 12  1  0  0  0  0
  4 13  1  0  0  0  0
  5 12  2  0  0  0  0
  5 14  1  0  0  0  0
  6  9  1  0  0  0  0
  6 13  1  0  0  0  0
  6 15  2  0  0  0  0
  7  8  1  0  0  0  0
  7  9  1  0  0  0  0
  8  9  1  0  0  0  0
 10 11  1  0  0  0  0
 11 14  1  0  0  0  0
  1 16  1  0  0  0  0
  2 17  1  0  0  0  0
  3 18  1  0  0  0  0
  7 19  1  0  0  0  0
  7 20  1  0  0  0  0
  8 21  1  0  0  0  0
  8 22  1  0  0  0  0
  9 23  1  0  0  0  0
 10 24  1  0  0  0  0
 10 25  1  0  0  0  0
 10 26  1  0  0  0  0
 11 27  1  0  0  0  0
 11 28  1  0  0  0  0
 13 29  1  0  0  0  0
 14 30  1  0  0  0  0
M  END
> <idnumber>
Z2751535563

> <heavy_atoms>
15

> <LogS>
-1.778

> <LogP>
2.076

> <rotating_bonds>
4

> <PSA>
54.02

> <hb_acceptors>
3

> <hb_donors>
2

> <Collection>
Advanced

> <link>
https://www.enaminestore.com/catalog/Z2751535563

> <ROCS_ShapeQuery>
_x1140_x0812_0A_x1140_0A_x1097_0A_x0365_0A_x1097_0A_x0310_0A

> <ROCS_TanimotoCombo>
0.686 

> <ROCS_ShapeTanimoto>
0.214 

> <ROCS_ColorTanimoto>
0.472 

> <ROCS_RefTversky>
0.196 

> <ROCS_RefColorTversky>
0.531 

> <ROCS_RefTverskyCombo>
0.727 

> <ROCS_FitTversky>
1.731 

> <ROCS_FitColorTversky>
0.810 

> <ROCS_FitTverskyCombo>
2.541 

> <ROCS_ColorScore>
-4.171

> <ROCS_Overlap>
2008.503

> <ROCS_Rank>
16                  

$$$$
untitled-dbase-944562_51
  -OEChem-02092421083D

 37 38  0     1  0  0  0  0  0999 V2000
   11.7297   11.2474   22.6172 C   0  0  0  0  0  0  0  0  0  0  0  0
   12.3128   10.0390   22.6554 C   0  0  0  0  0  0  0  0  0  0  0  0
   10.2876   11.5188   22.4535 C   0  0  0  0  0  0  0  0  0  0  0  0
    7.1023   10.2050   25.1167 C   0  0  0  0  0  0  0  0  0  0  0  0
   14.3193    8.5089   22.2881 C   0  0  0  0  0  0  0  0  0  0  0  0
   14.6231    9.8065   21.6016 C   0  0  0  0  0  0  0  0  0  0  0  0
    8.1032   11.8606   23.5626 C   0  0  0  0  0  0  0  0  0  0  0  0
   10.0037   11.4478   24.9859 C   0  0  0  0  0  0  0  0  0  0  0  0
   13.7851    9.7829   22.8231 C   0  0  0  0  0  0  0  0  0  0  0  0
    7.5976   11.6144   24.9783 C   0  0  2  0  0  0  0  0  0  0  0  0
    8.8227   11.8566   25.8711 C   0  0  2  0  0  0  0  0  0  0  0  0
   11.4865    8.7859   22.5257 C   0  0  0  0  0  0  0  0  0  0  0  0
    8.9257   13.3218   26.2943 C   0  0  0  0  0  0  0  0  0  0  0  0
    9.5357   11.6018   23.6107 N   0  0  0  0  0  0  0  0  0  0  0  0
    6.1027   10.0575   26.0490 N   0  0  0  0  0  0  0  0  0  0  0  0
    9.8360   11.6505   21.3161 O   0  0  0  0  0  0  0  0  0  0  0  0
    7.5514    9.2855   24.4368 O   0  0  0  0  0  0  0  0  0  0  0  0
   12.4678   12.3722   22.7341 F   0  0  0  0  0  0  0  0  0  0  0  0
   13.6715    7.8084   21.7745 H   0  0  0  0  0  0  0  0  0  0  0  0
   15.1139    8.0431   22.8587 H   0  0  0  0  0  0  0  0  0  0  0  0
   15.6217   10.2123   21.7113 H   0  0  0  0  0  0  0  0  0  0  0  0
   14.1791    9.9757   20.6279 H   0  0  0  0  0  0  0  0  0  0  0  0
    7.6615   11.1765   22.8252 H   0  0  0  0  0  0  0  0  0  0  0  0
    7.9157   12.8868   23.2224 H   0  0  0  0  0  0  0  0  0  0  0  0
   10.8724   12.1069   25.1185 H   0  0  0  0  0  0  0  0  0  0  0  0
   10.3153   10.4129   25.1741 H   0  0  0  0  0  0  0  0  0  0  0  0
   14.1571   10.1797   23.7383 H   0  0  0  0  0  0  0  0  0  0  0  0
    6.7797   12.2974   25.2232 H   0  0  0  0  0  0  0  0  0  0  0  0
    8.7883   11.2364   26.7571 H   0  0  0  0  0  0  0  0  0  0  0  0
   11.3998    8.4973   21.4729 H   0  0  0  0  0  0  0  0  0  0  0  0
   11.9189    7.9378   23.0662 H   0  0  0  0  0  0  0  0  0  0  0  0
   10.4803    8.9533   22.9241 H   0  0  0  0  0  0  0  0  0  0  0  0
    8.9617   13.9651   25.4140 H   0  0  0  0  0  0  0  0  0  0  0  0
    9.8307   13.4798   26.8825 H   0  0  0  0  0  0  0  0  0  0  0  0
    8.0606   13.5998   26.8980 H   0  0  0  0  0  0  0  0  0  0  0  0
    5.7845   10.8771   26.5556 H   0  0  0  0  0  0  0  0  0  0  0  0
    5.6703    9.1619   26.2509 H   0  0  0  0  0  0  0  0  0  0  0  0
  1  2  2  0  0  0  0
  1  3  1  0  0  0  0
  1 18  1  4  0  0  0
  2  9  1  0  0  0  0
  2 12  1  0  0  0  0
  3 14  1  0  0  0  0
  3 16  2  0  0  0  0
  4 10  1  1  0  0  0
  4 15  1  0  0  0  0
  4 17  2  0  0  0  0
  5  6  1  0  0  0  0
  5  9  1  0  0  0  0
  6  9  1  0  0  0  0
  7 10  1  0  0  0  0
  7 14  1  0  0  0  0
  8 11  1  0  0  0  0
  8 14  1  0  0  0  0
 10 11  1  0  0  0  0
 11 13  1  6  0  0  0
  5 19  1  0  0  0  0
  5 20  1  0  0  0  0
  6 21  1  0  0  0  0
  6 22  1  0  0  0  0
  7 23  1  0  0  0  0
  7 24  1  0  0  0  0
  8 25  1  0  0  0  0
  8 26  1  0  0  0  0
  9 27  1  0  0  0  0
 10 28  1  0  0  0  0
 11 29  1  0  0  0  0
 12 30  1  0  0  0  0
 12 31  1  0  0  0  0
 12 32  1  0  0  0  0
 13 33  1  0  0  0  0
 13 34  1  0  0  0  0
 13 35  1  0  0  0  0
 15 36  1  0  0  0  0
 15 37  1  0  0  0  0
M  END
> <idnumber>
Z2739892641

> <heavy_atoms>
18

> <LogS>
-2.162

> <LogP>
1.53

> <rotating_bonds>
3

> <PSA>
63.4

> <hb_acceptors>
2

> <hb_donors>
1

> <Collection>
HTS

> <link>
https://www.enaminestore.com/catalog/Z2739892641

> <ROCS_ShapeQuery>
_x1140_x0812_0A_x1140_0A_x1097_0A_x0365_0A_x1097_0A_x0310_0A

> <ROCS_TanimotoCombo>
0.685 

> <ROCS_ShapeTanimoto>
0.201 

> <ROCS_ColorTanimoto>
0.484 

> <ROCS_RefTversky>
0.188 

> <ROCS_RefColorTversky>
0.540 

> <ROCS_RefTverskyCombo>
0.729 

> <ROCS_FitTversky>
1.508 

> <ROCS_FitColorTversky>
0.823 

> <ROCS_FitTverskyCombo>
2.332 

> <ROCS_ColorScore>
-4.241

> <ROCS_Overlap>
1933.293

> <ROCS_Rank>
17                  

$$$$
untitled-dbase-84090_31
  -OEChem-02092421083D

 33 34  0     0  0  0  0  0  0999 V2000
    8.5249   12.3678   24.4938 C   0  0  0  0  0  0  0  0  0  0  0  0
    7.5986   11.8755   25.3963 C   0  0  0  0  0  0  0  0  0  0  0  0
    9.0592   11.4896   23.5725 C   0  0  0  0  0  0  0  0  0  0  0  0
    7.2676   10.5376   25.3175 C   0  0  0  0  0  0  0  0  0  0  0  0
   10.0590   11.9458   22.5728 C   0  0  0  0  0  0  0  0  0  0  0  0
   13.0741   14.0693   22.9090 C   0  0  0  0  0  0  0  0  0  0  0  0
   11.2927   14.6901   21.2440 C   0  0  0  0  0  0  0  0  0  0  0  0
   12.7583   15.3800   23.6222 C   0  0  0  0  0  0  0  0  0  0  0  0
   11.0894   15.9701   22.0492 C   0  0  0  0  0  0  0  0  0  0  0  0
   11.8768   13.5645   22.1012 C   0  0  0  0  0  0  0  0  0  0  0  0
    5.2748   10.8381   26.7885 C   0  0  0  0  0  0  0  0  0  0  0  0
    8.7169   10.1850   23.5183 N   0  0  0  0  0  0  0  0  0  0  0  0
    7.8062    9.7012   24.4051 N   0  0  0  0  0  0  0  0  0  0  0  0
    6.3206   10.0352   26.2400 N   0  0  0  0  0  0  0  0  0  0  0  0
   10.8729   12.9934   22.9698 N   0  0  0  0  0  0  0  0  0  0  0  0
   10.0982   11.4020   21.4722 O   0  0  0  0  0  0  0  0  0  0  0  0
   12.3002   16.3623   22.6942 O   0  0  0  0  0  0  0  0  0  0  0  0
    8.8149   13.4129   24.5187 H   0  0  0  0  0  0  0  0  0  0  0  0
    7.1543   12.5323   26.1371 H   0  0  0  0  0  0  0  0  0  0  0  0
   13.9019   14.2458   22.2100 H   0  0  0  0  0  0  0  0  0  0  0  0
   13.4174   13.3141   23.6252 H   0  0  0  0  0  0  0  0  0  0  0  0
   10.3547   14.3819   20.7682 H   0  0  0  0  0  0  0  0  0  0  0  0
   12.0053   14.9006   20.4358 H   0  0  0  0  0  0  0  0  0  0  0  0
   12.0080   15.2412   24.4095 H   0  0  0  0  0  0  0  0  0  0  0  0
   13.6642   15.7694   24.0979 H   0  0  0  0  0  0  0  0  0  0  0  0
   10.7893   16.7837   21.3813 H   0  0  0  0  0  0  0  0  0  0  0  0
   10.2983   15.8518   22.7987 H   0  0  0  0  0  0  0  0  0  0  0  0
   12.2030   12.7402   21.4464 H   0  0  0  0  0  0  0  0  0  0  0  0
    5.3419   11.8574   26.3803 H   0  0  0  0  0  0  0  0  0  0  0  0
    4.3004   10.4011   26.5247 H   0  0  0  0  0  0  0  0  0  0  0  0
    5.3762   10.8743   27.8832 H   0  0  0  0  0  0  0  0  0  0  0  0
    6.4130    9.0737   26.5017 H   0  0  0  0  0  0  0  0  0  0  0  0
   10.7412   13.4352   23.8728 H   0  0  0  0  0  0  0  0  0  0  0  0
  1  2  2  0  0  0  0
  1  3  1  0  0  0  0
  2  4  1  0  0  0  0
  3  5  1  0  0  0  0
  3 12  2  0  0  0  0
  4 13  2  0  0  0  0
  4 14  1  0  0  0  0
  5 15  1  0  0  0  0
  5 16  2  0  0  0  0
  6  8  1  0  0  0  0
  6 10  1  0  0  0  0
  7  9  1  0  0  0  0
  7 10  1  0  0  0  0
  8 17  1  0  0  0  0
  9 17  1  0  0  0  0
 10 15  1  0  0  0  0
 11 14  1  0  0  0  0
 12 13  1  0  0  0  0
  1 18  1  0  0  0  0
  2 19  1  0  0  0  0
  6 20  1  0  0  0  0
  6 21  1  0  0  0  0
  7 22  1  0  0  0  0
  7 23  1  0  0  0  0
  8 24  1  0  0  0  0
  8 25  1  0  0  0  0
  9 26  1  0  0  0  0
  9 27  1  0  0  0  0
 10 28  1  0  0  0  0
 11 29  1  0  0  0  0
 11 30  1  0  0  0  0
 11 31  1  0  0  0  0
 14 32  1  0  0  0  0
 15 33  1  0  0  0  0
M  END
> <idnumber>
Z960207234

> <heavy_atoms>
17

> <LogS>
-1.769

> <LogP>
-0.209

> <rotating_bonds>
3

> <PSA>
76.14

> <hb_acceptors>
5

> <hb_donors>
2

> <Collection>
HTS

> <link>
https://www.enaminestore.com/catalog/Z960207234

> <ROCS_ShapeQuery>
_x1140_x0812_0A_x1140_0A_x1097_0A_x0365_0A_x1097_0A_x0310_0A

> <ROCS_TanimotoCombo>
0.685 

> <ROCS_ShapeTanimoto>
0.241 

> <ROCS_ColorTanimoto>
0.444 

> <ROCS_RefTversky>
0.218 

> <ROCS_RefColorTversky>
0.626 

> <ROCS_RefTverskyCombo>
0.844 

> <ROCS_FitTversky>
1.786 

> <ROCS_FitColorTversky>
0.604 

> <ROCS_FitTverskyCombo>
2.390 

> <ROCS_ColorScore>
-5.016

> <ROCS_Overlap>
2236.232

> <ROCS_Rank>
18                  

$$$$
untitled-dbase-1175259_7
  -OEChem-02092421083D

 24 24  0     0  0  0  0  0  0999 V2000
    8.7315   12.3585   24.4031 C   0  0  0  0  0  0  0  0  0  0  0  0
    7.6727   10.5589   25.5418 C   0  0  0  0  0  0  0  0  0  0  0  0
    9.2135   11.4455   23.4717 C   0  0  0  0  0  0  0  0  0  0  0  0
    7.9457   11.9149   25.4609 C   0  0  0  0  0  0  0  0  0  0  0  0
    8.8839   10.1105   23.6418 C   0  0  0  0  0  0  0  0  0  0  0  0
   10.0363   11.9082   22.3644 C   0  0  0  0  0  0  0  0  0  0  0  0
   10.8949    9.0607   22.5739 C   0  0  0  0  0  0  0  0  0  0  0  0
   11.6770   13.6349   21.5845 C   0  0  0  0  0  0  0  0  0  0  0  0
    9.3728    9.0827   22.6738 C   0  0  0  0  0  0  0  0  0  0  0  0
    8.1231    9.6420   24.6564 N   0  0  0  0  0  0  0  0  0  0  0  0
   10.8257   13.0414   22.5904 N   0  0  0  0  0  0  0  0  0  0  0  0
   10.0078   11.3204   21.2690 O   0  0  0  0  0  0  0  0  0  0  0  0
    7.4687   12.7706   26.3718 F   0  0  0  0  0  0  0  0  0  0  0  0
    8.9615   13.4166   24.3153 H   0  0  0  0  0  0  0  0  0  0  0  0
    7.0645   10.1624   26.3481 H   0  0  0  0  0  0  0  0  0  0  0  0
   11.2846   10.0425   22.2846 H   0  0  0  0  0  0  0  0  0  0  0  0
   11.2218    8.3321   21.8255 H   0  0  0  0  0  0  0  0  0  0  0  0
   11.3484    8.7885   23.5330 H   0  0  0  0  0  0  0  0  0  0  0  0
   12.6959   13.2321   21.6816 H   0  0  0  0  0  0  0  0  0  0  0  0
   11.2831   13.3985   20.5850 H   0  0  0  0  0  0  0  0  0  0  0  0
   11.6997   14.7262   21.7210 H   0  0  0  0  0  0  0  0  0  0  0  0
    9.0149    8.0833   22.9656 H   0  0  0  0  0  0  0  0  0  0  0  0
    8.9472    9.2665   21.6752 H   0  0  0  0  0  0  0  0  0  0  0  0
   10.7634   13.5198   23.4831 H   0  0  0  0  0  0  0  0  0  0  0  0
  1  3  1  0  0  0  0
  1  4  2  0  0  0  0
  2  4  1  0  0  0  0
  2 10  2  0  0  0  0
  3  5  2  0  0  0  0
  3  6  1  0  0  0  0
  4 13  1  0  0  0  0
  5  9  1  0  0  0  0
  5 10  1  0  0  0  0
  6 11  1  0  0  0  0
  6 12  2  0  0  0  0
  7  9  1  0  0  0  0
  8 11  1  0  0  0  0
  1 14  1  0  0  0  0
  2 15  1  0  0  0  0
  7 16  1  0  0  0  0
  7 17  1  0  0  0  0
  7 18  1  0  0  0  0
  8 19  1  0  0  0  0
  8 20  1  0  0  0  0
  8 21  1  0  0  0  0
  9 22  1  0  0  0  0
  9 23  1  0  0  0  0
 11 24  1  0  0  0  0
M  END
> <idnumber>
Z8661735596

> <heavy_atoms>
13

> <LogS>
-1.304

> <LogP>
1.018

> <rotating_bonds>
2

> <PSA>
41.99

> <hb_acceptors>
2

> <hb_donors>
1

> <Collection>
Advanced

> <link>
https://www.enaminestore.com/catalog/Z8661735596

> <ROCS_ShapeQuery>
_x1140_x0812_0A_x1140_0A_x1097_0A_x0365_0A_x1097_0A_x0310_0A

> <ROCS_TanimotoCombo>
0.685 

> <ROCS_ShapeTanimoto>
0.232 

> <ROCS_ColorTanimoto>
0.452 

> <ROCS_RefTversky>
0.208 

> <ROCS_RefColorTversky>
0.516 

> <ROCS_RefTverskyCombo>
0.724 

> <ROCS_FitTversky>
1.988 

> <ROCS_FitColorTversky>
0.786 

> <ROCS_FitTverskyCombo>
2.774 

> <ROCS_ColorScore>
-4.048

> <ROCS_Overlap>
2135.997

> <ROCS_Rank>
19                  

$$$$
untitled-dbase-958396_34
  -OEChem-02092421083D

 44 45  0     0  0  0  0  0  0999 V2000
    9.5791   13.9645   22.7156 C   0  0  0  0  0  0  0  0  0  0  0  0
   10.9474   13.4887   24.6491 C   0  0  0  0  0  0  0  0  0  0  0  0
   10.4205   15.0255   22.3812 C   0  0  0  0  0  0  0  0  0  0  0  0
   11.7889   14.5497   24.3147 C   0  0  0  0  0  0  0  0  0  0  0  0
    7.6297   12.0904   24.4876 C   0  0  0  0  0  0  0  0  0  0  0  0
    9.8424   13.1961   23.8496 C   0  0  0  0  0  0  0  0  0  0  0  0
   11.5254   15.3181   23.1807 C   0  0  0  0  0  0  0  0  0  0  0  0
    8.9717   12.0984   24.1957 C   0  0  0  0  0  0  0  0  0  0  0  0
    7.3336   10.7384   24.7451 C   0  0  0  0  0  0  0  0  0  0  0  0
    6.0296   10.1596   25.1104 C   0  0  0  0  0  0  0  0  0  0  0  0
    9.8930    8.6526   22.2820 C   0  0  0  0  0  0  0  0  0  0  0  0
   12.3659    8.8070   22.6861 C   0  0  0  0  0  0  0  0  0  0  0  0
   13.4578   16.5971   23.7154 C   0  0  0  0  0  0  0  0  0  0  0  0
   11.4882    9.9729   19.9850 C   0  0  0  0  0  0  0  0  0  0  0  0
   10.7751   10.2646   24.0660 C   0  0  0  0  0  0  0  0  0  0  0  0
   11.0409    9.5806   22.7005 C   0  0  0  0  0  0  0  0  0  0  0  0
    8.4016    9.9451   24.6270 N   0  0  0  0  0  0  0  0  0  0  0  0
    9.3819   10.8012   24.2920 N   0  0  0  0  0  0  0  0  0  0  0  0
    9.8520   11.4812   21.3563 O   0  0  0  0  0  0  0  0  0  0  0  0
   12.3318   11.6637   21.7911 O   0  0  0  0  0  0  0  0  0  0  0  0
   12.3465   16.3534   22.8543 O   0  0  0  0  0  0  0  0  0  0  0  0
   11.1617   10.8900   21.4623 S   0  0  0  0  0  0  0  0  0  0  0  0
    8.7218   13.7490   22.0822 H   0  0  0  0  0  0  0  0  0  0  0  0
   11.1661   12.8992   25.5363 H   0  0  0  0  0  0  0  0  0  0  0  0
   10.2102   15.6205   21.4966 H   0  0  0  0  0  0  0  0  0  0  0  0
   12.6481   14.7729   24.9413 H   0  0  0  0  0  0  0  0  0  0  0  0
    6.9606   12.9391   24.5113 H   0  0  0  0  0  0  0  0  0  0  0  0
    5.4592    9.8598   24.2146 H   0  0  0  0  0  0  0  0  0  0  0  0
    6.1346    9.2664   25.7518 H   0  0  0  0  0  0  0  0  0  0  0  0
    5.4036   10.8689   25.6810 H   0  0  0  0  0  0  0  0  0  0  0  0
    8.9346    9.1837   22.2847 H   0  0  0  0  0  0  0  0  0  0  0  0
    9.8066    7.7874   22.9470 H   0  0  0  0  0  0  0  0  0  0  0  0
   10.0469    8.2686   21.2666 H   0  0  0  0  0  0  0  0  0  0  0  0
   13.2019    9.4514   22.9824 H   0  0  0  0  0  0  0  0  0  0  0  0
   12.5959    8.4136   21.6909 H   0  0  0  0  0  0  0  0  0  0  0  0
   12.3408    7.9670   23.3891 H   0  0  0  0  0  0  0  0  0  0  0  0
   14.0299   17.4494   23.3407 H   0  0  0  0  0  0  0  0  0  0  0  0
   14.0918   15.7077   23.7541 H   0  0  0  0  0  0  0  0  0  0  0  0
   13.0876   16.8223   24.7184 H   0  0  0  0  0  0  0  0  0  0  0  0
   11.5817   10.6767   19.1564 H   0  0  0  0  0  0  0  0  0  0  0  0
   12.4177    9.4183   20.1224 H   0  0  0  0  0  0  0  0  0  0  0  0
   10.6560    9.2886   19.8135 H   0  0  0  0  0  0  0  0  0  0  0  0
   11.0093    9.5619   24.8785 H   0  0  0  0  0  0  0  0  0  0  0  0
   11.4884   11.0894   24.2064 H   0  0  0  0  0  0  0  0  0  0  0  0
  1  3  2  0  0  0  0
  1  6  1  0  0  0  0
  2  4  1  0  0  0  0
  2  6  2  0  0  0  0
  3  7  1  0  0  0  0
  4  7  2  0  0  0  0
  5  8  2  0  0  0  0
  5  9  1  0  0  0  0
  6  8  1  0  0  0  0
  7 21  1  0  0  0  0
  8 18  1  0  0  0  0
  9 10  1  0  0  0  0
  9 17  2  0  0  0  0
 11 16  1  0  0  0  0
 12 16  1  0  0  0  0
 13 21  1  0  0  0  0
 14 22  1  0  0  0  0
 15 16  1  0  0  0  0
 15 18  1  0  0  0  0
 16 22  1  0  0  0  0
 17 18  1  0  0  0  0
 19 22  2  0  0  0  0
 20 22  2  0  0  0  0
  1 23  1  0  0  0  0
  2 24  1  0  0  0  0
  3 25  1  0  0  0  0
  4 26  1  0  0  0  0
  5 27  1  0  0  0  0
 10 28  1  0  0  0  0
 10 29  1  0  0  0  0
 10 30  1  0  0  0  0
 11 31  1  0  0  0  0
 11 32  1  0  0  0  0
 11 33  1  0  0  0  0
 12 34  1  0  0  0  0
 12 35  1  0  0  0  0
 12 36  1  0  0  0  0
 13 37  1  0  0  0  0
 13 38  1  0  0  0  0
 13 39  1  0  0  0  0
 14 40  1  0  0  0  0
 14 41  1  0  0  0  0
 14 42  1  0  0  0  0
 15 43  1  0  0  0  0
 15 44  1  0  0  0  0
M  END
> <idnumber>
Z2790100144

> <heavy_atoms>
22

> <LogS>
-3.301

> <LogP>
2.223

> <rotating_bonds>
5

> <PSA>
61.19

> <hb_acceptors>
4

> <hb_donors>
0

> <Collection>
Advanced

> <link>
https://www.enaminestore.com/catalog/Z2790100144

> <ROCS_ShapeQuery>
_x1140_x0812_0A_x1140_0A_x1097_0A_x0365_0A_x1097_0A_x0310_0A

> <ROCS_TanimotoCombo>
0.684 

> <ROCS_ShapeTanimoto>
0.241 

> <ROCS_ColorTanimoto>
0.443 

> <ROCS_RefTversky>
0.222 

> <ROCS_RefColorTversky>
0.579 

> <ROCS_RefTverskyCombo>
0.801 

> <ROCS_FitTversky>
1.575 

> <ROCS_FitColorTversky>
0.653 

> <ROCS_FitTverskyCombo>
2.227 

> <ROCS_ColorScore>
-4.604

> <ROCS_Overlap>
2276.672

> <ROCS_Rank>
20                  

$$$$
untitled-dbase-390574_115
  -OEChem-02092421083D

 47 49  0     0  0  0  0  0  0999 V2000
   11.2430   17.1930   20.9479 C   0  0  0  0  0  0  0  0  0  0  0  0
   11.5177   15.8351   20.6584 C   0  0  0  0  0  0  0  0  0  0  0  0
    7.4953   11.8817   25.2034 C   0  0  0  0  0  0  0  0  0  0  0  0
    8.6074   12.5162   24.6990 C   0  0  0  0  0  0  0  0  0  0  0  0
    9.5933   11.7003   24.1559 C   0  0  0  0  0  0  0  0  0  0  0  0
    9.3950   10.3168   24.1575 C   0  0  0  0  0  0  0  0  0  0  0  0
   11.7528   17.4264   22.2040 C   0  0  0  0  0  0  0  0  0  0  0  0
   12.1760   15.3356   21.7580 C   0  0  0  0  0  0  0  0  0  0  0  0
    7.3597   10.4982   25.1740 C   0  0  0  0  0  0  0  0  0  0  0  0
    6.2843   12.4077   25.8375 C   0  0  0  0  0  0  0  0  0  0  0  0
   10.8640   12.3217   22.0554 C   0  0  0  0  0  0  0  0  0  0  0  0
    8.7485   13.9971   24.7325 C   0  0  0  0  0  0  0  0  0  0  0  0
   10.4387    9.4153   23.5800 C   0  0  0  0  0  0  0  0  0  0  0  0
   11.7941   18.6145   23.0680 C   0  0  0  0  0  0  0  0  0  0  0  0
    4.2248   11.2343   26.7734 C   0  0  0  0  0  0  0  0  0  0  0  0
   12.4868   12.4880   20.1510 C   0  0  0  0  0  0  0  0  0  0  0  0
   10.8387   12.2921   23.5828 C   0  0  0  0  0  0  0  0  0  0  0  0
   12.7372   13.9838   22.0924 C   0  0  0  0  0  0  0  0  0  0  0  0
    8.2974    9.6888   24.6551 N   0  0  0  0  0  0  0  0  0  0  0  0
    6.1386   10.1315   25.7513 N   0  0  0  0  0  0  0  0  0  0  0  0
    5.5148   11.2988   26.1403 N   0  0  0  0  0  0  0  0  0  0  0  0
   11.9851   12.9085   21.4573 N   0  0  0  0  0  0  0  0  0  0  0  0
    6.0559   13.5867   26.0324 O   0  0  0  0  0  0  0  0  0  0  0  0
    9.9265   11.8433   21.4108 O   0  0  0  0  0  0  0  0  0  0  0  0
   12.3233   16.2993   22.7046 O   0  0  0  0  0  0  0  0  0  0  0  0
   10.7364   17.9101   20.3180 H   0  0  0  0  0  0  0  0  0  0  0  0
   11.2659   15.2914   19.7590 H   0  0  0  0  0  0  0  0  0  0  0  0
    9.2390   14.3165   25.6616 H   0  0  0  0  0  0  0  0  0  0  0  0
    9.3437   14.3634   23.8844 H   0  0  0  0  0  0  0  0  0  0  0  0
    7.7709   14.4953   24.6694 H   0  0  0  0  0  0  0  0  0  0  0  0
   11.1567    9.1233   24.3543 H   0  0  0  0  0  0  0  0  0  0  0  0
    9.9882    8.5087   23.1592 H   0  0  0  0  0  0  0  0  0  0  0  0
   10.9818    9.9108   22.7665 H   0  0  0  0  0  0  0  0  0  0  0  0
   10.9050   18.6698   23.7212 H   0  0  0  0  0  0  0  0  0  0  0  0
   12.6853   18.6273   23.7225 H   0  0  0  0  0  0  0  0  0  0  0  0
   11.8358   19.5549   22.4875 H   0  0  0  0  0  0  0  0  0  0  0  0
    3.4369   11.2828   26.0073 H   0  0  0  0  0  0  0  0  0  0  0  0
    4.1367   10.2899   27.3305 H   0  0  0  0  0  0  0  0  0  0  0  0
    4.1142   12.0808   27.4670 H   0  0  0  0  0  0  0  0  0  0  0  0
   12.0012   13.0819   19.3626 H   0  0  0  0  0  0  0  0  0  0  0  0
   13.5750   12.6431   20.1090 H   0  0  0  0  0  0  0  0  0  0  0  0
   12.2622   11.4222   19.9978 H   0  0  0  0  0  0  0  0  0  0  0  0
   11.7142   11.7211   23.9309 H   0  0  0  0  0  0  0  0  0  0  0  0
   10.9609   13.3233   23.9513 H   0  0  0  0  0  0  0  0  0  0  0  0
   13.7793   13.9063   21.7637 H   0  0  0  0  0  0  0  0  0  0  0  0
   12.7233   13.8089   23.1733 H   0  0  0  0  0  0  0  0  0  0  0  0
    5.7572    9.2090   25.8753 H   0  0  0  0  0  0  0  0  0  0  0  0
  1  2  1  0  0  0  0
  1  7  2  0  0  0  0
  2  8  2  0  0  0  0
  3  4  1  0  0  0  0
  3  9  2  0  0  0  0
  3 10  1  0  0  0  0
  4  5  2  0  0  0  0
  4 12  1  0  0  0  0
  5  6  1  0  0  0  0
  5 17  1  0  0  0  0
  6 13  1  0  0  0  0
  6 19  2  0  0  0  0
  7 14  1  0  0  0  0
  7 25  1  0  0  0  0
  8 18  1  0  0  0  0
  8 25  1  0  0  0  0
  9 19  1  0  0  0  0
  9 20  1  0  0  0  0
 10 21  1  0  0  0  0
 10 23  2  0  0  0  0
 11 17  1  0  0  0  0
 11 22  1  0  0  0  0
 11 24  2  0  0  0  0
 15 21  1  0  0  0  0
 16 22  1  0  0  0  0
 18 22  1  0  0  0  0
 20 21  1  0  0  0  0
  1 26  1  0  0  0  0
  2 27  1  0  0  0  0
 12 28  1  0  0  0  0
 12 29  1  0  0  0  0
 12 30  1  0  0  0  0
 13 31  1  0  0  0  0
 13 32  1  0  0  0  0
 13 33  1  0  0  0  0
 14 34  1  0  0  0  0
 14 35  1  0  0  0  0
 14 36  1  0  0  0  0
 15 37  1  0  0  0  0
 15 38  1  0  0  0  0
 15 39  1  0  0  0  0
 16 40  1  0  0  0  0
 16 41  1  0  0  0  0
 16 42  1  0  0  0  0
 17 43  1  0  0  0  0
 17 44  1  0  0  0  0
 18 45  1  0  0  0  0
 18 46  1  0  0  0  0
 20 47  1  0  0  0  0
M  END
> <idnumber>
Z1143321626

> <heavy_atoms>
25

> <LogS>
-2.917

> <LogP>
0.172

> <rotating_bonds>
4

> <PSA>
78.68

> <hb_acceptors>
4

> <hb_donors>
1

> <Collection>
HTS

> <link>
https://www.enaminestore.com/catalog/Z1143321626

> <ROCS_ShapeQuery>
_x1140_x0812_0A_x1140_0A_x1097_0A_x0365_0A_x1097_0A_x0310_0A

> <ROCS_TanimotoCombo>
0.682 

> <ROCS_ShapeTanimoto>
0.282 

> <ROCS_ColorTanimoto>
0.400 

> <ROCS_RefTversky>
0.255 

> <ROCS_RefColorTversky>
0.572 

> <ROCS_RefTverskyCombo>
0.827 

> <ROCS_FitTversky>
1.609 

> <ROCS_FitColorTversky>
0.571 

> <ROCS_FitTverskyCombo>
2.180 

> <ROCS_ColorScore>
-4.580

> <ROCS_Overlap>
2619.861

> <ROCS_Rank>
21                  

$$$$
untitled-dbase-595739_52
  -OEChem-02092421083D

 40 41  0     1  0  0  0  0  0999 V2000
    6.1128    7.5140   28.1646 C   0  0  0  0  0  0  0  0  0  0  0  0
    5.0349    8.1404   28.6541 C   0  0  0  0  0  0  0  0  0  0  0  0
    6.1566    9.3536   26.7558 C   0  0  0  0  0  0  0  0  0  0  0  0
    7.5491    9.9377   25.0455 C   0  0  0  0  0  0  0  0  0  0  0  0
    9.5453   10.9165   22.8346 C   0  0  0  0  0  0  0  0  0  0  0  0
    7.3740   13.0652   24.9789 C   0  0  0  0  0  0  0  0  0  0  0  0
    8.1178   12.1887   25.9829 C   0  0  0  0  0  0  0  0  0  0  0  0
    8.1748   12.8898   23.6974 C   0  0  0  0  0  0  0  0  0  0  0  0
    8.5922   11.0101   25.1414 C   0  0  2  0  0  0  0  0  0  0  0  0
   11.0986    7.5108   23.0007 C   0  0  0  0  0  0  0  0  0  0  0  0
   12.0823    9.6007   21.9954 C   0  0  0  0  0  0  0  0  0  0  0  0
    7.9138    7.6144   26.4355 C   0  0  0  0  0  0  0  0  0  0  0  0
   10.8050    8.8405   22.3212 C   0  0  0  0  0  0  0  0  0  0  0  0
    6.4509   10.2048   25.8341 N   0  0  0  0  0  0  0  0  0  0  0  0
    6.7624    8.1598   27.1262 N   0  0  0  0  0  0  0  0  0  0  0  0
    8.7705   11.5584   23.8026 N   0  0  0  0  0  0  0  0  0  0  0  0
    9.9896    9.6495   23.1971 N   0  0  0  0  0  0  0  0  0  0  0  0
    7.7191    8.9581   24.3219 O   0  0  0  0  0  0  0  0  0  0  0  0
    9.8167   11.4313   21.7462 O   0  0  0  0  0  0  0  0  0  0  0  0
    4.7383    9.6423   27.8100 S   0  0  0  0  0  0  0  0  0  0  0  0
    6.5064    6.5673   28.5055 H   0  0  0  0  0  0  0  0  0  0  0  0
    4.4099    7.7848   29.4602 H   0  0  0  0  0  0  0  0  0  0  0  0
    6.3498   12.7004   24.8397 H   0  0  0  0  0  0  0  0  0  0  0  0
    7.3249   14.1096   25.3001 H   0  0  0  0  0  0  0  0  0  0  0  0
    8.9806   12.7355   26.3818 H   0  0  0  0  0  0  0  0  0  0  0  0
    7.4724   11.8986   26.8175 H   0  0  0  0  0  0  0  0  0  0  0  0
    7.5511   12.9654   22.8020 H   0  0  0  0  0  0  0  0  0  0  0  0
    8.9893   13.6196   23.6317 H   0  0  0  0  0  0  0  0  0  0  0  0
    9.5213   10.5653   25.5110 H   0  0  0  0  0  0  0  0  0  0  0  0
   11.6639    7.6623   23.9260 H   0  0  0  0  0  0  0  0  0  0  0  0
   10.1750    6.9758   23.2486 H   0  0  0  0  0  0  0  0  0  0  0  0
   11.6891    6.8614   22.3451 H   0  0  0  0  0  0  0  0  0  0  0  0
   12.6650    9.7882   22.9039 H   0  0  0  0  0  0  0  0  0  0  0  0
   11.8539   10.5670   21.5338 H   0  0  0  0  0  0  0  0  0  0  0  0
   12.7199    9.0356   21.3063 H   0  0  0  0  0  0  0  0  0  0  0  0
    7.5769    7.0123   25.5788 H   0  0  0  0  0  0  0  0  0  0  0  0
    8.5502    8.4372   26.0776 H   0  0  0  0  0  0  0  0  0  0  0  0
    8.4888    6.9798   27.1260 H   0  0  0  0  0  0  0  0  0  0  0  0
   10.2398    8.6648   21.3994 H   0  0  0  0  0  0  0  0  0  0  0  0
    9.7331    9.2823   24.1045 H   0  0  0  0  0  0  0  0  0  0  0  0
  1  2  2  0  0  0  0
  1 15  1  0  0  0  0
  2 20  1  0  0  0  0
  3 14  2  0  0  0  0
  3 15  1  0  0  0  0
  3 20  1  0  0  0  0
  4  9  1  1  0  0  0
  4 14  1  4  0  0  0
  4 18  2  0  0  0  0
  5 16  1  0  0  0  0
  5 17  1  0  0  0  0
  5 19  2  0  0  0  0
  6  7  1  0  0  0  0
  6  8  1  0  0  0  0
  7  9  1  0  0  0  0
  8 16  1  0  0  0  0
  9 16  1  0  0  0  0
 10 13  1  0  0  0  0
 11 13  1  0  0  0  0
 12 15  1  0  0  0  0
 13 17  1  0  0  0  0
  1 21  1  0  0  0  0
  2 22  1  0  0  0  0
  6 23  1  0  0  0  0
  6 24  1  0  0  0  0
  7 25  1  0  0  0  0
  7 26  1  0  0  0  0
  8 27  1  0  0  0  0
  8 28  1  0  0  0  0
  9 29  1  0  0  0  0
 10 30  1  0  0  0  0
 10 31  1  0  0  0  0
 10 32  1  0  0  0  0
 11 33  1  0  0  0  0
 11 34  1  0  0  0  0
 11 35  1  0  0  0  0
 12 36  1  0  0  0  0
 12 37  1  0  0  0  0
 12 38  1  0  0  0  0
 13 39  1  0  0  0  0
 17 40  1  0  0  0  0
M  END
> <idnumber>
Z1419887419

> <heavy_atoms>
20

> <LogS>
-2.571

> <LogP>
2.689

> <rotating_bonds>
2

> <PSA>
65.01

> <hb_acceptors>
4

> <hb_donors>
1

> <Collection>
HTS

> <link>
https://www.enaminestore.com/catalog/Z1419887419

> <ROCS_ShapeQuery>
_x1140_x0812_0A_x1140_0A_x1097_0A_x0365_0A_x1097_0A_x0310_0A

> <ROCS_TanimotoCombo>
0.682 

> <ROCS_ShapeTanimoto>
0.224 

> <ROCS_ColorTanimoto>
0.458 

> <ROCS_RefTversky>
0.208 

> <ROCS_RefColorTversky>
0.593 

> <ROCS_RefTverskyCombo>
0.800 

> <ROCS_FitTversky>
1.554 

> <ROCS_FitColorTversky>
0.668 

> <ROCS_FitTverskyCombo>
2.223 

> <ROCS_ColorScore>
-4.713

> <ROCS_Overlap>
2130.482

> <ROCS_Rank>
22                  

$$$$
untitled-dbase-944548_56
  -OEChem-02092421083D

 40 41  0     1  0  0  0  0  0999 V2000
    8.2801   12.3882   24.2506 C   0  0  0  0  0  0  0  0  0  0  0  0
    7.3458   11.8949   25.1544 C   0  0  0  0  0  0  0  0  0  0  0  0
    9.1324   11.5095   23.5911 C   0  0  0  0  0  0  0  0  0  0  0  0
    7.3043   10.5256   25.3618 C   0  0  0  0  0  0  0  0  0  0  0  0
    9.0111   10.1575   23.8687 C   0  0  0  0  0  0  0  0  0  0  0  0
   10.1167   12.0416   22.6354 C   0  0  0  0  0  0  0  0  0  0  0  0
   13.3267   15.8373   23.0284 C   0  0  0  0  0  0  0  0  0  0  0  0
   11.6914   14.0349   22.3812 C   0  0  0  0  0  0  0  0  0  0  0  0
   11.5935   12.8346   24.4632 C   0  0  0  0  0  0  0  0  0  0  0  0
   12.8973   14.4241   23.2407 C   0  0  2  0  0  0  0  0  0  0  0  0
   12.3937   14.1209   24.6650 C   0  0  2  0  0  0  0  0  0  0  0  0
    6.3140    9.9611   26.3249 C   0  0  0  0  0  0  0  0  0  0  0  0
   13.5033   13.9618   25.6936 C   0  0  0  0  0  0  0  0  0  0  0  0
    9.8349    7.8463   23.4157 C   0  0  0  0  0  0  0  0  0  0  0  0
    8.1157    9.6410   24.7400 N   0  0  0  0  0  0  0  0  0  0  0  0
   11.0550   12.9424   23.1155 N   0  0  0  0  0  0  0  0  0  0  0  0
   14.6730   16.0422   23.2175 N   0  0  0  0  0  0  0  0  0  0  0  0
    9.8769    9.2555   23.2003 N   0  0  0  0  0  0  0  0  0  0  0  0
   10.0357   11.6592   21.4698 O   0  0  0  0  0  0  0  0  0  0  0  0
   12.5355   16.7174   22.6984 O   0  0  0  0  0  0  0  0  0  0  0  0
    8.3347   13.4583   24.0686 H   0  0  0  0  0  0  0  0  0  0  0  0
    6.6746   12.5698   25.6745 H   0  0  0  0  0  0  0  0  0  0  0  0
   10.9623   14.8470   22.2766 H   0  0  0  0  0  0  0  0  0  0  0  0
   11.9885   13.7021   21.3816 H   0  0  0  0  0  0  0  0  0  0  0  0
   12.2240   11.9387   24.4965 H   0  0  0  0  0  0  0  0  0  0  0  0
   10.7843   12.7180   25.1910 H   0  0  0  0  0  0  0  0  0  0  0  0
   13.7596   13.7528   22.9879 H   0  0  0  0  0  0  0  0  0  0  0  0
   11.7114   14.9189   25.0032 H   0  0  0  0  0  0  0  0  0  0  0  0
    5.3754    9.7226   25.8105 H   0  0  0  0  0  0  0  0  0  0  0  0
    6.6951    9.0466   26.7968 H   0  0  0  0  0  0  0  0  0  0  0  0
    6.0977   10.6704   27.1341 H   0  0  0  0  0  0  0  0  0  0  0  0
   14.1941   13.1767   25.3826 H   0  0  0  0  0  0  0  0  0  0  0  0
   13.0810   13.6945   26.6633 H   0  0  0  0  0  0  0  0  0  0  0  0
   14.0568   14.8964   25.7966 H   0  0  0  0  0  0  0  0  0  0  0  0
    9.0515    7.6104   24.1509 H   0  0  0  0  0  0  0  0  0  0  0  0
    9.6122    7.3368   22.4666 H   0  0  0  0  0  0  0  0  0  0  0  0
   10.8090    7.5044   23.7956 H   0  0  0  0  0  0  0  0  0  0  0  0
   15.2541   15.2519   23.4768 H   0  0  0  0  0  0  0  0  0  0  0  0
   15.1089   16.9521   23.1080 H   0  0  0  0  0  0  0  0  0  0  0  0
   10.5316    9.6556   22.5602 H   0  0  0  0  0  0  0  0  0  0  0  0
  1  2  2  0  0  0  0
  1  3  1  0  0  0  0
  2  4  1  0  0  0  0
  3  5  2  0  0  0  0
  3  6  1  0  0  0  0
  4 12  1  0  0  0  0
  4 15  2  0  0  0  0
  5 15  1  0  0  0  0
  5 18  1  0  0  0  0
  6 16  1  0  0  0  0
  6 19  2  0  0  0  0
  7 10  1  6  0  0  0
  7 17  1  0  0  0  0
  7 20  2  0  0  0  0
  8 10  1  0  0  0  0
  8 16  1  0  0  0  0
  9 11  1  0  0  0  0
  9 16  1  0  0  0  0
 10 11  1  0  0  0  0
 11 13  1  1  0  0  0
 14 18  1  0  0  0  0
  1 21  1  0  0  0  0
  2 22  1  0  0  0  0
  8 23  1  0  0  0  0
  8 24  1  0  0  0  0
  9 25  1  0  0  0  0
  9 26  1  0  0  0  0
 10 27  1  0  0  0  0
 11 28  1  0  0  0  0
 12 29  1  0  0  0  0
 12 30  1  0  0  0  0
 12 31  1  0  0  0  0
 13 32  1  0  0  0  0
 13 33  1  0  0  0  0
 13 34  1  0  0  0  0
 14 35  1  0  0  0  0
 14 36  1  0  0  0  0
 14 37  1  0  0  0  0
 17 38  1  0  0  0  0
 17 39  1  0  0  0  0
 18 40  1  0  0  0  0
M  END
> <idnumber>
Z2739892545

> <heavy_atoms>
20

> <LogS>
-2.217

> <LogP>
0.384

> <rotating_bonds>
3

> <PSA>
88.32

> <hb_acceptors>
4

> <hb_donors>
2

> <Collection>
HTS

> <link>
https://www.enaminestore.com/catalog/Z2739892545

> <ROCS_ShapeQuery>
_x1140_x0812_0A_x1140_0A_x1097_0A_x0365_0A_x1097_0A_x0310_0A

> <ROCS_TanimotoCombo>
0.681 

> <ROCS_ShapeTanimoto>
0.261 

> <ROCS_ColorTanimoto>
0.420 

> <ROCS_RefTversky>
0.235 

> <ROCS_RefColorTversky>
0.558 

> <ROCS_RefTverskyCombo>
0.793 

> <ROCS_FitTversky>
1.744 

> <ROCS_FitColorTversky>
0.630 

> <ROCS_FitTverskyCombo>
2.373 

> <ROCS_ColorScore>
-4.438

> <ROCS_Overlap>
2410.366

> <ROCS_Rank>
23                  

$$$$
untitled-dbase-663214_47
  -OEChem-02092421083D

 38 39  0     0  0  0  0  0  0999 V2000
    7.5260   11.9784   25.2806 C   0  0  0  0  0  0  0  0  0  0  0  0
    8.5503   12.5664   24.5468 C   0  0  0  0  0  0  0  0  0  0  0  0
    9.4137   11.7677   23.8052 C   0  0  0  0  0  0  0  0  0  0  0  0
   12.2624   14.1940   21.8911 C   0  0  0  0  0  0  0  0  0  0  0  0
    7.4087   10.5984   25.2399 C   0  0  0  0  0  0  0  0  0  0  0  0
   11.5800   15.4134   22.0428 C   0  0  0  0  0  0  0  0  0  0  0  0
   13.4620   14.4122   22.5153 C   0  0  0  0  0  0  0  0  0  0  0  0
    9.2121   10.3972   23.8308 C   0  0  0  0  0  0  0  0  0  0  0  0
   10.6686   12.2669   21.6691 C   0  0  0  0  0  0  0  0  0  0  0  0
    8.6975   14.0529   24.5750 C   0  0  0  0  0  0  0  0  0  0  0  0
    6.3216    9.9334   26.0162 C   0  0  0  0  0  0  0  0  0  0  0  0
   10.2319   15.7659   21.5666 C   0  0  0  0  0  0  0  0  0  0  0  0
   14.6583   13.5911   22.7471 C   0  0  0  0  0  0  0  0  0  0  0  0
   12.5825   12.5340   20.0513 C   0  0  0  0  0  0  0  0  0  0  0  0
    8.2283    9.7897   24.5314 N   0  0  0  0  0  0  0  0  0  0  0  0
   12.3012   16.3186   22.7101 N   0  0  0  0  0  0  0  0  0  0  0  0
   10.4491   12.3408   23.0619 N   0  0  0  0  0  0  0  0  0  0  0  0
   11.8304   12.9734   21.2368 N   0  0  0  0  0  0  0  0  0  0  0  0
    9.9226   11.6591   20.8998 O   0  0  0  0  0  0  0  0  0  0  0  0
   13.4971   15.6766   23.0082 O   0  0  0  0  0  0  0  0  0  0  0  0
   10.2093    9.2970   22.9588 Cl  0  0  0  0  0  0  0  0  0  0  0  0
    6.8403   12.5823   25.8667 H   0  0  0  0  0  0  0  0  0  0  0  0
    9.3610   14.3529   25.3941 H   0  0  0  0  0  0  0  0  0  0  0  0
    9.1140   14.4274   23.6320 H   0  0  0  0  0  0  0  0  0  0  0  0
    7.7266   14.5442   24.7130 H   0  0  0  0  0  0  0  0  0  0  0  0
    5.4173    9.8407   25.4030 H   0  0  0  0  0  0  0  0  0  0  0  0
    6.6240    8.9310   26.3452 H   0  0  0  0  0  0  0  0  0  0  0  0
    6.0729   10.5035   26.9205 H   0  0  0  0  0  0  0  0  0  0  0  0
    9.4646   15.5276   22.3231 H   0  0  0  0  0  0  0  0  0  0  0  0
   10.1412   16.8409   21.3288 H   0  0  0  0  0  0  0  0  0  0  0  0
    9.9629   15.2282   20.6397 H   0  0  0  0  0  0  0  0  0  0  0  0
   15.3878   13.6989   21.9245 H   0  0  0  0  0  0  0  0  0  0  0  0
   15.1778   13.8604   23.6855 H   0  0  0  0  0  0  0  0  0  0  0  0
   14.4188   12.5150   22.8363 H   0  0  0  0  0  0  0  0  0  0  0  0
   13.4056   11.8740   20.3624 H   0  0  0  0  0  0  0  0  0  0  0  0
   11.9108   11.9874   19.3729 H   0  0  0  0  0  0  0  0  0  0  0  0
   12.9932   13.4122   19.5315 H   0  0  0  0  0  0  0  0  0  0  0  0
   11.1354   12.8829   23.5947 H   0  0  0  0  0  0  0  0  0  0  0  0
  1  2  2  0  0  0  0
  1  5  1  0  0  0  0
  2  3  1  0  0  0  0
  2 10  1  0  0  0  0
  3  8  2  0  0  0  0
  3 17  1  0  0  0  0
  4  6  1  0  0  0  0
  4  7  2  0  0  0  0
  4 18  1  0  0  0  0
  5 11  1  0  0  0  0
  5 15  2  0  0  0  0
  6 12  1  0  0  0  0
  6 16  2  0  0  0  0
  7 13  1  0  0  0  0
  7 20  1  0  0  0  0
  8 15  1  0  0  0  0
  8 21  1  0  0  0  0
  9 17  1  0  0  0  0
  9 18  1  0  0  0  0
  9 19  2  0  0  0  0
 14 18  1  0  0  0  0
 16 20  1  0  0  0  0
  1 22  1  0  0  0  0
 10 23  1  0  0  0  0
 10 24  1  0  0  0  0
 10 25  1  0  0  0  0
 11 26  1  0  0  0  0
 11 27  1  0  0  0  0
 11 28  1  0  0  0  0
 12 29  1  0  0  0  0
 12 30  1  0  0  0  0
 12 31  1  0  0  0  0
 13 32  1  0  0  0  0
 13 33  1  0  0  0  0
 13 34  1  0  0  0  0
 14 35  1  0  0  0  0
 14 36  1  0  0  0  0
 14 37  1  0  0  0  0
 17 38  1  0  0  0  0
M  END
> <idnumber>
Z1417545350

> <heavy_atoms>
21

> <LogS>
-2.98

> <LogP>
1.698

> <rotating_bonds>
2

> <PSA>
71.26

> <hb_acceptors>
3

> <hb_donors>
1

> <Collection>
HTS

> <link>
https://www.enaminestore.com/catalog/Z1417545350

> <ROCS_ShapeQuery>
_x1140_x0812_0A_x1140_0A_x1097_0A_x0365_0A_x1097_0A_x0310_0A

> <ROCS_TanimotoCombo>
0.681 

> <ROCS_ShapeTanimoto>
0.250 

> <ROCS_ColorTanimoto>
0.431 

> <ROCS_RefTversky>
0.228 

> <ROCS_RefColorTversky>
0.534 

> <ROCS_RefTverskyCombo>
0.762 

> <ROCS_FitTversky>
1.635 

> <ROCS_FitColorTversky>
0.691 

> <ROCS_FitTverskyCombo>
2.327 

> <ROCS_ColorScore>
-4.217

> <ROCS_Overlap>
2339.823

> <ROCS_Rank>
24                  

$$$$
untitled-dbase-278767_18
  -OEChem-02092421083D

 42 44  0     0  0  0  0  0  0999 V2000
    7.5857   13.5637   26.0956 C   0  0  0  0  0  0  0  0  0  0  0  0
    6.9494   12.4979   26.7371 C   0  0  0  0  0  0  0  0  0  0  0  0
    8.4006   13.3508   24.9753 C   0  0  0  0  0  0  0  0  0  0  0  0
    7.1026   11.1838   26.2851 C   0  0  0  0  0  0  0  0  0  0  0  0
    8.5685   12.0372   24.5034 C   0  0  0  0  0  0  0  0  0  0  0  0
    9.2821   11.4227   23.4408 C   0  0  0  0  0  0  0  0  0  0  0  0
    7.9182   11.0034   25.1696 C   0  0  0  0  0  0  0  0  0  0  0  0
    9.0230   10.0745   23.5282 C   0  0  0  0  0  0  0  0  0  0  0  0
   10.1464   12.0621   22.4154 C   0  0  0  0  0  0  0  0  0  0  0  0
   13.2652   14.1238   22.8705 C   0  0  0  0  0  0  0  0  0  0  0  0
   11.4126   14.5300   21.2179 C   0  0  0  0  0  0  0  0  0  0  0  0
   12.7367   15.3287   23.6436 C   0  0  0  0  0  0  0  0  0  0  0  0
   11.0044   15.7224   22.0798 C   0  0  0  0  0  0  0  0  0  0  0  0
   12.1627   13.4546   22.0287 C   0  0  0  0  0  0  0  0  0  0  0  0
   12.7861   12.4281   21.0727 C   0  0  0  0  0  0  0  0  0  0  0  0
   10.9758    8.7471   22.6848 C   0  0  0  0  0  0  0  0  0  0  0  0
    9.4511    8.9100   22.7375 C   0  0  0  0  0  0  0  0  0  0  0  0
   11.2361   12.7535   22.9049 N   0  0  0  0  0  0  0  0  0  0  0  0
    9.8442   11.9624   21.2292 O   0  0  0  0  0  0  0  0  0  0  0  0
    8.1968    9.8098   24.5737 O   0  0  0  0  0  0  0  0  0  0  0  0
   12.1332   16.2698   22.7581 O   0  0  0  0  0  0  0  0  0  0  0  0
    7.4471   14.5748   26.4700 H   0  0  0  0  0  0  0  0  0  0  0  0
    6.3234   12.6929   27.6044 H   0  0  0  0  0  0  0  0  0  0  0  0
    8.8882   14.1903   24.4887 H   0  0  0  0  0  0  0  0  0  0  0  0
    6.6121   10.3524   26.7769 H   0  0  0  0  0  0  0  0  0  0  0  0
   14.0587   14.4735   22.1964 H   0  0  0  0  0  0  0  0  0  0  0  0
   13.7268   13.4054   23.5588 H   0  0  0  0  0  0  0  0  0  0  0  0
   10.5329   14.1055   20.7191 H   0  0  0  0  0  0  0  0  0  0  0  0
   12.0785   14.8988   20.4260 H   0  0  0  0  0  0  0  0  0  0  0  0
   12.0155   15.0340   24.4147 H   0  0  0  0  0  0  0  0  0  0  0  0
   13.5661   15.8342   24.1486 H   0  0  0  0  0  0  0  0  0  0  0  0
   10.5872   16.5096   21.4433 H   0  0  0  0  0  0  0  0  0  0  0  0
   10.2328   15.4539   22.8098 H   0  0  0  0  0  0  0  0  0  0  0  0
   12.0027   11.9607   20.4828 H   0  0  0  0  0  0  0  0  0  0  0  0
   13.3084   11.6689   21.6478 H   0  0  0  0  0  0  0  0  0  0  0  0
   13.4877   12.9289   20.4116 H   0  0  0  0  0  0  0  0  0  0  0  0
   11.4485    9.6558   22.2966 H   0  0  0  0  0  0  0  0  0  0  0  0
   11.2667    7.9118   22.0402 H   0  0  0  0  0  0  0  0  0  0  0  0
   11.3793    8.5599   23.6856 H   0  0  0  0  0  0  0  0  0  0  0  0
    9.0172    7.9699   23.1349 H   0  0  0  0  0  0  0  0  0  0  0  0
    9.0740    8.9678   21.6960 H   0  0  0  0  0  0  0  0  0  0  0  0
   11.3936   12.8502   23.8979 H   0  0  0  0  0  0  0  0  0  0  0  0
  1  2  1  0  0  0  0
  1  3  2  0  0  0  0
  2  4  2  0  0  0  0
  3  5  1  0  0  0  0
  4  7  1  0  0  0  0
  5  6  1  0  0  0  0
  5  7  2  0  0  0  0
  6  8  2  0  0  0  0
  6  9  1  0  0  0  0
  7 20  1  0  0  0  0
  8 17  1  0  0  0  0
  8 20  1  0  0  0  0
  9 18  1  0  0  0  0
  9 19  2  0  0  0  0
 10 12  1  0  0  0  0
 10 14  1  0  0  0  0
 11 13  1  0  0  0  0
 11 14  1  0  0  0  0
 12 21  1  0  0  0  0
 13 21  1  0  0  0  0
 14 15  1  0  0  0  0
 14 18  1  0  0  0  0
 16 17  1  0  0  0  0
  1 22  1  0  0  0  0
  2 23  1  0  0  0  0
  3 24  1  0  0  0  0
  4 25  1  0  0  0  0
 10 26  1  0  0  0  0
 10 27  1  0  0  0  0
 11 28  1  0  0  0  0
 11 29  1  0  0  0  0
 12 30  1  0  0  0  0
 12 31  1  0  0  0  0
 13 32  1  0  0  0  0
 13 33  1  0  0  0  0
 15 34  1  0  0  0  0
 15 35  1  0  0  0  0
 15 36  1  0  0  0  0
 16 37  1  0  0  0  0
 16 38  1  0  0  0  0
 16 39  1  0  0  0  0
 17 40  1  0  0  0  0
 17 41  1  0  0  0  0
 18 42  1  0  0  0  0
M  END
> <idnumber>
Z1517927162

> <heavy_atoms>
21

> <LogS>
-4.02

> <LogP>
2.26

> <rotating_bonds>
3

> <PSA>
51.47

> <hb_acceptors>
2

> <hb_donors>
1

> <Collection>
HTS

> <link>
https://www.enaminestore.com/catalog/Z1517927162

> <ROCS_ShapeQuery>
_x1140_x0812_0A_x1140_0A_x1097_0A_x0365_0A_x1097_0A_x0310_0A

> <ROCS_TanimotoCombo>
0.680 

> <ROCS_ShapeTanimoto>
0.281 

> <ROCS_ColorTanimoto>
0.399 

> <ROCS_RefTversky>
0.250 

> <ROCS_RefColorTversky>
0.571 

> <ROCS_RefTverskyCombo>
0.821 

> <ROCS_FitTversky>
1.781 

> <ROCS_FitColorTversky>
0.570 

> <ROCS_FitTverskyCombo>
2.351 

> <ROCS_ColorScore>
-4.568

> <ROCS_Overlap>
2567.740

> <ROCS_Rank>
25                  

$$$$
untitled-dbase-906738_3
  -OEChem-02092421083D

 54 56  0     1  0  0  0  0  0999 V2000
    8.5773   12.2149   24.1441 C   0  0  0  0  0  0  0  0  0  0  0  0
    7.3072   10.6396   25.1146 C   0  0  0  0  0  0  0  0  0  0  0  0
    9.0863   10.0447   23.8826 C   0  0  0  0  0  0  0  0  0  0  0  0
   11.8344   15.6771   23.2761 C   0  0  0  0  0  0  0  0  0  0  0  0
    8.0539   15.8969   23.6974 C   0  0  0  0  0  0  0  0  0  0  0  0
    9.4833   16.4001   23.6354 C   0  0  0  0  0  0  0  0  0  0  0  0
    7.9720   14.5866   24.4696 C   0  0  0  0  0  0  0  0  0  0  0  0
   11.1841   13.9019   24.7016 C   0  0  0  0  0  0  0  0  0  0  0  0
   10.3798   15.3657   22.9668 C   0  0  2  0  0  0  0  0  0  0  0  0
   10.2244   13.9372   23.5175 C   0  0  2  0  0  0  0  0  0  0  0  0
    4.2427   10.5861   27.2856 C   0  0  0  0  0  0  0  0  0  0  0  0
   11.7247    8.0197   22.1018 C   0  0  0  0  0  0  0  0  0  0  0  0
   10.5885   10.0975   21.2771 C   0  0  0  0  0  0  0  0  0  0  0  0
   12.0448   10.1869   23.3166 C   0  0  0  0  0  0  0  0  0  0  0  0
   13.5134   14.8382   24.9637 C   0  0  0  0  0  0  0  0  0  0  0  0
    5.3165   11.2474   26.4905 C   0  0  0  0  0  0  0  0  0  0  0  0
   11.0518    9.3319   22.5209 C   0  0  0  0  0  0  0  0  0  0  0  0
    7.5081   11.9517   24.9128 N   0  0  0  0  0  0  0  0  0  0  0  0
    9.4103   11.3157   23.5955 N   0  0  0  0  0  0  0  0  0  0  0  0
    8.0523    9.6316   24.6330 N   0  0  0  0  0  0  0  0  0  0  0  0
    8.8530   13.5684   23.8899 N   0  0  1  0  0  0  0  0  0  0  0  0
   12.2342   14.8064   24.2889 N   0  0  0  0  0  0  0  0  0  0  0  0
    6.1989   10.2826   25.9126 N   0  0  0  0  0  0  0  0  0  0  0  0
    9.9170    9.0405   23.3398 N   0  0  0  0  0  0  0  0  0  0  0  0
   12.4819   16.5711   22.7510 O   0  0  0  0  0  0  0  0  0  0  0  0
    7.4215   16.6471   24.1854 H   0  0  0  0  0  0  0  0  0  0  0  0
    7.6584   15.7579   22.6835 H   0  0  0  0  0  0  0  0  0  0  0  0
    9.5245   17.3421   23.0750 H   0  0  0  0  0  0  0  0  0  0  0  0
    9.8368   16.6335   24.6483 H   0  0  0  0  0  0  0  0  0  0  0  0
    8.2409   14.7526   25.5204 H   0  0  0  0  0  0  0  0  0  0  0  0
    6.9319   14.2372   24.4512 H   0  0  0  0  0  0  0  0  0  0  0  0
   10.7486   14.2935   25.6270 H   0  0  0  0  0  0  0  0  0  0  0  0
   11.5928   12.9016   24.8741 H   0  0  0  0  0  0  0  0  0  0  0  0
   10.2248   15.3658   21.8819 H   0  0  0  0  0  0  0  0  0  0  0  0
   10.5861   13.2375   22.7493 H   0  0  0  0  0  0  0  0  0  0  0  0
    4.6963    9.9919   28.0926 H   0  0  0  0  0  0  0  0  0  0  0  0
    3.5839   11.3522   27.7204 H   0  0  0  0  0  0  0  0  0  0  0  0
    3.6551    9.9262   26.6305 H   0  0  0  0  0  0  0  0  0  0  0  0
   12.0656    7.4526   22.9758 H   0  0  0  0  0  0  0  0  0  0  0  0
   11.0373    7.3824   21.5346 H   0  0  0  0  0  0  0  0  0  0  0  0
   12.6042    8.2093   21.4755 H   0  0  0  0  0  0  0  0  0  0  0  0
   10.1033   11.0414   21.5518 H   0  0  0  0  0  0  0  0  0  0  0  0
    9.8597    9.5142   20.7025 H   0  0  0  0  0  0  0  0  0  0  0  0
   11.4302   10.3311   20.6158 H   0  0  0  0  0  0  0  0  0  0  0  0
   11.5889   11.1334   23.6296 H   0  0  0  0  0  0  0  0  0  0  0  0
   12.3897    9.6646   24.2159 H   0  0  0  0  0  0  0  0  0  0  0  0
   12.9256   10.4356   22.7132 H   0  0  0  0  0  0  0  0  0  0  0  0
   13.4475   15.4930   25.8452 H   0  0  0  0  0  0  0  0  0  0  0  0
   13.7851   13.8210   25.2823 H   0  0  0  0  0  0  0  0  0  0  0  0
   14.2808   15.2245   24.2767 H   0  0  0  0  0  0  0  0  0  0  0  0
    4.8550   11.8391   25.6862 H   0  0  0  0  0  0  0  0  0  0  0  0
    5.8937   11.9123   27.1499 H   0  0  0  0  0  0  0  0  0  0  0  0
    6.0473    9.3041   26.0659 H   0  0  0  0  0  0  0  0  0  0  0  0
    9.6779    8.0910   23.5521 H   0  0  0  0  0  0  0  0  0  0  0  0
  1 18  1  0  0  0  0
  1 19  2  0  0  0  0
  1 21  1  0  0  0  0
  2 18  2  0  0  0  0
  2 20  1  0  0  0  0
  2 23  1  0  0  0  0
  3 19  1  0  0  0  0
  3 20  2  0  0  0  0
  3 24  1  0  0  0  0
  4  9  1  1  0  0  0
  4 22  1  0  0  0  0
  4 25  2  0  0  0  0
  5  6  1  0  0  0  0
  5  7  1  0  0  0  0
  6  9  1  0  0  0  0
  7 21  1  0  0  0  0
  8 10  1  1  0  0  0
  8 22  1  0  0  0  0
  9 10  1  0  0  0  0
 10 21  1  0  0  0  0
 11 16  1  0  0  0  0
 12 17  1  0  0  0  0
 13 17  1  0  0  0  0
 14 17  1  0  0  0  0
 15 22  1  0  0  0  0
 16 23  1  0  0  0  0
 17 24  1  0  0  0  0
  5 26  1  0  0  0  0
  5 27  1  0  0  0  0
  6 28  1  0  0  0  0
  6 29  1  0  0  0  0
  7 30  1  0  0  0  0
  7 31  1  0  0  0  0
  8 32  1  0  0  0  0
  8 33  1  0  0  0  0
  9 34  1  0  0  0  0
 10 35  1  0  0  0  0
 11 36  1  0  0  0  0
 11 37  1  0  0  0  0
 11 38  1  0  0  0  0
 12 39  1  0  0  0  0
 12 40  1  0  0  0  0
 12 41  1  0  0  0  0
 13 42  1  0  0  0  0
 13 43  1  0  0  0  0
 13 44  1  0  0  0  0
 14 45  1  0  0  0  0
 14 46  1  0  0  0  0
 14 47  1  0  0  0  0
 15 48  1  0  0  0  0
 15 49  1  0  0  0  0
 15 50  1  0  0  0  0
 16 51  1  0  0  0  0
 16 52  1  0  0  0  0
 23 53  1  0  0  0  0
 24 54  1  0  0  0  0
M  END
> <idnumber>
Z2409640852

> <heavy_atoms>
25

> <LogS>
-4.347

> <LogP>
2.817

> <rotating_bonds>
5

> <PSA>
86.28

> <hb_acceptors>
7

> <hb_donors>
2

> <Collection>
HTS

> <link>
https://www.enaminestore.com/catalog/Z2409640852

> <ROCS_ShapeQuery>
_x1140_x0812_0A_x1140_0A_x1097_0A_x0365_0A_x1097_0A_x0310_0A

> <ROCS_TanimotoCombo>
0.679 

> <ROCS_ShapeTanimoto>
0.265 

> <ROCS_ColorTanimoto>
0.414 

> <ROCS_RefTversky>
0.242 

> <ROCS_RefColorTversky>
0.653 

> <ROCS_RefTverskyCombo>
0.895 

> <ROCS_FitTversky>
1.546 

> <ROCS_FitColorTversky>
0.532 

> <ROCS_FitTverskyCombo>
2.077 

> <ROCS_ColorScore>
-5.290

> <ROCS_Overlap>
2489.642

> <ROCS_Rank>
26                  

$$$$
untitled-dbase-1062965_24
  -OEChem-02092421083D

 40 42  0     0  0  0  0  0  0999 V2000
    5.8544   12.4195   26.9482 C   0  0  0  0  0  0  0  0  0  0  0  0
    5.7287   11.0576   27.1923 C   0  0  0  0  0  0  0  0  0  0  0  0
   14.4872   15.7596   23.3967 C   0  0  0  0  0  0  0  0  0  0  0  0
    6.7397   12.8634   25.9701 C   0  0  0  0  0  0  0  0  0  0  0  0
   13.9697   14.5380   22.9807 C   0  0  0  0  0  0  0  0  0  0  0  0
    6.4881   10.1431   26.4582 C   0  0  0  0  0  0  0  0  0  0  0  0
   13.7010   16.8881   23.2289 C   0  0  0  0  0  0  0  0  0  0  0  0
    7.5034   11.9434   25.2319 C   0  0  0  0  0  0  0  0  0  0  0  0
    9.1417   11.4293   23.5300 C   0  0  0  0  0  0  0  0  0  0  0  0
   12.6996   14.4830   22.4175 C   0  0  0  0  0  0  0  0  0  0  0  0
    8.4020   12.3627   24.2417 C   0  0  0  0  0  0  0  0  0  0  0  0
    7.3808   10.5591   25.4743 C   0  0  0  0  0  0  0  0  0  0  0  0
   11.9932   15.6685   22.2937 C   0  0  0  0  0  0  0  0  0  0  0  0
    8.9536   10.0971   23.8378 C   0  0  0  0  0  0  0  0  0  0  0  0
   10.0831   11.8311   22.4923 C   0  0  0  0  0  0  0  0  0  0  0  0
    8.5860   13.8178   23.9288 C   0  0  0  0  0  0  0  0  0  0  0  0
   10.6246   15.6693   21.6953 C   0  0  0  0  0  0  0  0  0  0  0  0
   12.1350   13.1669   21.9666 C   0  0  0  0  0  0  0  0  0  0  0  0
   12.4629   16.8740   22.6862 N   0  0  0  0  0  0  0  0  0  0  0  0
    8.0973    9.6509   24.7853 N   0  0  0  0  0  0  0  0  0  0  0  0
   11.1356   12.6649   22.8820 N   0  0  0  0  0  0  0  0  0  0  0  0
    9.9238   11.4538   21.3195 O   0  0  0  0  0  0  0  0  0  0  0  0
    9.6572    9.1340   23.1617 O   0  0  0  0  0  0  0  0  0  0  0  0
    5.2662   13.1328   27.5176 H   0  0  0  0  0  0  0  0  0  0  0  0
    5.0400   10.7020   27.9533 H   0  0  0  0  0  0  0  0  0  0  0  0
   15.4744   15.8278   23.8392 H   0  0  0  0  0  0  0  0  0  0  0  0
    6.8183   13.9346   25.8014 H   0  0  0  0  0  0  0  0  0  0  0  0
   14.5627   13.6354   23.1000 H   0  0  0  0  0  0  0  0  0  0  0  0
    6.3731    9.0816   26.6705 H   0  0  0  0  0  0  0  0  0  0  0  0
   14.0588   17.8650   23.5367 H   0  0  0  0  0  0  0  0  0  0  0  0
    9.3800   14.2369   24.5539 H   0  0  0  0  0  0  0  0  0  0  0  0
    8.8508   13.9601   22.8762 H   0  0  0  0  0  0  0  0  0  0  0  0
    7.6611   14.3755   24.1089 H   0  0  0  0  0  0  0  0  0  0  0  0
    9.8689   15.5238   22.4757 H   0  0  0  0  0  0  0  0  0  0  0  0
   10.4180   16.6154   21.1802 H   0  0  0  0  0  0  0  0  0  0  0  0
   10.5174   14.8704   20.9511 H   0  0  0  0  0  0  0  0  0  0  0  0
   11.6698   13.2641   20.9796 H   0  0  0  0  0  0  0  0  0  0  0  0
   12.9219   12.4100   21.8821 H   0  0  0  0  0  0  0  0  0  0  0  0
   11.1815   12.9936   23.8410 H   0  0  0  0  0  0  0  0  0  0  0  0
   10.2361    9.5507   22.5087 H   0  0  0  0  0  0  0  0  0  0  0  0
  1  2  1  0  0  0  0
  1  4  2  0  0  0  0
  2  6  2  0  0  0  0
  3  5  2  0  0  0  0
  3  7  1  0  0  0  0
  4  8  1  0  0  0  0
  5 10  1  0  0  0  0
  6 12  1  0  0  0  0
  7 19  2  0  0  0  0
  8 11  2  0  0  0  0
  8 12  1  0  0  0  0
  9 11  1  0  0  0  0
  9 14  2  0  0  0  0
  9 15  1  0  0  0  0
 10 13  2  0  0  0  0
 10 18  1  0  0  0  0
 11 16  1  0  0  0  0
 12 20  2  0  0  0  0
 13 17  1  0  0  0  0
 13 19  1  0  0  0  0
 14 20  1  0  0  0  0
 14 23  1  0  0  0  0
 15 21  1  0  0  0  0
 15 22  2  0  0  0  0
 18 21  1  0  0  0  0
  1 24  1  0  0  0  0
  2 25  1  0  0  0  0
  3 26  1  0  0  0  0
  4 27  1  0  0  0  0
  5 28  1  0  0  0  0
  6 29  1  0  0  0  0
  7 30  1  0  0  0  0
 16 31  1  0  0  0  0
 16 32  1  0  0  0  0
 16 33  1  0  0  0  0
 17 34  1  0  0  0  0
 17 35  1  0  0  0  0
 17 36  1  0  0  0  0
 18 37  1  0  0  0  0
 18 38  1  0  0  0  0
 21 39  1  0  0  0  0
 23 40  1  0  0  0  0
M  END
> <idnumber>
Z3889886214

> <heavy_atoms>
23

> <LogS>
-3.678

> <LogP>
3.86

> <rotating_bonds>
3

> <PSA>
75.11

> <hb_acceptors>
4

> <hb_donors>
2

> <Collection>
HTS

> <link>
https://www.enaminestore.com/catalog/Z3889886214

> <ROCS_ShapeQuery>
_x1140_x0812_0A_x1140_0A_x1097_0A_x0365_0A_x1097_0A_x0310_0A

> <ROCS_TanimotoCombo>
0.679 

> <ROCS_ShapeTanimoto>
0.298 

> <ROCS_ColorTanimoto>
0.381 

> <ROCS_RefTversky>
0.264 

> <ROCS_RefColorTversky>
0.584 

> <ROCS_RefTverskyCombo>
0.847 

> <ROCS_FitTversky>
1.755 

> <ROCS_FitColorTversky>
0.524 

> <ROCS_FitTverskyCombo>
2.279 

> <ROCS_ColorScore>
-4.698

> <ROCS_Overlap>
2710.844

> <ROCS_Rank>
27                  

$$$$
untitled-dbase-957035_48
  -OEChem-02092421083D

 34 35  0     0  0  0  0  0  0999 V2000
    7.5567   11.8118   25.5005 C   0  0  0  0  0  0  0  0  0  0  0  0
    8.2535   12.4887   24.5057 C   0  0  0  0  0  0  0  0  0  0  0  0
    7.6382   10.4288   25.5231 C   0  0  0  0  0  0  0  0  0  0  0  0
    8.9999   11.7720   23.5770 C   0  0  0  0  0  0  0  0  0  0  0  0
    9.0170   10.3908   23.6858 C   0  0  0  0  0  0  0  0  0  0  0  0
    9.7221   12.4899   22.5357 C   0  0  0  0  0  0  0  0  0  0  0  0
   12.3905   14.6864   22.1411 C   0  0  0  0  0  0  0  0  0  0  0  0
   10.9010   16.1035   22.2936 C   0  0  0  0  0  0  0  0  0  0  0  0
   10.8805   14.6229   21.9159 C   0  0  0  0  0  0  0  0  0  0  0  0
   12.0998    9.6450   23.4465 C   0  0  0  0  0  0  0  0  0  0  0  0
   11.1127    7.7821   22.0677 C   0  0  0  0  0  0  0  0  0  0  0  0
   10.8665    8.7956   23.1758 C   0  0  0  0  0  0  0  0  0  0  0  0
    8.3529    9.6983   24.6382 N   0  0  0  0  0  0  0  0  0  0  0  0
    9.7452    9.6806   22.7767 N   0  0  0  0  0  0  0  0  0  0  0  0
   10.1709   13.7772   22.8486 N   0  0  0  0  0  0  0  0  0  0  0  0
    9.9008   11.9700   21.4211 O   0  0  0  0  0  0  0  0  0  0  0  0
   12.2897   16.0193   22.7042 O   0  0  0  0  0  0  0  0  0  0  0  0
    6.9671   12.3499   26.2339 H   0  0  0  0  0  0  0  0  0  0  0  0
    8.2069   13.5737   24.4640 H   0  0  0  0  0  0  0  0  0  0  0  0
    7.1130    9.8541   26.2789 H   0  0  0  0  0  0  0  0  0  0  0  0
   12.8069   13.9755   22.8609 H   0  0  0  0  0  0  0  0  0  0  0  0
   12.9992   14.6868   21.2315 H   0  0  0  0  0  0  0  0  0  0  0  0
   10.7772   16.8012   21.4595 H   0  0  0  0  0  0  0  0  0  0  0  0
   10.2534   16.4038   23.1225 H   0  0  0  0  0  0  0  0  0  0  0  0
   10.5870   14.4249   20.8807 H   0  0  0  0  0  0  0  0  0  0  0  0
   12.4110   10.1797   22.5432 H   0  0  0  0  0  0  0  0  0  0  0  0
   11.9115   10.3844   24.2330 H   0  0  0  0  0  0  0  0  0  0  0  0
   12.9372    9.0203   23.7762 H   0  0  0  0  0  0  0  0  0  0  0  0
   11.4073    8.2850   21.1401 H   0  0  0  0  0  0  0  0  0  0  0  0
   10.2085    7.1989   21.8648 H   0  0  0  0  0  0  0  0  0  0  0  0
   11.9156    7.0854   22.3335 H   0  0  0  0  0  0  0  0  0  0  0  0
   10.5738    8.2708   24.0917 H   0  0  0  0  0  0  0  0  0  0  0  0
    9.5520    9.7297   21.8009 H   0  0  0  0  0  0  0  0  0  0  0  0
    9.9426   14.1773   23.7528 H   0  0  0  0  0  0  0  0  0  0  0  0
  1  2  2  0  0  0  0
  1  3  1  0  0  0  0
  2  4  1  0  0  0  0
  3 13  2  0  0  0  0
  4  5  2  0  0  0  0
  4  6  1  0  0  0  0
  5 13  1  0  0  0  0
  5 14  1  0  0  0  0
  6 15  1  0  0  0  0
  6 16  2  0  0  0  0
  7  9  1  0  0  0  0
  7 17  1  0  0  0  0
  8  9  1  0  0  0  0
  8 17  1  0  0  0  0
  9 15  1  0  0  0  0
 10 12  1  0  0  0  0
 11 12  1  0  0  0  0
 12 14  1  0  0  0  0
  1 18  1  0  0  0  0
  2 19  1  0  0  0  0
  3 20  1  0  0  0  0
  7 21  1  0  0  0  0
  7 22  1  0  0  0  0
  8 23  1  0  0  0  0
  8 24  1  0  0  0  0
  9 25  1  0  0  0  0
 10 26  1  0  0  0  0
 10 27  1  0  0  0  0
 10 28  1  0  0  0  0
 11 29  1  0  0  0  0
 11 30  1  0  0  0  0
 11 31  1  0  0  0  0
 12 32  1  0  0  0  0
 14 33  1  0  0  0  0
 15 34  1  0  0  0  0
M  END
> <idnumber>
Z2783992036

> <heavy_atoms>
17

> <LogS>
-2.19

> <LogP>
2.022

> <rotating_bonds>
4

> <PSA>
63.25

> <hb_acceptors>
4

> <hb_donors>
2

> <Collection>
Advanced

> <link>
https://www.enaminestore.com/catalog/Z2783992036

> <ROCS_ShapeQuery>
_x1140_x0812_0A_x1140_0A_x1097_0A_x0365_0A_x1097_0A_x0310_0A

> <ROCS_TanimotoCombo>
0.679 

> <ROCS_ShapeTanimoto>
0.242 

> <ROCS_ColorTanimoto>
0.437 

> <ROCS_RefTversky>
0.219 

> <ROCS_RefColorTversky>
0.608 

> <ROCS_RefTverskyCombo>
0.827 

> <ROCS_FitTversky>
1.793 

> <ROCS_FitColorTversky>
0.608 

> <ROCS_FitTverskyCombo>
2.401 

> <ROCS_ColorScore>
-4.866

> <ROCS_Overlap>
2241.643

> <ROCS_Rank>
28                  

$$$$
untitled-dbase-741047_197
  -OEChem-02092421083D

 41 43  0     0  0  0  0  0  0999 V2000
    8.3133    6.2723   21.8895 C   0  0  0  0  0  0  0  0  0  0  0  0
    7.4142   11.9487   25.2018 C   0  0  0  0  0  0  0  0  0  0  0  0
    8.3686   12.4626   24.3310 C   0  0  0  0  0  0  0  0  0  0  0  0
    8.4830    7.5800   22.3443 C   0  0  0  0  0  0  0  0  0  0  0  0
    9.4114    5.4167   21.8009 C   0  0  0  0  0  0  0  0  0  0  0  0
   10.8489    7.1765   22.6216 C   0  0  0  0  0  0  0  0  0  0  0  0
    7.3461   10.5729   25.3507 C   0  0  0  0  0  0  0  0  0  0  0  0
    9.2139   11.5972   23.6455 C   0  0  0  0  0  0  0  0  0  0  0  0
    9.7508    8.0321   22.7103 C   0  0  0  0  0  0  0  0  0  0  0  0
   10.6792    5.8688   22.1669 C   0  0  0  0  0  0  0  0  0  0  0  0
    9.0654   10.2371   23.8642 C   0  0  0  0  0  0  0  0  0  0  0  0
   12.0122   15.3952   23.2919 C   0  0  0  0  0  0  0  0  0  0  0  0
   10.2171   12.1507   22.7225 C   0  0  0  0  0  0  0  0  0  0  0  0
   11.8081   14.1120   22.4982 C   0  0  0  0  0  0  0  0  0  0  0  0
   11.3768   14.1430   25.3682 C   0  0  0  0  0  0  0  0  0  0  0  0
   11.6383   12.8645   24.6041 C   0  0  0  0  0  0  0  0  0  0  0  0
   12.0643   16.5175   25.4901 C   0  0  0  0  0  0  0  0  0  0  0  0
    8.1499    9.7007   24.7020 N   0  0  0  0  0  0  0  0  0  0  0  0
   11.8778   15.3252   24.6748 N   0  0  0  0  0  0  0  0  0  0  0  0
   11.1800   13.0249   23.2363 N   0  0  0  0  0  0  0  0  0  0  0  0
    9.9218    9.3481   23.1670 N   0  0  0  0  0  0  0  0  0  0  0  0
   12.3636   16.4128   22.6867 O   0  0  0  0  0  0  0  0  0  0  0  0
   10.1247   11.8033   21.5458 O   0  0  0  0  0  0  0  0  0  0  0  0
   11.7334    5.0466   22.0833 F   0  0  0  0  0  0  0  0  0  0  0  0
    7.3260    5.9198   21.6051 H   0  0  0  0  0  0  0  0  0  0  0  0
    6.7437   12.6045   25.7453 H   0  0  0  0  0  0  0  0  0  0  0  0
    8.4439   13.5382   24.1947 H   0  0  0  0  0  0  0  0  0  0  0  0
    7.6206    8.2383   22.4088 H   0  0  0  0  0  0  0  0  0  0  0  0
    9.2793    4.3985   21.4472 H   0  0  0  0  0  0  0  0  0  0  0  0
   11.8415    7.5181   22.9036 H   0  0  0  0  0  0  0  0  0  0  0  0
    6.6188   10.1220   26.0179 H   0  0  0  0  0  0  0  0  0  0  0  0
   11.1561   14.3440   21.6479 H   0  0  0  0  0  0  0  0  0  0  0  0
   12.7832   13.8052   22.1088 H   0  0  0  0  0  0  0  0  0  0  0  0
   10.2986   14.2591   25.5255 H   0  0  0  0  0  0  0  0  0  0  0  0
   11.8621   14.1119   26.3508 H   0  0  0  0  0  0  0  0  0  0  0  0
   12.7044   12.6174   24.6360 H   0  0  0  0  0  0  0  0  0  0  0  0
   11.0916   12.0231   25.0464 H   0  0  0  0  0  0  0  0  0  0  0  0
   11.1012   17.0356   25.6086 H   0  0  0  0  0  0  0  0  0  0  0  0
   12.4492   16.2286   26.4793 H   0  0  0  0  0  0  0  0  0  0  0  0
   12.7837   17.1889   24.9986 H   0  0  0  0  0  0  0  0  0  0  0  0
   10.8300    9.7467   22.9619 H   0  0  0  0  0  0  0  0  0  0  0  0
  1  4  2  0  0  0  0
  1  5  1  0  0  0  0
  2  3  2  0  0  0  0
  2  7  1  0  0  0  0
  3  8  1  0  0  0  0
  4  9  1  0  0  0  0
  5 10  2  0  0  0  0
  6  9  2  0  0  0  0
  6 10  1  0  0  0  0
  7 18  2  0  0  0  0
  8 11  2  0  0  0  0
  8 13  1  0  0  0  0
  9 21  1  0  0  0  0
 10 24  1  0  0  0  0
 11 18  1  0  0  0  0
 11 21  1  0  0  0  0
 12 14  1  0  0  0  0
 12 19  1  0  0  0  0
 12 22  2  0  0  0  0
 13 20  1  0  0  0  0
 13 23  2  0  0  0  0
 14 20  1  0  0  0  0
 15 16  1  0  0  0  0
 15 19  1  0  0  0  0
 16 20  1  0  0  0  0
 17 19  1  0  0  0  0
  1 25  1  0  0  0  0
  2 26  1  0  0  0  0
  3 27  1  0  0  0  0
  4 28  1  0  0  0  0
  5 29  1  0  0  0  0
  6 30  1  0  0  0  0
  7 31  1  0  0  0  0
 14 32  1  0  0  0  0
 14 33  1  0  0  0  0
 15 34  1  0  0  0  0
 15 35  1  0  0  0  0
 16 36  1  0  0  0  0
 16 37  1  0  0  0  0
 17 38  1  0  0  0  0
 17 39  1  0  0  0  0
 17 40  1  0  0  0  0
 21 41  1  0  0  0  0
M  END
> <idnumber>
Z1252002799

> <heavy_atoms>
24

> <LogS>
-3.69

> <LogP>
2.892

> <rotating_bonds>
3

> <PSA>
65.54

> <hb_acceptors>
4

> <hb_donors>
1

> <Collection>
Legacy

> <link>
https://www.enaminestore.com/catalog/Z1252002799

> <ROCS_ShapeQuery>
_x1140_x0812_0A_x1140_0A_x1097_0A_x0365_0A_x1097_0A_x0310_0A

> <ROCS_TanimotoCombo>
0.679 

> <ROCS_ShapeTanimoto>
0.245 

> <ROCS_ColorTanimoto>
0.434 

> <ROCS_RefTversky>
0.227 

> <ROCS_RefColorTversky>
0.571 

> <ROCS_RefTverskyCombo>
0.798 

> <ROCS_FitTversky>
1.479 

> <ROCS_FitColorTversky>
0.644 

> <ROCS_FitTverskyCombo>
2.123 

> <ROCS_ColorScore>
-4.538

> <ROCS_Overlap>
2333.845

> <ROCS_Rank>
29                  

$$$$
untitled-dbase-1131879_24
  -OEChem-02092421083D

 37 38  0     0  0  0  0  0  0999 V2000
   11.1265    8.8941   22.6031 C   0  0  0  0  0  0  0  0  0  0  0  0
   10.2659    9.5633   23.1065 C   0  0  0  0  0  0  0  0  0  0  0  0
    8.0573   12.3931   24.0509 C   0  0  0  0  0  0  0  0  0  0  0  0
    7.4694   10.3768   25.1669 C   0  0  0  0  0  0  0  0  0  0  0  0
    9.2418   10.3599   23.7053 C   0  0  0  0  0  0  0  0  0  0  0  0
    9.0849   11.7056   23.4148 C   0  0  0  0  0  0  0  0  0  0  0  0
    7.2296   11.7233   24.9451 C   0  0  0  0  0  0  0  0  0  0  0  0
   12.4684   16.3238   21.6763 C   0  0  0  0  0  0  0  0  0  0  0  0
   10.3328   15.4253   22.5696 C   0  0  0  0  0  0  0  0  0  0  0  0
   11.5835   14.2161   20.7049 C   0  0  0  0  0  0  0  0  0  0  0  0
   10.8439   14.3845   23.5687 C   0  0  0  0  0  0  0  0  0  0  0  0
   12.0810   13.1880   21.7239 C   0  0  0  0  0  0  0  0  0  0  0  0
   11.2037   15.5569   21.3245 C   0  0  0  0  0  0  0  0  0  0  0  0
   11.1334   13.0317   22.9151 C   0  0  0  0  0  0  0  0  0  0  0  0
   14.4552   17.2005   20.7446 C   0  0  0  0  0  0  0  0  0  0  0  0
    8.4577    9.6753   24.5679 N   0  0  0  0  0  0  0  0  0  0  0  0
    9.9098   12.3676   22.5253 N   0  0  0  0  0  0  0  0  0  0  0  0
   12.7384   16.7204   22.8019 O   0  0  0  0  0  0  0  0  0  0  0  0
   13.2276   16.4894   20.5560 O   0  0  0  0  0  0  0  0  0  0  0  0
    5.9525   12.5376   25.7495 Cl  0  0  0  0  0  0  0  0  0  0  0  0
   11.8897    8.3008   22.1563 H   0  0  0  0  0  0  0  0  0  0  0  0
    7.9035   13.4507   23.8480 H   0  0  0  0  0  0  0  0  0  0  0  0
    6.8579    9.7981   25.8525 H   0  0  0  0  0  0  0  0  0  0  0  0
    9.3178   15.1460   22.2593 H   0  0  0  0  0  0  0  0  0  0  0  0
   10.2436   16.3930   23.0789 H   0  0  0  0  0  0  0  0  0  0  0  0
   12.3534   14.3554   19.9359 H   0  0  0  0  0  0  0  0  0  0  0  0
   10.7048   13.8056   20.1911 H   0  0  0  0  0  0  0  0  0  0  0  0
   11.7663   14.7578   24.0319 H   0  0  0  0  0  0  0  0  0  0  0  0
   10.1197   14.2687   24.3844 H   0  0  0  0  0  0  0  0  0  0  0  0
   12.2329   12.2215   21.2277 H   0  0  0  0  0  0  0  0  0  0  0  0
   13.0671   13.4956   22.0939 H   0  0  0  0  0  0  0  0  0  0  0  0
   10.6931   16.1643   20.5868 H   0  0  0  0  0  0  0  0  0  0  0  0
   11.6315   12.3855   23.6682 H   0  0  0  0  0  0  0  0  0  0  0  0
   14.9831   17.2769   19.7909 H   0  0  0  0  0  0  0  0  0  0  0  0
   15.0743   16.6731   21.4747 H   0  0  0  0  0  0  0  0  0  0  0  0
   14.2316   18.2033   21.1161 H   0  0  0  0  0  0  0  0  0  0  0  0
    9.6502   12.3944   21.5488 H   0  0  0  0  0  0  0  0  0  0  0  0
  1  2  3  0  0  0  0
  2  5  1  0  0  0  0
  3  6  1  0  0  0  0
  3  7  2  0  0  0  0
  4  7  1  0  0  0  0
  4 16  2  0  0  0  0
  5  6  2  0  0  0  0
  5 16  1  0  0  0  0
  6 17  1  0  0  0  0
  7 20  1  0  0  0  0
  8 13  1  0  0  0  0
  8 18  2  0  0  0  0
  8 19  1  0  0  0  0
  9 11  1  0  0  0  0
  9 13  1  0  0  0  0
 10 12  1  0  0  0  0
 10 13  1  0  0  0  0
 11 14  1  0  0  0  0
 12 14  1  0  0  0  0
 14 17  1  0  0  0  0
 15 19  1  0  0  0  0
  1 21  1  0  0  0  0
  3 22  1  0  0  0  0
  4 23  1  0  0  0  0
  9 24  1  0  0  0  0
  9 25  1  0  0  0  0
 10 26  1  0  0  0  0
 10 27  1  0  0  0  0
 11 28  1  0  0  0  0
 11 29  1  0  0  0  0
 12 30  1  0  0  0  0
 12 31  1  0  0  0  0
 13 32  1  0  0  0  0
 14 33  1  0  0  0  0
 15 34  1  0  0  0  0
 15 35  1  0  0  0  0
 15 36  1  0  0  0  0
 17 37  1  0  0  0  0
M  END
> <idnumber>
Z5698505639

> <heavy_atoms>
20

> <LogS>
-3.221

> <LogP>
3.12

> <rotating_bonds>
4

> <PSA>
51.22

> <hb_acceptors>
3

> <hb_donors>
1

> <Collection>
Advanced

> <link>
https://www.enaminestore.com/catalog/Z5698505639

> <ROCS_ShapeQuery>
_x1140_x0812_0A_x1140_0A_x1097_0A_x0365_0A_x1097_0A_x0310_0A

> <ROCS_TanimotoCombo>
0.678 

> <ROCS_ShapeTanimoto>
0.250 

> <ROCS_ColorTanimoto>
0.428 

> <ROCS_RefTversky>
0.227 

> <ROCS_RefColorTversky>
0.531 

> <ROCS_RefTverskyCombo>
0.758 

> <ROCS_FitTversky>
1.702 

> <ROCS_FitColorTversky>
0.688 

> <ROCS_FitTverskyCombo>
2.390 

> <ROCS_ColorScore>
-4.197

> <ROCS_Overlap>
2326.194

> <ROCS_Rank>
30                  

$$$$
untitled-dbase-651612_9
  -OEChem-02092421083D

 32 33  0     0  0  0  0  0  0999 V2000
   12.3987   12.2010   19.9292 C   0  0  0  0  0  0  0  0  0  0  0  0
   13.4899   12.8547   19.3570 C   0  0  0  0  0  0  0  0  0  0  0  0
   13.3278   14.5899   21.0303 C   0  0  0  0  0  0  0  0  0  0  0  0
   11.7719   12.7418   21.0519 C   0  0  0  0  0  0  0  0  0  0  0  0
   13.9545   14.0491   19.9075 C   0  0  0  0  0  0  0  0  0  0  0  0
   12.2365   13.9363   21.6024 C   0  0  0  0  0  0  0  0  0  0  0  0
    9.4264   11.6720   23.7384 C   0  0  0  0  0  0  0  0  0  0  0  0
    9.1864   10.3433   23.8411 C   0  0  0  0  0  0  0  0  0  0  0  0
    8.5181   12.6289   24.4422 C   0  0  0  0  0  0  0  0  0  0  0  0
    7.3171   10.6491   25.2011 C   0  0  0  0  0  0  0  0  0  0  0  0
   10.6101   12.0429   21.6590 C   0  0  0  0  0  0  0  0  0  0  0  0
    6.5366   12.8926   25.8812 C   0  0  0  0  0  0  0  0  0  0  0  0
    8.1300    9.8445   24.5742 N   0  0  0  0  0  0  0  0  0  0  0  0
    7.4794   12.0402   25.1581 N   0  0  0  0  0  0  0  0  0  0  0  0
   10.0168    9.4485   23.1969 N   0  0  0  0  0  0  0  0  0  0  0  0
    6.2739   10.1127   25.9216 N   0  0  0  0  0  0  0  0  0  0  0  0
   10.4571   12.2185   23.0259 N   0  0  0  0  0  0  0  0  0  0  0  0
    8.7244   13.8391   24.3567 O   0  0  0  0  0  0  0  0  0  0  0  0
    9.8587   11.3918   20.9375 O   0  0  0  0  0  0  0  0  0  0  0  0
   15.0024   14.6770   19.3581 F   0  0  0  0  0  0  0  0  0  0  0  0
   11.6418   14.4650   22.6810 F   0  0  0  0  0  0  0  0  0  0  0  0
   12.0456   11.2708   19.4916 H   0  0  0  0  0  0  0  0  0  0  0  0
   13.9781   12.4340   18.4830 H   0  0  0  0  0  0  0  0  0  0  0  0
   13.6897   15.5199   21.4586 H   0  0  0  0  0  0  0  0  0  0  0  0
    5.6950   13.1512   25.2218 H   0  0  0  0  0  0  0  0  0  0  0  0
    6.1591   12.3553   26.7637 H   0  0  0  0  0  0  0  0  0  0  0  0
    7.0465   13.8128   26.2026 H   0  0  0  0  0  0  0  0  0  0  0  0
   10.7718    9.8148   22.6733 H   0  0  0  0  0  0  0  0  0  0  0  0
    9.8168    8.4843   23.2899 H   0  0  0  0  0  0  0  0  0  0  0  0
    6.1785    9.1265   25.9372 H   0  0  0  0  0  0  0  0  0  0  0  0
    5.6647   10.7364   26.3924 H   0  0  0  0  0  0  0  0  0  0  0  0
   11.1176   12.7798   23.5476 H   0  0  0  0  0  0  0  0  0  0  0  0
  1  2  2  0  0  0  0
  1  4  1  0  0  0  0
  2  5  1  0  0  0  0
  3  5  2  0  0  0  0
  3  6  1  0  0  0  0
  4  6  2  0  0  0  0
  4 11  1  0  0  0  0
  5 20  1  0  0  0  0
  6 21  1  0  0  0  0
  7  8  2  0  0  0  0
  7  9  1  0  0  0  0
  7 17  1  0  0  0  0
  8 13  1  0  0  0  0
  8 15  1  0  0  0  0
  9 14  1  0  0  0  0
  9 18  2  0  0  0  0
 10 13  2  0  0  0  0
 10 14  1  0  0  0  0
 10 16  1  0  0  0  0
 11 17  1  0  0  0  0
 11 19  2  0  0  0  0
 12 14  1  0  0  0  0
  1 22  1  0  0  0  0
  2 23  1  0  0  0  0
  3 24  1  0  0  0  0
 12 25  1  0  0  0  0
 12 26  1  0  0  0  0
 12 27  1  0  0  0  0
 15 28  1  0  0  0  0
 15 29  1  0  0  0  0
 16 30  1  0  0  0  0
 16 31  1  0  0  0  0
 17 32  1  0  0  0  0
M  END
> <idnumber>
Z225841372

> <heavy_atoms>
21

> <LogS>
-3.43

> <LogP>
-0.26

> <rotating_bonds>
2

> <PSA>
113.81

> <hb_acceptors>
5

> <hb_donors>
3

> <Collection>
HTS

> <link>
https://www.enaminestore.com/catalog/Z225841372

> <ROCS_ShapeQuery>
_x1140_x0812_0A_x1140_0A_x1097_0A_x0365_0A_x1097_0A_x0310_0A

> <ROCS_TanimotoCombo>
0.678 

> <ROCS_ShapeTanimoto>
0.263 

> <ROCS_ColorTanimoto>
0.415 

> <ROCS_RefTversky>
0.238 

> <ROCS_RefColorTversky>
0.652 

> <ROCS_RefTverskyCombo>
0.890 

> <ROCS_FitTversky>
1.672 

> <ROCS_FitColorTversky>
0.533 

> <ROCS_FitTverskyCombo>
2.205 

> <ROCS_ColorScore>
-5.286

> <ROCS_Overlap>
2440.202

> <ROCS_Rank>
31                  

$$$$
untitled-dbase-505927_115
  -OEChem-02092421083D

 37 38  0     1  0  0  0  0  0999 V2000
   13.7732   13.0424   22.6145 C   0  0  0  0  0  0  0  0  0  0  0  0
   12.6188   12.2694   22.4903 C   0  0  0  0  0  0  0  0  0  0  0  0
   13.6743   14.4277   22.7447 C   0  0  0  0  0  0  0  0  0  0  0  0
   11.2665   14.2669   22.6264 C   0  0  0  0  0  0  0  0  0  0  0  0
   11.3655   12.8816   22.4962 C   0  0  0  0  0  0  0  0  0  0  0  0
   12.4209   15.0399   22.7506 C   0  0  0  0  0  0  0  0  0  0  0  0
   10.1476   12.0667   22.3654 C   0  0  0  0  0  0  0  0  0  0  0  0
    7.2431   10.2808   25.0775 C   0  0  0  0  0  0  0  0  0  0  0  0
    7.7762   11.9564   23.3053 C   0  0  0  0  0  0  0  0  0  0  0  0
    9.6526   12.2703   24.7866 C   0  0  0  0  0  0  0  0  0  0  0  0
    7.3028   11.7430   24.7463 C   0  0  2  0  0  0  0  0  0  0  0  0
    8.3620   12.4906   25.5803 C   0  0  2  0  0  0  0  0  0  0  0  0
    8.0376   13.9815   25.7004 C   0  0  0  0  0  0  0  0  0  0  0  0
   13.5440   17.1213   23.0007 C   0  0  0  0  0  0  0  0  0  0  0  0
    9.2278   12.1174   23.4021 N   0  0  0  0  0  0  0  0  0  0  0  0
    6.2890    9.9631   26.0150 N   0  0  0  0  0  0  0  0  0  0  0  0
   10.0214   11.4009   21.3396 O   0  0  0  0  0  0  0  0  0  0  0  0
    7.9774    9.4582   24.5356 O   0  0  0  0  0  0  0  0  0  0  0  0
   12.3241   16.3915   22.8777 O   0  0  0  0  0  0  0  0  0  0  0  0
   14.7489   12.5656   22.6098 H   0  0  0  0  0  0  0  0  0  0  0  0
   12.7071   11.1908   22.3904 H   0  0  0  0  0  0  0  0  0  0  0  0
   14.5771   15.0245   22.8411 H   0  0  0  0  0  0  0  0  0  0  0  0
   10.2917   14.7492   22.6323 H   0  0  0  0  0  0  0  0  0  0  0  0
    7.5712   11.0942   22.6567 H   0  0  0  0  0  0  0  0  0  0  0  0
    7.3230   12.8452   22.8502 H   0  0  0  0  0  0  0  0  0  0  0  0
   10.3252   13.1363   24.8322 H   0  0  0  0  0  0  0  0  0  0  0  0
   10.2082   11.3848   25.1167 H   0  0  0  0  0  0  0  0  0  0  0  0
    6.2999   12.1782   24.8892 H   0  0  0  0  0  0  0  0  0  0  0  0
    8.4524   12.0673   26.5732 H   0  0  0  0  0  0  0  0  0  0  0  0
    7.9426   14.4264   24.7088 H   0  0  0  0  0  0  0  0  0  0  0  0
    8.8326   14.4965   26.2418 H   0  0  0  0  0  0  0  0  0  0  0  0
    7.0989   14.1196   26.2391 H   0  0  0  0  0  0  0  0  0  0  0  0
   13.3238   18.1874   23.0948 H   0  0  0  0  0  0  0  0  0  0  0  0
   14.1665   16.9432   22.1202 H   0  0  0  0  0  0  0  0  0  0  0  0
   14.0735   16.7807   23.8937 H   0  0  0  0  0  0  0  0  0  0  0  0
    5.7175   10.7079   26.3999 H   0  0  0  0  0  0  0  0  0  0  0  0
    6.1333    9.0135   26.3375 H   0  0  0  0  0  0  0  0  0  0  0  0
  1  2  1  0  0  0  0
  1  3  2  0  0  0  0
  2  5  2  0  0  0  0
  3  6  1  0  0  0  0
  4  5  1  0  0  0  0
  4  6  2  0  0  0  0
  5  7  1  0  0  0  0
  6 19  1  0  0  0  0
  7 15  1  0  0  0  0
  7 17  2  0  0  0  0
  8 11  1  6  0  0  0
  8 16  1  0  0  0  0
  8 18  2  0  0  0  0
  9 11  1  0  0  0  0
  9 15  1  0  0  0  0
 10 12  1  0  0  0  0
 10 15  1  0  0  0  0
 11 12  1  0  0  0  0
 12 13  1  1  0  0  0
 14 19  1  0  0  0  0
  1 20  1  0  0  0  0
  2 21  1  0  0  0  0
  3 22  1  0  0  0  0
  4 23  1  0  0  0  0
  9 24  1  0  0  0  0
  9 25  1  0  0  0  0
 10 26  1  0  0  0  0
 10 27  1  0  0  0  0
 11 28  1  0  0  0  0
 12 29  1  0  0  0  0
 13 30  1  0  0  0  0
 13 31  1  0  0  0  0
 13 32  1  0  0  0  0
 14 33  1  0  0  0  0
 14 34  1  0  0  0  0
 14 35  1  0  0  0  0
 16 36  1  0  0  0  0
 16 37  1  0  0  0  0
M  END
> <idnumber>
Z2055165621

> <heavy_atoms>
19

> <LogS>
-2.788

> <LogP>
0.649

> <rotating_bonds>
3

> <PSA>
72.63

> <hb_acceptors>
3

> <hb_donors>
1

> <Collection>
Legacy

> <link>
https://www.enaminestore.com/catalog/Z2055165621

> <ROCS_ShapeQuery>
_x1140_x0812_0A_x1140_0A_x1097_0A_x0365_0A_x1097_0A_x0310_0A

> <ROCS_TanimotoCombo>
0.678 

> <ROCS_ShapeTanimoto>
0.223 

> <ROCS_ColorTanimoto>
0.455 

> <ROCS_RefTversky>
0.206 

> <ROCS_RefColorTversky>
0.554 

> <ROCS_RefTverskyCombo>
0.760 

> <ROCS_FitTversky>
1.582 

> <ROCS_FitColorTversky>
0.717 

> <ROCS_FitTverskyCombo>
2.299 

> <ROCS_ColorScore>
-4.375

> <ROCS_Overlap>
2116.321

> <ROCS_Rank>
32                  

$$$$
untitled-dbase-54342_11
  -OEChem-02092421083D

 32 32  0     0  0  0  0  0  0999 V2000
    7.5596   12.1019   25.1697 C   0  0  0  0  0  0  0  0  0  0  0  0
    8.4787   12.5299   24.2181 C   0  0  0  0  0  0  0  0  0  0  0  0
    7.4614   10.7410   25.4105 C   0  0  0  0  0  0  0  0  0  0  0  0
    9.2606   11.5970   23.5460 C   0  0  0  0  0  0  0  0  0  0  0  0
    9.0864   10.2587   23.8597 C   0  0  0  0  0  0  0  0  0  0  0  0
   10.2267   12.0596   22.5371 C   0  0  0  0  0  0  0  0  0  0  0  0
   11.0300   15.1711   22.0134 C   0  0  0  0  0  0  0  0  0  0  0  0
   12.9923   12.0651   24.3928 C   0  0  0  0  0  0  0  0  0  0  0  0
    9.3123    8.2621   22.3804 C   0  0  0  0  0  0  0  0  0  0  0  0
   11.7858   13.8864   21.9838 C   0  0  0  0  0  0  0  0  0  0  0  0
   11.8215   12.9812   24.2813 C   0  0  0  0  0  0  0  0  0  0  0  0
    8.2038    9.8050   24.7778 N   0  0  0  0  0  0  0  0  0  0  0  0
    9.8781    9.3011   23.1769 N   0  0  0  0  0  0  0  0  0  0  0  0
   11.2408   12.9341   22.9411 N   0  0  0  0  0  0  0  0  0  0  0  0
   10.0736   11.6237   21.3967 O   0  0  0  0  0  0  0  0  0  0  0  0
    6.9385   12.8113   25.7045 H   0  0  0  0  0  0  0  0  0  0  0  0
    8.5763   13.5919   24.0088 H   0  0  0  0  0  0  0  0  0  0  0  0
    6.7597   10.3561   26.1431 H   0  0  0  0  0  0  0  0  0  0  0  0
   11.0883   15.6083   23.0211 H   0  0  0  0  0  0  0  0  0  0  0  0
   11.4666   15.8701   21.2848 H   0  0  0  0  0  0  0  0  0  0  0  0
    9.9772   14.9831   21.7558 H   0  0  0  0  0  0  0  0  0  0  0  0
   13.7604   12.3603   23.6628 H   0  0  0  0  0  0  0  0  0  0  0  0
   13.4097   12.1256   25.4087 H   0  0  0  0  0  0  0  0  0  0  0  0
   12.6708   11.0330   24.1894 H   0  0  0  0  0  0  0  0  0  0  0  0
    8.2155    8.3433   22.3962 H   0  0  0  0  0  0  0  0  0  0  0  0
    9.6720    8.3567   21.3452 H   0  0  0  0  0  0  0  0  0  0  0  0
    9.6134    7.2847   22.7853 H   0  0  0  0  0  0  0  0  0  0  0  0
   11.7227   13.4559   20.9735 H   0  0  0  0  0  0  0  0  0  0  0  0
   12.8388   14.0835   22.2333 H   0  0  0  0  0  0  0  0  0  0  0  0
   11.0585   12.6796   25.0140 H   0  0  0  0  0  0  0  0  0  0  0  0
   12.1486   14.0095   24.4948 H   0  0  0  0  0  0  0  0  0  0  0  0
   10.8686    9.3849   23.2796 H   0  0  0  0  0  0  0  0  0  0  0  0
  1  2  2  0  0  0  0
  1  3  1  0  0  0  0
  2  4  1  0  0  0  0
  3 12  2  0  0  0  0
  4  5  2  0  0  0  0
  4  6  1  0  0  0  0
  5 12  1  0  0  0  0
  5 13  1  0  0  0  0
  6 14  1  0  0  0  0
  6 15  2  0  0  0  0
  7 10  1  0  0  0  0
  8 11  1  0  0  0  0
  9 13  1  0  0  0  0
 10 14  1  0  0  0  0
 11 14  1  0  0  0  0
  1 16  1  0  0  0  0
  2 17  1  0  0  0  0
  3 18  1  0  0  0  0
  7 19  1  0  0  0  0
  7 20  1  0  0  0  0
  7 21  1  0  0  0  0
  8 22  1  0  0  0  0
  8 23  1  0  0  0  0
  8 24  1  0  0  0  0
  9 25  1  0  0  0  0
  9 26  1  0  0  0  0
  9 27  1  0  0  0  0
 10 28  1  0  0  0  0
 10 29  1  0  0  0  0
 11 30  1  0  0  0  0
 11 31  1  0  0  0  0
 13 32  1  0  0  0  0
M  END
> <idnumber>
Z960169668

> <heavy_atoms>
15

> <LogS>
-1.632

> <LogP>
1.121

> <rotating_bonds>
4

> <PSA>
45.23

> <hb_acceptors>
3

> <hb_donors>
1

> <Collection>
Advanced

> <link>
https://www.enaminestore.com/catalog/Z960169668

> <ROCS_ShapeQuery>
_x1140_x0812_0A_x1140_0A_x1097_0A_x0365_0A_x1097_0A_x0310_0A

> <ROCS_TanimotoCombo>
0.676 

> <ROCS_ShapeTanimoto>
0.244 

> <ROCS_ColorTanimoto>
0.432 

> <ROCS_RefTversky>
0.218 

> <ROCS_RefColorTversky>
0.464 

> <ROCS_RefTverskyCombo>
0.683 

> <ROCS_FitTversky>
1.939 

> <ROCS_FitColorTversky>
0.863 

> <ROCS_FitTverskyCombo>
2.802 

> <ROCS_ColorScore>
-3.623

> <ROCS_Overlap>
2236.221

> <ROCS_Rank>
33                  

$$$$
untitled-dbase-1048253_154
  -OEChem-02092421083D

 31 32  0     0  0  0  0  0  0999 V2000
    8.3683   12.4208   24.2065 C   0  0  0  0  0  0  0  0  0  0  0  0
    8.9743   10.1717   23.7259 C   0  0  0  0  0  0  0  0  0  0  0  0
    9.1825   11.5261   23.5209 C   0  0  0  0  0  0  0  0  0  0  0  0
    7.3847   11.9406   25.0639 C   0  0  0  0  0  0  0  0  0  0  0  0
    7.2569   10.5676   25.1997 C   0  0  0  0  0  0  0  0  0  0  0  0
   10.2349   12.0031   22.6043 C   0  0  0  0  0  0  0  0  0  0  0  0
   11.5021   13.3006   24.4715 C   0  0  0  0  0  0  0  0  0  0  0  0
   12.2584   13.5624   22.4839 C   0  0  0  0  0  0  0  0  0  0  0  0
   12.3703   14.3740   23.7876 C   0  0  0  0  0  0  0  0  0  0  0  0
   11.7708   15.7710   23.7432 C   0  0  0  0  0  0  0  0  0  0  0  0
   13.6937   17.0709   23.0730 C   0  0  0  0  0  0  0  0  0  0  0  0
    8.0291    9.6676   24.5506 N   0  0  0  0  0  0  0  0  0  0  0  0
   11.2145   12.7970   23.1416 N   0  0  0  0  0  0  0  0  0  0  0  0
    6.2598   10.0594   26.0690 N   0  0  0  0  0  0  0  0  0  0  0  0
   10.1672   11.6834   21.4200 O   0  0  0  0  0  0  0  0  0  0  0  0
   12.4247   16.5207   22.7312 O   0  0  0  0  0  0  0  0  0  0  0  0
   13.9861   18.0622   22.1969 F   0  0  0  0  0  0  0  0  0  0  0  0
   14.6347   16.1092   22.9174 F   0  0  0  0  0  0  0  0  0  0  0  0
    6.3844   13.0627   25.9059 Cl  0  0  0  0  0  0  0  0  0  0  0  0
    8.5050   13.4911   24.0686 H   0  0  0  0  0  0  0  0  0  0  0  0
    9.5781    9.4250   23.2191 H   0  0  0  0  0  0  0  0  0  0  0  0
   12.0479   12.5960   25.1071 H   0  0  0  0  0  0  0  0  0  0  0  0
   10.6026   13.6558   24.9868 H   0  0  0  0  0  0  0  0  0  0  0  0
   11.8892   14.1038   21.6054 H   0  0  0  0  0  0  0  0  0  0  0  0
   13.1503   12.9831   22.2244 H   0  0  0  0  0  0  0  0  0  0  0  0
   13.3888   14.4005   24.1791 H   0  0  0  0  0  0  0  0  0  0  0  0
   11.9089   16.2765   24.7029 H   0  0  0  0  0  0  0  0  0  0  0  0
   10.7031   15.7215   23.5128 H   0  0  0  0  0  0  0  0  0  0  0  0
   13.7092   17.4622   24.0949 H   0  0  0  0  0  0  0  0  0  0  0  0
    5.7082   10.7010   26.5958 H   0  0  0  0  0  0  0  0  0  0  0  0
    6.1968    9.0739   26.2046 H   0  0  0  0  0  0  0  0  0  0  0  0
  1  3  2  0  0  0  0
  1  4  1  0  0  0  0
  2  3  1  0  0  0  0
  2 12  2  0  0  0  0
  3  6  1  0  0  0  0
  4  5  2  0  0  0  0
  4 19  1  0  0  0  0
  5 12  1  0  0  0  0
  5 14  1  0  0  0  0
  6 13  1  0  0  0  0
  6 15  2  0  0  0  0
  7  9  1  0  0  0  0
  7 13  1  0  0  0  0
  8  9  1  0  0  0  0
  8 13  1  0  0  0  0
  9 10  1  0  0  0  0
 10 16  1  0  0  0  0
 11 16  1  0  0  0  0
 11 17  1  0  0  0  0
 11 18  1  0  0  0  0
  1 20  1  0  0  0  0
  2 21  1  0  0  0  0
  7 22  1  0  0  0  0
  7 23  1  0  0  0  0
  8 24  1  0  0  0  0
  8 25  1  0  0  0  0
  9 26  1  0  0  0  0
 10 27  1  0  0  0  0
 10 28  1  0  0  0  0
 11 29  1  0  0  0  0
 14 30  1  0  0  0  0
 14 31  1  0  0  0  0
M  END
> <idnumber>
Z3645817421

> <heavy_atoms>
19

> <LogS>
-2.972

> <LogP>
0.334

> <rotating_bonds>
4

> <PSA>
68.45

> <hb_acceptors>
4

> <hb_donors>
1

> <Collection>
Advanced

> <link>
https://www.enaminestore.com/catalog/Z3645817421

> <ROCS_ShapeQuery>
_x1140_x0812_0A_x1140_0A_x1097_0A_x0365_0A_x1097_0A_x0310_0A

> <ROCS_TanimotoCombo>
0.676 

> <ROCS_ShapeTanimoto>
0.246 

> <ROCS_ColorTanimoto>
0.431 

> <ROCS_RefTversky>
0.223 

> <ROCS_RefColorTversky>
0.568 

> <ROCS_RefTverskyCombo>
0.791 

> <ROCS_FitTversky>
1.715 

> <ROCS_FitColorTversky>
0.640 

> <ROCS_FitTverskyCombo>
2.355 

> <ROCS_ColorScore>
-4.518

> <ROCS_Overlap>
2286.883

> <ROCS_Rank>
34                  

$$$$
untitled-dbase-1008009_32
  -OEChem-02092421083D

 32 33  0     0  0  0  0  0  0999 V2000
    8.3623   12.6623   24.1302 C   0  0  0  0  0  0  0  0  0  0  0  0
    7.3750   12.0717   24.9111 C   0  0  0  0  0  0  0  0  0  0  0  0
   12.0800   15.4357   21.6539 C   0  0  0  0  0  0  0  0  0  0  0  0
    9.2655   10.4991   23.7284 C   0  0  0  0  0  0  0  0  0  0  0  0
   11.7571   15.4964   23.9031 C   0  0  0  0  0  0  0  0  0  0  0  0
   11.4519   14.2100   21.5660 C   0  0  0  0  0  0  0  0  0  0  0  0
    9.3292   11.8681   23.5241 C   0  0  0  0  0  0  0  0  0  0  0  0
    7.3986   10.6937   25.0532 C   0  0  0  0  0  0  0  0  0  0  0  0
   10.9911   13.6885   22.7576 C   0  0  0  0  0  0  0  0  0  0  0  0
   11.2999   13.5252   20.2555 C   0  0  0  0  0  0  0  0  0  0  0  0
    5.2797   11.5804   27.4016 C   0  0  0  0  0  0  0  0  0  0  0  0
    5.1610   10.7724   26.1544 C   0  0  0  0  0  0  0  0  0  0  0  0
   12.2504   16.1094   22.8103 N   0  0  0  0  0  0  0  0  0  0  0  0
    8.3217    9.8893   24.4801 N   0  0  0  0  0  0  0  0  0  0  0  0
   11.1273   14.3069   23.9490 N   0  0  0  0  0  0  0  0  0  0  0  0
   10.3395   12.4357   22.7306 N   0  0  0  0  0  0  0  0  0  0  0  0
    6.3865   10.1072   25.8535 N   0  0  0  0  0  0  0  0  0  0  0  0
    8.3692   13.7412   24.0001 H   0  0  0  0  0  0  0  0  0  0  0  0
    6.6169   12.6840   25.3883 H   0  0  0  0  0  0  0  0  0  0  0  0
   12.4784   15.9315   20.7742 H   0  0  0  0  0  0  0  0  0  0  0  0
    9.9923    9.8274   23.2816 H   0  0  0  0  0  0  0  0  0  0  0  0
   11.8800   16.0153   24.8458 H   0  0  0  0  0  0  0  0  0  0  0  0
   12.1625   12.8745   20.0566 H   0  0  0  0  0  0  0  0  0  0  0  0
   10.3900   12.9087   20.2256 H   0  0  0  0  0  0  0  0  0  0  0  0
   11.2164   14.2473   19.4303 H   0  0  0  0  0  0  0  0  0  0  0  0
    6.0711   12.3342   27.2769 H   0  0  0  0  0  0  0  0  0  0  0  0
    4.3229   12.0837   27.6047 H   0  0  0  0  0  0  0  0  0  0  0  0
    5.5324   10.9195   28.2438 H   0  0  0  0  0  0  0  0  0  0  0  0
    4.3681   10.0215   26.2871 H   0  0  0  0  0  0  0  0  0  0  0  0
    4.8992   11.4382   25.3188 H   0  0  0  0  0  0  0  0  0  0  0  0
   10.6705   11.8258   21.9855 H   0  0  0  0  0  0  0  0  0  0  0  0
    6.5703    9.1906   26.2068 H   0  0  0  0  0  0  0  0  0  0  0  0
  1  2  2  0  0  0  0
  1  7  1  0  0  0  0
  2  8  1  0  0  0  0
  3  6  1  0  0  0  0
  3 13  2  0  0  0  0
  4  7  2  0  0  0  0
  4 14  1  0  0  0  0
  5 13  1  0  0  0  0
  5 15  2  0  0  0  0
  6  9  2  0  0  0  0
  6 10  1  0  0  0  0
  7 16  1  0  0  0  0
  8 14  2  0  0  0  0
  8 17  1  0  0  0  0
  9 15  1  0  0  0  0
  9 16  1  0  0  0  0
 11 12  1  0  0  0  0
 12 17  1  0  0  0  0
  1 18  1  0  0  0  0
  2 19  1  0  0  0  0
  3 20  1  0  0  0  0
  4 21  1  0  0  0  0
  5 22  1  0  0  0  0
 10 23  1  0  0  0  0
 10 24  1  0  0  0  0
 10 25  1  0  0  0  0
 11 26  1  0  0  0  0
 11 27  1  0  0  0  0
 11 28  1  0  0  0  0
 12 29  1  0  0  0  0
 12 30  1  0  0  0  0
 16 31  1  0  0  0  0
 17 32  1  0  0  0  0
M  END
> <idnumber>
Z3079948455

> <heavy_atoms>
17

> <LogS>
-2.272

> <LogP>
2.599

> <rotating_bonds>
4

> <PSA>
62.73

> <hb_acceptors>
5

> <hb_donors>
2

> <Collection>
HTS

> <link>
https://www.enaminestore.com/catalog/Z3079948455

> <ROCS_ShapeQuery>
_x1140_x0812_0A_x1140_0A_x1097_0A_x0365_0A_x1097_0A_x0310_0A

> <ROCS_TanimotoCombo>
0.676 

> <ROCS_ShapeTanimoto>
0.239 

> <ROCS_ColorTanimoto>
0.437 

> <ROCS_RefTversky>
0.217 

> <ROCS_RefColorTversky>
0.574 

> <ROCS_RefTverskyCombo>
0.791 

> <ROCS_FitTversky>
1.760 

> <ROCS_FitColorTversky>
0.647 

> <ROCS_FitTverskyCombo>
2.406 

> <ROCS_ColorScore>
-4.564

> <ROCS_Overlap>
2222.428

> <ROCS_Rank>
35                  

$$$$
untitled-dbase-1008011_33
  -OEChem-02092421083D

 35 36  0     0  0  0  0  0  0999 V2000
    8.7778   12.6028   24.6032 C   0  0  0  0  0  0  0  0  0  0  0  0
    7.7588   12.0286   25.3551 C   0  0  0  0  0  0  0  0  0  0  0  0
    9.0942   10.5059   23.5265 C   0  0  0  0  0  0  0  0  0  0  0  0
   12.1558   15.4056   23.8315 C   0  0  0  0  0  0  0  0  0  0  0  0
   11.0152   14.3592   21.6374 C   0  0  0  0  0  0  0  0  0  0  0  0
    9.4632   11.8338   23.6693 C   0  0  0  0  0  0  0  0  0  0  0  0
   11.5878   15.6147   21.6404 C   0  0  0  0  0  0  0  0  0  0  0  0
    7.4661   10.6921   25.1367 C   0  0  0  0  0  0  0  0  0  0  0  0
   11.0671   13.6764   22.8355 C   0  0  0  0  0  0  0  0  0  0  0  0
   10.3849   13.7875   20.4157 C   0  0  0  0  0  0  0  0  0  0  0  0
   11.5921   16.4480   20.4011 C   0  0  0  0  0  0  0  0  0  0  0  0
    4.6336   11.6934   26.2404 C   0  0  0  0  0  0  0  0  0  0  0  0
    5.6932   10.8653   26.8838 C   0  0  0  0  0  0  0  0  0  0  0  0
    8.1099    9.9131   24.2387 N   0  0  0  0  0  0  0  0  0  0  0  0
   12.1690   16.1710   22.7236 N   0  0  0  0  0  0  0  0  0  0  0  0
   11.6320   14.1712   23.9564 N   0  0  0  0  0  0  0  0  0  0  0  0
   10.4976   12.3853   22.8959 N   0  0  0  0  0  0  0  0  0  0  0  0
    6.4260   10.1213   25.9120 N   0  0  0  0  0  0  0  0  0  0  0  0
    9.0296   13.6494   24.7521 H   0  0  0  0  0  0  0  0  0  0  0  0
    7.2192   12.6213   26.0864 H   0  0  0  0  0  0  0  0  0  0  0  0
    9.5924    9.8553   22.8140 H   0  0  0  0  0  0  0  0  0  0  0  0
   12.6158   15.8277   24.7165 H   0  0  0  0  0  0  0  0  0  0  0  0
   11.1243   13.2290   19.8271 H   0  0  0  0  0  0  0  0  0  0  0  0
    9.5606   13.1073   20.6706 H   0  0  0  0  0  0  0  0  0  0  0  0
    9.9587   14.5747   19.7786 H   0  0  0  0  0  0  0  0  0  0  0  0
   10.6910   17.0708   20.3590 H   0  0  0  0  0  0  0  0  0  0  0  0
   12.4715   17.1028   20.3667 H   0  0  0  0  0  0  0  0  0  0  0  0
   11.6259   15.8206   19.5017 H   0  0  0  0  0  0  0  0  0  0  0  0
    3.9371   11.0396   25.6950 H   0  0  0  0  0  0  0  0  0  0  0  0
    4.0840   12.2506   27.0134 H   0  0  0  0  0  0  0  0  0  0  0  0
    5.0977   12.4015   25.5381 H   0  0  0  0  0  0  0  0  0  0  0  0
    6.3851   11.5260   27.4268 H   0  0  0  0  0  0  0  0  0  0  0  0
    5.2227   10.1664   27.5911 H   0  0  0  0  0  0  0  0  0  0  0  0
   10.9243   11.7264   22.2475 H   0  0  0  0  0  0  0  0  0  0  0  0
    6.2234    9.1565   25.7480 H   0  0  0  0  0  0  0  0  0  0  0  0
  1  2  2  0  0  0  0
  1  6  1  0  0  0  0
  2  8  1  0  0  0  0
  3  6  2  0  0  0  0
  3 14  1  0  0  0  0
  4 15  1  0  0  0  0
  4 16  2  0  0  0  0
  5  7  1  0  0  0  0
  5  9  2  0  0  0  0
  5 10  1  0  0  0  0
  6 17  1  0  0  0  0
  7 11  1  0  0  0  0
  7 15  2  0  0  0  0
  8 14  2  0  0  0  0
  8 18  1  0  0  0  0
  9 16  1  0  0  0  0
  9 17  1  0  0  0  0
 12 13  1  0  0  0  0
 13 18  1  0  0  0  0
  1 19  1  0  0  0  0
  2 20  1  0  0  0  0
  3 21  1  0  0  0  0
  4 22  1  0  0  0  0
 10 23  1  0  0  0  0
 10 24  1  0  0  0  0
 10 25  1  0  0  0  0
 11 26  1  0  0  0  0
 11 27  1  0  0  0  0
 11 28  1  0  0  0  0
 12 29  1  0  0  0  0
 12 30  1  0  0  0  0
 12 31  1  0  0  0  0
 13 32  1  0  0  0  0
 13 33  1  0  0  0  0
 17 34  1  0  0  0  0
 18 35  1  0  0  0  0
M  END
> <idnumber>
Z3079948490

> <heavy_atoms>
18

> <LogS>
-2.445

> <LogP>
3.048

> <rotating_bonds>
4

> <PSA>
62.73

> <hb_acceptors>
5

> <hb_donors>
2

> <Collection>
HTS

> <link>
https://www.enaminestore.com/catalog/Z3079948490

> <ROCS_ShapeQuery>
_x1140_x0812_0A_x1140_0A_x1097_0A_x0365_0A_x1097_0A_x0310_0A

> <ROCS_TanimotoCombo>
0.675 

> <ROCS_ShapeTanimoto>
0.239 

> <ROCS_ColorTanimoto>
0.436 

> <ROCS_RefTversky>
0.218 

> <ROCS_RefColorTversky>
0.573 

> <ROCS_RefTverskyCombo>
0.791 

> <ROCS_FitTversky>
1.711 

> <ROCS_FitColorTversky>
0.646 

> <ROCS_FitTverskyCombo>
2.357 

> <ROCS_ColorScore>
-4.556

> <ROCS_Overlap>
2232.945

> <ROCS_Rank>
36                  

$$$$
untitled-dbase-1182733_8
  -OEChem-02092421083D

 31 33  0     0  0  0  0  0  0999 V2000
   11.8463   15.2586   22.4638 C   0  0  0  0  0  0  0  0  0  0  0  0
    6.8125   12.4358   26.8306 C   0  0  0  0  0  0  0  0  0  0  0  0
    7.4105   13.5112   26.1698 C   0  0  0  0  0  0  0  0  0  0  0  0
    7.0019   11.1209   26.3869 C   0  0  0  0  0  0  0  0  0  0  0  0
    8.2176   13.3137   25.0445 C   0  0  0  0  0  0  0  0  0  0  0  0
   11.3518   13.5215   20.8187 C   0  0  0  0  0  0  0  0  0  0  0  0
   10.4545   13.3355   23.0424 C   0  0  0  0  0  0  0  0  0  0  0  0
   10.7185   12.3255   20.5213 C   0  0  0  0  0  0  0  0  0  0  0  0
   11.2123   14.0293   22.1055 C   0  0  0  0  0  0  0  0  0  0  0  0
    7.8095   10.9041   25.2577 C   0  0  0  0  0  0  0  0  0  0  0  0
    8.3920   11.9960   24.6204 C   0  0  0  0  0  0  0  0  0  0  0  0
    9.8612   12.1479   22.6453 C   0  0  0  0  0  0  0  0  0  0  0  0
    8.9239   10.0919   23.6274 C   0  0  0  0  0  0  0  0  0  0  0  0
   11.0745    9.2892   22.6189 C   0  0  0  0  0  0  0  0  0  0  0  0
    9.5480    9.1736   22.6500 C   0  0  0  0  0  0  0  0  0  0  0  0
   12.3614   16.2571   22.7547 N   0  0  0  0  0  0  0  0  0  0  0  0
    9.9741   11.6231   21.4046 N   0  0  0  0  0  0  0  0  0  0  0  0
    8.1513    9.7299   24.6269 N   0  0  0  0  0  0  0  0  0  0  0  0
    9.0989   11.4470   23.5815 N   0  0  0  0  0  0  0  0  0  0  0  0
    6.1901   12.6210   27.7024 H   0  0  0  0  0  0  0  0  0  0  0  0
    7.2459   14.5215   26.5363 H   0  0  0  0  0  0  0  0  0  0  0  0
    6.5324   10.2920   26.9069 H   0  0  0  0  0  0  0  0  0  0  0  0
    8.6803   14.1509   24.5345 H   0  0  0  0  0  0  0  0  0  0  0  0
   11.9347   14.0343   20.0605 H   0  0  0  0  0  0  0  0  0  0  0  0
   10.3322   13.7144   24.0534 H   0  0  0  0  0  0  0  0  0  0  0  0
   10.7962   11.8869   19.5318 H   0  0  0  0  0  0  0  0  0  0  0  0
   11.3825   10.3187   22.4065 H   0  0  0  0  0  0  0  0  0  0  0  0
   11.5042    8.6411   21.8486 H   0  0  0  0  0  0  0  0  0  0  0  0
   11.5061    9.0017   23.5836 H   0  0  0  0  0  0  0  0  0  0  0  0
    9.2801    8.1225   22.8667 H   0  0  0  0  0  0  0  0  0  0  0  0
    9.1612    9.3580   21.6301 H   0  0  0  0  0  0  0  0  0  0  0  0
  1  9  1  0  0  0  0
  1 16  3  0  0  0  0
  2  3  1  0  0  0  0
  2  4  2  0  0  0  0
  3  5  2  0  0  0  0
  4 10  1  0  0  0  0
  5 11  1  0  0  0  0
  6  8  2  0  0  0  0
  6  9  1  0  0  0  0
  7  9  2  0  0  0  0
  7 12  1  0  0  0  0
  8 17  1  0  0  0  0
 10 11  2  0  0  0  0
 10 18  1  0  0  0  0
 11 19  1  0  0  0  0
 12 17  2  0  0  0  0
 12 19  1  0  0  0  0
 13 15  1  0  0  0  0
 13 18  2  0  0  0  0
 13 19  1  0  0  0  0
 14 15  1  0  0  0  0
  2 20  1  0  0  0  0
  3 21  1  0  0  0  0
  4 22  1  0  0  0  0
  5 23  1  0  0  0  0
  6 24  1  0  0  0  0
  7 25  1  0  0  0  0
  8 26  1  0  0  0  0
 14 27  1  0  0  0  0
 14 28  1  0  0  0  0
 14 29  1  0  0  0  0
 15 30  1  0  0  0  0
 15 31  1  0  0  0  0
M  END
> <idnumber>
Z8814781373

> <heavy_atoms>
19

> <LogS>
-3.355

> <LogP>
2.694

> <rotating_bonds>
2

> <PSA>
54.5

> <hb_acceptors>
3

> <hb_donors>
0

> <Collection>
Advanced

> <link>
https://www.enaminestore.com/catalog/Z8814781373

> <ROCS_ShapeQuery>
_x1140_x0812_0A_x1140_0A_x1097_0A_x0365_0A_x1097_0A_x0310_0A

> <ROCS_TanimotoCombo>
0.675 

> <ROCS_ShapeTanimoto>
0.287 

> <ROCS_ColorTanimoto>
0.388 

> <ROCS_RefTversky>
0.253 

> <ROCS_RefColorTversky>
0.559 

> <ROCS_RefTverskyCombo>
0.813 

> <ROCS_FitTversky>
1.884 

> <ROCS_FitColorTversky>
0.558 

> <ROCS_FitTverskyCombo>
2.442 

> <ROCS_ColorScore>
-4.475

> <ROCS_Overlap>
2599.925

> <ROCS_Rank>
37                  

$$$$
untitled-dbase-755509_11
  -OEChem-02092421083D

 22 22  0     0  0  0  0  0  0999 V2000
   11.9178   15.2950   22.2936 C   0  0  0  0  0  0  0  0  0  0  0  0
    8.5117   12.4342   24.4868 C   0  0  0  0  0  0  0  0  0  0  0  0
    8.8853   10.2400   23.6488 C   0  0  0  0  0  0  0  0  0  0  0  0
    7.5824   10.5053   25.5223 C   0  0  0  0  0  0  0  0  0  0  0  0
    9.1005   11.6044   23.5392 C   0  0  0  0  0  0  0  0  0  0  0  0
    7.7366   11.8821   25.5007 C   0  0  0  0  0  0  0  0  0  0  0  0
    9.9156   12.1503   22.4682 C   0  0  0  0  0  0  0  0  0  0  0  0
   11.3848   14.0500   21.7435 C   0  0  0  0  0  0  0  0  0  0  0  0
    7.0934   12.7425   26.5293 C   0  0  0  0  0  0  0  0  0  0  0  0
   12.3429   16.2837   22.7273 N   0  0  0  0  0  0  0  0  0  0  0  0
    8.1388    9.6670   24.6193 N   0  0  0  0  0  0  0  0  0  0  0  0
   10.5596   13.3692   22.7153 N   0  0  0  0  0  0  0  0  0  0  0  0
   10.0088   11.5568   21.3780 O   0  0  0  0  0  0  0  0  0  0  0  0
    7.3433   14.0772   26.3668 F   0  0  0  0  0  0  0  0  0  0  0  0
    5.7300   12.6404   26.5586 F   0  0  0  0  0  0  0  0  0  0  0  0
    7.5062   12.4486   27.7984 F   0  0  0  0  0  0  0  0  0  0  0  0
    8.6557   13.5109   24.4368 H   0  0  0  0  0  0  0  0  0  0  0  0
    9.3187    9.5418   22.9390 H   0  0  0  0  0  0  0  0  0  0  0  0
    6.9887   10.0178   26.2894 H   0  0  0  0  0  0  0  0  0  0  0  0
   10.7672   14.2413   20.8613 H   0  0  0  0  0  0  0  0  0  0  0  0
   12.1910   13.3680   21.4587 H   0  0  0  0  0  0  0  0  0  0  0  0
   10.4001   13.8432   23.5983 H   0  0  0  0  0  0  0  0  0  0  0  0
  1  8  1  0  0  0  0
  1 10  3  0  0  0  0
  2  5  1  0  0  0  0
  2  6  2  0  0  0  0
  3  5  2  0  0  0  0
  3 11  1  0  0  0  0
  4  6  1  0  0  0  0
  4 11  2  0  0  0  0
  5  7  1  0  0  0  0
  6  9  1  0  0  0  0
  7 12  1  0  0  0  0
  7 13  2  0  0  0  0
  8 12  1  0  0  0  0
  9 14  1  0  0  0  0
  9 15  1  0  0  0  0
  9 16  1  0  0  0  0
  2 17  1  0  0  0  0
  3 18  1  0  0  0  0
  4 19  1  0  0  0  0
  8 20  1  0  0  0  0
  8 21  1  0  0  0  0
 12 22  1  0  0  0  0
M  END
> <idnumber>
Z2164393927

> <heavy_atoms>
16

> <LogS>
-1.934

> <LogP>
0.465

> <rotating_bonds>
3

> <PSA>
65.78

> <hb_acceptors>
3

> <hb_donors>
1

> <Collection>
Functional

> <link>
https://www.enaminestore.com/catalog/Z2164393927

> <ROCS_ShapeQuery>
_x1140_x0812_0A_x1140_0A_x1097_0A_x0365_0A_x1097_0A_x0310_0A

> <ROCS_TanimotoCombo>
0.675 

> <ROCS_ShapeTanimoto>
0.235 

> <ROCS_ColorTanimoto>
0.440 

> <ROCS_RefTversky>
0.213 

> <ROCS_RefColorTversky>
0.506 

> <ROCS_RefTverskyCombo>
0.719 

> <ROCS_FitTversky>
1.798 

> <ROCS_FitColorTversky>
0.772 

> <ROCS_FitTverskyCombo>
2.569 

> <ROCS_ColorScore>
-3.974

> <ROCS_Overlap>
2179.866

> <ROCS_Rank>
38                  

$$$$
untitled-dbase-95592_12
  -OEChem-02092421083D

 33 34  0     0  0  0  0  0  0999 V2000
    7.4053   11.9430   25.2072 C   0  0  0  0  0  0  0  0  0  0  0  0
    8.3477   12.4695   24.3309 C   0  0  0  0  0  0  0  0  0  0  0  0
   10.8344   16.8685   21.0095 C   0  0  0  0  0  0  0  0  0  0  0  0
   10.8386   15.4535   20.9795 C   0  0  0  0  0  0  0  0  0  0  0  0
    7.3493   10.5658   25.3485 C   0  0  0  0  0  0  0  0  0  0  0  0
    9.1934   11.6148   23.6325 C   0  0  0  0  0  0  0  0  0  0  0  0
   11.6896   17.2315   22.0238 C   0  0  0  0  0  0  0  0  0  0  0  0
   11.6962   15.0527   21.9775 C   0  0  0  0  0  0  0  0  0  0  0  0
    9.0575   10.2523   23.8445 C   0  0  0  0  0  0  0  0  0  0  0  0
   10.1738   12.1759   22.7131 C   0  0  0  0  0  0  0  0  0  0  0  0
   12.1190   18.5304   22.5611 C   0  0  0  0  0  0  0  0  0  0  0  0
    9.8570    7.9568   23.2816 C   0  0  0  0  0  0  0  0  0  0  0  0
   12.1423   13.7059   22.4685 C   0  0  0  0  0  0  0  0  0  0  0  0
    8.1540    9.7038   24.6873 N   0  0  0  0  0  0  0  0  0  0  0  0
    9.9144    9.3742   23.1342 N   0  0  0  0  0  0  0  0  0  0  0  0
   11.1212   13.0512   23.2543 N   0  0  0  0  0  0  0  0  0  0  0  0
   10.1372   11.8915   21.5039 O   0  0  0  0  0  0  0  0  0  0  0  0
   12.2192   16.1306   22.6188 O   0  0  0  0  0  0  0  0  0  0  0  0
    6.7347   12.5903   25.7607 H   0  0  0  0  0  0  0  0  0  0  0  0
    8.4134   13.5465   24.2003 H   0  0  0  0  0  0  0  0  0  0  0  0
   10.2768   17.5381   20.3705 H   0  0  0  0  0  0  0  0  0  0  0  0
   10.2843   14.8091   20.3121 H   0  0  0  0  0  0  0  0  0  0  0  0
    6.6317   10.1053   26.0195 H   0  0  0  0  0  0  0  0  0  0  0  0
   11.4539   18.8705   23.3748 H   0  0  0  0  0  0  0  0  0  0  0  0
   13.1470   18.4980   22.9673 H   0  0  0  0  0  0  0  0  0  0  0  0
   12.1273   19.3223   21.7891 H   0  0  0  0  0  0  0  0  0  0  0  0
    9.0702    7.6943   24.0041 H   0  0  0  0  0  0  0  0  0  0  0  0
    9.6301    7.4959   22.3090 H   0  0  0  0  0  0  0  0  0  0  0  0
   10.8269    7.5865   23.6454 H   0  0  0  0  0  0  0  0  0  0  0  0
   12.3915   13.0510   21.6264 H   0  0  0  0  0  0  0  0  0  0  0  0
   13.0396   13.7917   23.0903 H   0  0  0  0  0  0  0  0  0  0  0  0
   10.5742    9.7975   22.5146 H   0  0  0  0  0  0  0  0  0  0  0  0
   11.0662   13.2977   24.2371 H   0  0  0  0  0  0  0  0  0  0  0  0
  1  2  2  0  0  0  0
  1  5  1  0  0  0  0
  2  6  1  0  0  0  0
  3  4  1  0  0  0  0
  3  7  2  0  0  0  0
  4  8  2  0  0  0  0
  5 14  2  0  0  0  0
  6  9  2  0  0  0  0
  6 10  1  0  0  0  0
  7 11  1  0  0  0  0
  7 18  1  0  0  0  0
  8 13  1  0  0  0  0
  8 18  1  0  0  0  0
  9 14  1  0  0  0  0
  9 15  1  0  0  0  0
 10 16  1  0  0  0  0
 10 17  2  0  0  0  0
 12 15  1  0  0  0  0
 13 16  1  0  0  0  0
  1 19  1  0  0  0  0
  2 20  1  0  0  0  0
  3 21  1  0  0  0  0
  4 22  1  0  0  0  0
  5 23  1  0  0  0  0
 11 24  1  0  0  0  0
 11 25  1  0  0  0  0
 11 26  1  0  0  0  0
 12 27  1  0  0  0  0
 12 28  1  0  0  0  0
 12 29  1  0  0  0  0
 13 30  1  0  0  0  0
 13 31  1  0  0  0  0
 15 32  1  0  0  0  0
 16 33  1  0  0  0  0
M  END
> <idnumber>
Z992367442

> <heavy_atoms>
18

> <LogS>
-2.228

> <LogP>
2.676

> <rotating_bonds>
4

> <PSA>
67.16

> <hb_acceptors>
3

> <hb_donors>
2

> <Collection>
Advanced

> <link>
https://www.enaminestore.com/catalog/Z992367442

> <ROCS_ShapeQuery>
_x1140_x0812_0A_x1140_0A_x1097_0A_x0365_0A_x1097_0A_x0310_0A

> <ROCS_TanimotoCombo>
0.675 

> <ROCS_ShapeTanimoto>
0.241 

> <ROCS_ColorTanimoto>
0.433 

> <ROCS_RefTversky>
0.219 

> <ROCS_RefColorTversky>
0.571 

> <ROCS_RefTverskyCombo>
0.790 

> <ROCS_FitTversky>
1.720 

> <ROCS_FitColorTversky>
0.643 

> <ROCS_FitTverskyCombo>
2.364 

> <ROCS_ColorScore>
-4.536

> <ROCS_Overlap>
2247.734

> <ROCS_Rank>
39                  

$$$$
untitled-dbase-417392_176
  -OEChem-02092421083D

 49 51  0     0  0  0  0  0  0999 V2000
    8.4847   12.4305   24.2258 C   0  0  0  0  0  0  0  0  0  0  0  0
    7.4966   11.9726   25.0903 C   0  0  0  0  0  0  0  0  0  0  0  0
    8.9833   10.1696   23.6816 C   0  0  0  0  0  0  0  0  0  0  0  0
    9.2466   11.5183   23.5043 C   0  0  0  0  0  0  0  0  0  0  0  0
    7.3115   10.6036   25.1965 C   0  0  0  0  0  0  0  0  0  0  0  0
   10.2981   11.9719   22.5802 C   0  0  0  0  0  0  0  0  0  0  0  0
   13.4832   16.9300   23.2668 C   0  0  0  0  0  0  0  0  0  0  0  0
   14.6549   16.0444   22.8368 C   0  0  0  0  0  0  0  0  0  0  0  0
   12.4959   16.2616   24.2242 C   0  0  0  0  0  0  0  0  0  0  0  0
   14.3269   14.8614   21.9228 C   0  0  0  0  0  0  0  0  0  0  0  0
   11.1915   15.7852   23.5854 C   0  0  0  0  0  0  0  0  0  0  0  0
   13.5269   13.7435   22.5957 C   0  0  0  0  0  0  0  0  0  0  0  0
   11.2863   15.0462   22.2508 C   0  0  0  0  0  0  0  0  0  0  0  0
    4.2610   11.6832   26.2760 C   0  0  0  0  0  0  0  0  0  0  0  0
    4.1378   10.6394   27.3482 C   0  0  0  0  0  0  0  0  0  0  0  0
    5.4946   11.0456   26.8486 C   0  0  0  0  0  0  0  0  0  0  0  0
   12.0353   13.7074   22.2312 C   0  0  0  0  0  0  0  0  0  0  0  0
   11.8676   12.6267   24.4624 C   0  0  0  0  0  0  0  0  0  0  0  0
    8.0320    9.6870   24.5121 N   0  0  0  0  0  0  0  0  0  0  0  0
    6.3019   10.1528   26.0827 N   0  0  0  0  0  0  0  0  0  0  0  0
   11.3605   12.7312   23.0923 N   0  0  0  0  0  0  0  0  0  0  0  0
   10.1725   11.6331   21.4040 O   0  0  0  0  0  0  0  0  0  0  0  0
    8.6533   13.4990   24.1231 H   0  0  0  0  0  0  0  0  0  0  0  0
    6.8969   12.6775   25.6572 H   0  0  0  0  0  0  0  0  0  0  0  0
    9.5448    9.4094   23.1467 H   0  0  0  0  0  0  0  0  0  0  0  0
   13.9203   17.7876   23.7959 H   0  0  0  0  0  0  0  0  0  0  0  0
   12.9760   17.3529   22.3929 H   0  0  0  0  0  0  0  0  0  0  0  0
   15.3704   16.6834   22.3029 H   0  0  0  0  0  0  0  0  0  0  0  0
   15.1847   15.6822   23.7269 H   0  0  0  0  0  0  0  0  0  0  0  0
   12.9726   15.4497   24.7817 H   0  0  0  0  0  0  0  0  0  0  0  0
   12.2171   16.9981   24.9905 H   0  0  0  0  0  0  0  0  0  0  0  0
   13.8478   15.2052   20.9997 H   0  0  0  0  0  0  0  0  0  0  0  0
   15.2894   14.4330   21.6122 H   0  0  0  0  0  0  0  0  0  0  0  0
   10.6503   15.1673   24.3123 H   0  0  0  0  0  0  0  0  0  0  0  0
   10.5593   16.6682   23.4209 H   0  0  0  0  0  0  0  0  0  0  0  0
   13.9577   12.7871   22.2660 H   0  0  0  0  0  0  0  0  0  0  0  0
   13.6743   13.7574   23.6807 H   0  0  0  0  0  0  0  0  0  0  0  0
   10.2579   14.8591   21.9096 H   0  0  0  0  0  0  0  0  0  0  0  0
   11.7030   15.7129   21.4881 H   0  0  0  0  0  0  0  0  0  0  0  0
    3.9584   11.4114   25.2724 H   0  0  0  0  0  0  0  0  0  0  0  0
    4.0525   12.7111   26.5462 H   0  0  0  0  0  0  0  0  0  0  0  0
    3.8460   10.9656   28.3388 H   0  0  0  0  0  0  0  0  0  0  0  0
    3.7517    9.6686   27.0624 H   0  0  0  0  0  0  0  0  0  0  0  0
    6.0968   11.6581   27.5107 H   0  0  0  0  0  0  0  0  0  0  0  0
   11.9472   13.2990   21.2256 H   0  0  0  0  0  0  0  0  0  0  0  0
   12.6639   11.8688   24.5025 H   0  0  0  0  0  0  0  0  0  0  0  0
   12.2714   13.5996   24.7791 H   0  0  0  0  0  0  0  0  0  0  0  0
   11.0482   12.3333   25.1351 H   0  0  0  0  0  0  0  0  0  0  0  0
    6.1761    9.1636   26.1523 H   0  0  0  0  0  0  0  0  0  0  0  0
  1  2  2  0  0  0  0
  1  4  1  0  0  0  0
  2  5  1  0  0  0  0
  3  4  2  0  0  0  0
  3 19  1  0  0  0  0
  4  6  1  0  0  0  0
  5 19  2  0  0  0  0
  5 20  1  0  0  0  0
  6 21  1  0  0  0  0
  6 22  2  0  0  0  0
  7  8  1  0  0  0  0
  7  9  1  0  0  0  0
  8 10  1  0  0  0  0
  9 11  1  0  0  0  0
 10 12  1  0  0  0  0
 11 13  1  0  0  0  0
 12 17  1  0  0  0  0
 13 17  1  0  0  0  0
 14 15  1  0  0  0  0
 14 16  1  0  0  0  0
 15 16  1  0  0  0  0
 16 20  1  0  0  0  0
 17 21  1  0  0  0  0
 18 21  1  0  0  0  0
  1 23  1  0  0  0  0
  2 24  1  0  0  0  0
  3 25  1  0  0  0  0
  7 26  1  0  0  0  0
  7 27  1  0  0  0  0
  8 28  1  0  0  0  0
  8 29  1  0  0  0  0
  9 30  1  0  0  0  0
  9 31  1  0  0  0  0
 10 32  1  0  0  0  0
 10 33  1  0  0  0  0
 11 34  1  0  0  0  0
 11 35  1  0  0  0  0
 12 36  1  0  0  0  0
 12 37  1  0  0  0  0
 13 38  1  0  0  0  0
 13 39  1  0  0  0  0
 14 40  1  0  0  0  0
 14 41  1  0  0  0  0
 15 42  1  0  0  0  0
 15 43  1  0  0  0  0
 16 44  1  0  0  0  0
 17 45  1  0  0  0  0
 18 46  1  0  0  0  0
 18 47  1  0  0  0  0
 18 48  1  0  0  0  0
 20 49  1  0  0  0  0
M  END
> <idnumber>
Z972301314

> <heavy_atoms>
22

> <LogS>
-4.17

> <LogP>
3.796

> <rotating_bonds>
4

> <PSA>
45.23

> <hb_acceptors>
3

> <hb_donors>
1

> <Collection>
Legacy

> <link>
https://www.enaminestore.com/catalog/Z972301314

> <ROCS_ShapeQuery>
_x1140_x0812_0A_x1140_0A_x1097_0A_x0365_0A_x1097_0A_x0310_0A

> <ROCS_TanimotoCombo>
0.674 

> <ROCS_ShapeTanimoto>
0.250 

> <ROCS_ColorTanimoto>
0.424 

> <ROCS_RefTversky>
0.228 

> <ROCS_RefColorTversky>
0.458 

> <ROCS_RefTverskyCombo>
0.686 

> <ROCS_FitTversky>
1.623 

> <ROCS_FitColorTversky>
0.851 

> <ROCS_FitTverskyCombo>
2.473 

> <ROCS_ColorScore>
-3.573

> <ROCS_Overlap>
2343.753

> <ROCS_Rank>
40                  

$$$$
untitled-dbase-50223_25
  -OEChem-02092421083D

 26 26  0     0  0  0  0  0  0999 V2000
    8.8221   12.4724   24.8817 C   0  0  0  0  0  0  0  0  0  0  0  0
    9.6103   11.6072   24.1310 C   0  0  0  0  0  0  0  0  0  0  0  0
    7.3104   10.6772   25.2675 C   0  0  0  0  0  0  0  0  0  0  0  0
    7.6487   12.0064   25.4641 C   0  0  0  0  0  0  0  0  0  0  0  0
    9.1843   10.2958   23.9943 C   0  0  0  0  0  0  0  0  0  0  0  0
    9.6790   12.0229   20.0565 C   0  0  0  0  0  0  0  0  0  0  0  0
   11.2117    9.8534   22.6088 C   0  0  0  0  0  0  0  0  0  0  0  0
   10.9129   10.3993   21.2245 C   0  0  0  0  0  0  0  0  0  0  0  0
    6.7840   12.9075   26.2721 C   0  0  0  0  0  0  0  0  0  0  0  0
    8.0507    9.8068   24.5450 N   0  0  0  0  0  0  0  0  0  0  0  0
    9.9990    9.4265   23.2268 N   0  0  0  0  0  0  0  0  0  0  0  0
    9.9956   11.4805   21.3311 O   0  0  0  0  0  0  0  0  0  0  0  0
    7.2583   14.1865   26.3686 F   0  0  0  0  0  0  0  0  0  0  0  0
    5.5145   13.0387   25.7810 F   0  0  0  0  0  0  0  0  0  0  0  0
    6.6317   12.4793   27.5608 F   0  0  0  0  0  0  0  0  0  0  0  0
    9.1292   13.5070   25.0075 H   0  0  0  0  0  0  0  0  0  0  0  0
   10.5275   11.9626   23.6726 H   0  0  0  0  0  0  0  0  0  0  0  0
    6.4064   10.2567   25.6970 H   0  0  0  0  0  0  0  0  0  0  0  0
    8.9739   12.8491   20.1762 H   0  0  0  0  0  0  0  0  0  0  0  0
    9.2410   11.2443   19.4268 H   0  0  0  0  0  0  0  0  0  0  0  0
   10.5950   12.3933   19.5903 H   0  0  0  0  0  0  0  0  0  0  0  0
   11.8915    8.9968   22.5594 H   0  0  0  0  0  0  0  0  0  0  0  0
   11.6593   10.6302   23.2361 H   0  0  0  0  0  0  0  0  0  0  0  0
   10.4498    9.6230   20.6074 H   0  0  0  0  0  0  0  0  0  0  0  0
   11.8211   10.7557   20.7276 H   0  0  0  0  0  0  0  0  0  0  0  0
    9.6826    8.4831   23.1330 H   0  0  0  0  0  0  0  0  0  0  0  0
  1  2  2  0  0  0  0
  1  4  1  0  0  0  0
  2  5  1  0  0  0  0
  3  4  2  0  0  0  0
  3 10  1  0  0  0  0
  4  9  1  0  0  0  0
  5 10  2  0  0  0  0
  5 11  1  0  0  0  0
  6 12  1  0  0  0  0
  7  8  1  0  0  0  0
  7 11  1  0  0  0  0
  8 12  1  0  0  0  0
  9 13  1  0  0  0  0
  9 14  1  0  0  0  0
  9 15  1  0  0  0  0
  1 16  1  0  0  0  0
  2 17  1  0  0  0  0
  3 18  1  0  0  0  0
  6 19  1  0  0  0  0
  6 20  1  0  0  0  0
  6 21  1  0  0  0  0
  7 22  1  0  0  0  0
  7 23  1  0  0  0  0
  8 24  1  0  0  0  0
  8 25  1  0  0  0  0
 11 26  1  0  0  0  0
M  END
> <idnumber>
Z31194008

> <heavy_atoms>
15

> <LogS>
-1.794

> <LogP>
2.227

> <rotating_bonds>
5

> <PSA>
34.15

> <hb_acceptors>
3

> <hb_donors>
1

> <Collection>
Legacy

> <link>
https://www.enaminestore.com/catalog/Z31194008

> <ROCS_ShapeQuery>
_x1140_x0812_0A_x1140_0A_x1097_0A_x0365_0A_x1097_0A_x0310_0A

> <ROCS_TanimotoCombo>
0.674 

> <ROCS_ShapeTanimoto>
0.218 

> <ROCS_ColorTanimoto>
0.456 

> <ROCS_RefTversky>
0.199 

> <ROCS_RefColorTversky>
0.482 

> <ROCS_RefTverskyCombo>
0.681 

> <ROCS_FitTversky>
1.759 

> <ROCS_FitColorTversky>
0.895 

> <ROCS_FitTverskyCombo>
2.653 

> <ROCS_ColorScore>
-3.757

> <ROCS_Overlap>
2042.125

> <ROCS_Rank>
41                  

$$$$
untitled-dbase-946469_101
  -OEChem-02092421083D

 37 38  0     0  0  0  0  0  0999 V2000
   11.6387   15.7055   22.1900 C   0  0  0  0  0  0  0  0  0  0  0  0
    9.5322   14.5640   19.3515 C   0  0  0  0  0  0  0  0  0  0  0  0
   10.3147   15.3699   20.1785 C   0  0  0  0  0  0  0  0  0  0  0  0
    9.2758   13.2400   19.7079 C   0  0  0  0  0  0  0  0  0  0  0  0
   10.8408   14.8518   21.3619 C   0  0  0  0  0  0  0  0  0  0  0  0
    9.3990   11.9496   24.2847 C   0  0  0  0  0  0  0  0  0  0  0  0
   10.5844   13.5278   21.7183 C   0  0  0  0  0  0  0  0  0  0  0  0
    9.8019   12.7219   20.8913 C   0  0  0  0  0  0  0  0  0  0  0  0
    9.6030   10.5596   24.2414 C   0  0  0  0  0  0  0  0  0  0  0  0
    8.0473   12.0749   24.4673 C   0  0  0  0  0  0  0  0  0  0  0  0
    7.1384   13.2207   24.6024 C   0  0  0  0  0  0  0  0  0  0  0  0
   10.8623    8.9008   22.8454 C   0  0  0  0  0  0  0  0  0  0  0  0
    8.7302   10.6791   20.3132 C   0  0  0  0  0  0  0  0  0  0  0  0
   10.4186   13.0447   24.1606 C   0  0  0  0  0  0  0  0  0  0  0  0
   10.8716    9.8333   24.0630 C   0  0  0  0  0  0  0  0  0  0  0  0
   12.2852   16.3973   22.8611 N   0  0  0  0  0  0  0  0  0  0  0  0
    8.4649    9.8751   24.3861 N   0  0  0  0  0  0  0  0  0  0  0  0
   11.1139   12.9885   22.9153 N   0  0  0  0  0  0  0  0  0  0  0  0
    7.4787   10.8437   24.5294 O   0  0  0  0  0  0  0  0  0  0  0  0
    9.5393   11.4253   21.2197 O   0  0  0  0  0  0  0  0  0  0  0  0
    9.1224   14.9668   18.4299 H   0  0  0  0  0  0  0  0  0  0  0  0
   10.5048   16.3997   19.8849 H   0  0  0  0  0  0  0  0  0  0  0  0
    8.6666   12.6169   19.0586 H   0  0  0  0  0  0  0  0  0  0  0  0
    6.7515   13.5481   23.6206 H   0  0  0  0  0  0  0  0  0  0  0  0
    6.2644   12.9920   25.2407 H   0  0  0  0  0  0  0  0  0  0  0  0
    7.6293   14.0946   25.0707 H   0  0  0  0  0  0  0  0  0  0  0  0
   10.0318    8.1895   22.9089 H   0  0  0  0  0  0  0  0  0  0  0  0
   11.7931    8.3296   22.7731 H   0  0  0  0  0  0  0  0  0  0  0  0
   10.7434    9.4743   21.9198 H   0  0  0  0  0  0  0  0  0  0  0  0
    8.5981    9.6631   20.6931 H   0  0  0  0  0  0  0  0  0  0  0  0
    9.2103   10.6530   19.3317 H   0  0  0  0  0  0  0  0  0  0  0  0
    7.7545   11.1631   20.2266 H   0  0  0  0  0  0  0  0  0  0  0  0
    9.9407   14.0276   24.2359 H   0  0  0  0  0  0  0  0  0  0  0  0
   11.1620   12.9823   24.9622 H   0  0  0  0  0  0  0  0  0  0  0  0
   11.7249   10.5329   23.9567 H   0  0  0  0  0  0  0  0  0  0  0  0
   11.1197    9.2298   24.9593 H   0  0  0  0  0  0  0  0  0  0  0  0
   12.0146   12.5580   22.8541 H   0  0  0  0  0  0  0  0  0  0  0  0
  1  5  1  0  0  0  0
  1 16  3  0  0  0  0
  2  3  2  0  0  0  0
  2  4  1  0  0  0  0
  3  5  1  0  0  0  0
  4  8  2  0  0  0  0
  5  7  2  0  0  0  0
  6  9  1  0  0  0  0
  6 10  2  0  0  0  0
  6 14  1  0  0  0  0
  7  8  1  0  0  0  0
  7 18  1  0  0  0  0
  8 20  1  0  0  0  0
  9 15  1  0  0  0  0
  9 17  2  0  0  0  0
 10 11  1  0  0  0  0
 10 19  1  0  0  0  0
 12 15  1  0  0  0  0
 13 20  1  0  0  0  0
 14 18  1  0  0  0  0
 17 19  1  0  0  0  0
  2 21  1  0  0  0  0
  3 22  1  0  0  0  0
  4 23  1  0  0  0  0
 11 24  1  0  0  0  0
 11 25  1  0  0  0  0
 11 26  1  0  0  0  0
 12 27  1  0  0  0  0
 12 28  1  0  0  0  0
 12 29  1  0  0  0  0
 13 30  1  0  0  0  0
 13 31  1  0  0  0  0
 13 32  1  0  0  0  0
 14 33  1  0  0  0  0
 14 34  1  0  0  0  0
 15 35  1  0  0  0  0
 15 36  1  0  0  0  0
 18 37  1  0  0  0  0
M  END
> <idnumber>
Z2752949457

> <heavy_atoms>
20

> <LogS>
-2.428

> <LogP>
2.251

> <rotating_bonds>
5

> <PSA>
71.08

> <hb_acceptors>
4

> <hb_donors>
1

> <Collection>
HTS

> <link>
https://www.enaminestore.com/catalog/Z2752949457

> <ROCS_ShapeQuery>
_x1140_x0812_0A_x1140_0A_x1097_0A_x0365_0A_x1097_0A_x0310_0A

> <ROCS_TanimotoCombo>
0.673 

> <ROCS_ShapeTanimoto>
0.228 

> <ROCS_ColorTanimoto>
0.445 

> <ROCS_RefTversky>
0.210 

> <ROCS_RefColorTversky>
0.581 

> <ROCS_RefTverskyCombo>
0.792 

> <ROCS_FitTversky>
1.562 

> <ROCS_FitColorTversky>
0.655 

> <ROCS_FitTverskyCombo>
2.217 

> <ROCS_ColorScore>
-4.620

> <ROCS_Overlap>
2160.612

> <ROCS_Rank>
42                  

$$$$
untitled-dbase-833645_13
  -OEChem-02092421083D

 31 32  0     0  0  0  0  0  0999 V2000
   14.2137   15.3631   23.7683 C   0  0  0  0  0  0  0  0  0  0  0  0
   13.9686   14.1169   23.2024 C   0  0  0  0  0  0  0  0  0  0  0  0
   13.3155   16.3840   23.5027 C   0  0  0  0  0  0  0  0  0  0  0  0
   12.0113   15.0174   22.1953 C   0  0  0  0  0  0  0  0  0  0  0  0
   12.8485   13.9324   22.3995 C   0  0  0  0  0  0  0  0  0  0  0  0
    9.3952   11.7377   23.6749 C   0  0  0  0  0  0  0  0  0  0  0  0
    8.5144   12.5312   24.3813 C   0  0  0  0  0  0  0  0  0  0  0  0
    9.1736   10.3783   23.7593 C   0  0  0  0  0  0  0  0  0  0  0  0
    7.3815   10.7039   25.1192 C   0  0  0  0  0  0  0  0  0  0  0  0
   11.6930   11.6945   22.6438 C   0  0  0  0  0  0  0  0  0  0  0  0
    8.6521   14.0187   24.3668 C   0  0  0  0  0  0  0  0  0  0  0  0
   12.5587   12.6115   21.7805 C   0  0  0  0  0  0  0  0  0  0  0  0
   12.2166   16.2428   22.7280 N   0  0  0  0  0  0  0  0  0  0  0  0
    7.4925   12.0459   25.1165 N   0  0  0  0  0  0  0  0  0  0  0  0
    8.1728    9.8249   24.4750 N   0  0  0  0  0  0  0  0  0  0  0  0
   10.4578   12.2787   22.9126 N   0  0  0  0  0  0  0  0  0  0  0  0
   12.0936   10.5977   23.0201 O   0  0  0  0  0  0  0  0  0  0  0  0
    9.9951    9.5076   23.0917 O   0  0  0  0  0  0  0  0  0  0  0  0
    6.3504   10.1739   25.8596 O   0  0  0  0  0  0  0  0  0  0  0  0
   15.0804   15.5299   24.3977 H   0  0  0  0  0  0  0  0  0  0  0  0
   14.6549   13.2962   23.3924 H   0  0  0  0  0  0  0  0  0  0  0  0
   13.4623   17.3747   23.9203 H   0  0  0  0  0  0  0  0  0  0  0  0
   11.1220   14.9336   21.5782 H   0  0  0  0  0  0  0  0  0  0  0  0
    8.0718   14.4455   23.5409 H   0  0  0  0  0  0  0  0  0  0  0  0
    8.2980   14.4582   25.3072 H   0  0  0  0  0  0  0  0  0  0  0  0
    9.7009   14.3180   24.2491 H   0  0  0  0  0  0  0  0  0  0  0  0
   12.0485   12.7421   20.8102 H   0  0  0  0  0  0  0  0  0  0  0  0
   13.4977   12.0769   21.5543 H   0  0  0  0  0  0  0  0  0  0  0  0
   10.3010   13.2024   22.5145 H   0  0  0  0  0  0  0  0  0  0  0  0
    9.7074    8.5983   23.2527 H   0  0  0  0  0  0  0  0  0  0  0  0
    5.8523   10.8889   26.2756 H   0  0  0  0  0  0  0  0  0  0  0  0
  1  2  2  0  0  0  0
  1  3  1  0  0  0  0
  2  5  1  0  0  0  0
  3 13  2  0  0  0  0
  4  5  2  0  0  0  0
  4 13  1  0  0  0  0
  5 12  1  0  0  0  0
  6  7  2  0  0  0  0
  6  8  1  0  0  0  0
  6 16  1  0  0  0  0
  7 11  1  0  0  0  0
  7 14  1  0  0  0  0
  8 15  2  0  0  0  0
  8 18  1  0  0  0  0
  9 14  2  0  0  0  0
  9 15  1  0  0  0  0
  9 19  1  0  0  0  0
 10 12  1  0  0  0  0
 10 16  1  0  0  0  0
 10 17  2  0  0  0  0
  1 20  1  0  0  0  0
  2 21  1  0  0  0  0
  3 22  1  0  0  0  0
  4 23  1  0  0  0  0
 11 24  1  0  0  0  0
 11 25  1  0  0  0  0
 11 26  1  0  0  0  0
 12 27  1  0  0  0  0
 12 28  1  0  0  0  0
 16 29  1  0  0  0  0
 18 30  1  0  0  0  0
 19 31  1  0  0  0  0
M  END
> <idnumber>
Z1375235618

> <heavy_atoms>
19

> <LogS>
-1.169

> <LogP>
1.187

> <rotating_bonds>
3

> <PSA>
108.23

> <hb_acceptors>
6

> <hb_donors>
3

> <Collection>
HTS

> <link>
https://www.enaminestore.com/catalog/Z1375235618

> <ROCS_ShapeQuery>
_x1140_x0812_0A_x1140_0A_x1097_0A_x0365_0A_x1097_0A_x0310_0A

> <ROCS_TanimotoCombo>
0.673 

> <ROCS_ShapeTanimoto>
0.255 

> <ROCS_ColorTanimoto>
0.418 

> <ROCS_RefTversky>
0.230 

> <ROCS_RefColorTversky>
0.688 

> <ROCS_RefTverskyCombo>
0.918 

> <ROCS_FitTversky>
1.736 

> <ROCS_FitColorTversky>
0.515 

> <ROCS_FitTverskyCombo>
2.251 

> <ROCS_ColorScore>
-5.612

> <ROCS_Overlap>
2361.777

> <ROCS_Rank>
43                  

$$$$
untitled-dbase-552541_44
  -OEChem-02092421083D

 30 30  0     0  0  0  0  0  0999 V2000
    8.9754   10.4062   23.6099 C   0  0  0  0  0  0  0  0  0  0  0  0
    9.3637   11.7255   23.7144 C   0  0  0  0  0  0  0  0  0  0  0  0
    7.8551   10.9373   25.4190 C   0  0  0  0  0  0  0  0  0  0  0  0
   10.4222   12.3943   21.5709 C   0  0  0  0  0  0  0  0  0  0  0  0
    6.9656   10.8289   26.5955 C   0  0  0  0  0  0  0  0  0  0  0  0
   11.4717    8.6402   23.8042 C   0  0  0  0  0  0  0  0  0  0  0  0
   11.2722    8.2486   21.3404 C   0  0  0  0  0  0  0  0  0  0  0  0
    9.4090    9.4352   22.5389 C   0  0  0  0  0  0  0  0  0  0  0  0
   11.3947   13.4307   21.0575 C   0  0  0  0  0  0  0  0  0  0  0  0
   10.9319    9.2036   22.4872 C   0  0  0  0  0  0  0  0  0  0  0  0
    8.1107    9.9524   24.5867 N   0  0  0  0  0  0  0  0  0  0  0  0
   10.1859   12.5071   22.9541 N   0  0  0  0  0  0  0  0  0  0  0  0
    9.9461   11.5612   20.8044 O   0  0  0  0  0  0  0  0  0  0  0  0
    8.6206   12.4368   25.0867 S   0  0  0  0  0  0  0  0  0  0  0  0
   12.5145   13.8191   22.3731 Cl  0  0  0  0  0  0  0  0  0  0  0  0
    7.5294   10.5179   27.4890 H   0  0  0  0  0  0  0  0  0  0  0  0
    6.4698   11.7862   26.8255 H   0  0  0  0  0  0  0  0  0  0  0  0
    6.1581   10.0960   26.4339 H   0  0  0  0  0  0  0  0  0  0  0  0
   10.9965    7.6850   24.0523 H   0  0  0  0  0  0  0  0  0  0  0  0
   11.2990    9.3326   24.6340 H   0  0  0  0  0  0  0  0  0  0  0  0
   12.5523    8.4724   23.7397 H   0  0  0  0  0  0  0  0  0  0  0  0
   10.7877    7.2773   21.4859 H   0  0  0  0  0  0  0  0  0  0  0  0
   10.9420    8.6511   20.3765 H   0  0  0  0  0  0  0  0  0  0  0  0
   12.3523    8.0766   21.2846 H   0  0  0  0  0  0  0  0  0  0  0  0
    8.8897    8.4768   22.6715 H   0  0  0  0  0  0  0  0  0  0  0  0
    9.0603    9.8269   21.5737 H   0  0  0  0  0  0  0  0  0  0  0  0
   10.9011   14.3497   20.7315 H   0  0  0  0  0  0  0  0  0  0  0  0
   11.9596   13.0158   20.2179 H   0  0  0  0  0  0  0  0  0  0  0  0
   11.4410   10.1558   22.2905 H   0  0  0  0  0  0  0  0  0  0  0  0
   10.6879   13.2617   23.4465 H   0  0  0  0  0  0  0  0  0  0  0  0
  1  2  2  0  0  0  0
  1  8  1  0  0  0  0
  1 11  1  0  0  0  0
  2 12  1  0  0  0  0
  2 14  1  0  0  0  0
  3  5  1  0  0  0  0
  3 11  2  0  0  0  0
  3 14  1  0  0  0  0
  4  9  1  0  0  0  0
  4 12  1  0  0  0  0
  4 13  2  0  0  0  0
  6 10  1  0  0  0  0
  7 10  1  0  0  0  0
  8 10  1  0  0  0  0
  9 15  1  0  0  0  0
  5 16  1  0  0  0  0
  5 17  1  0  0  0  0
  5 18  1  0  0  0  0
  6 19  1  0  0  0  0
  6 20  1  0  0  0  0
  6 21  1  0  0  0  0
  7 22  1  0  0  0  0
  7 23  1  0  0  0  0
  7 24  1  0  0  0  0
  8 25  1  0  0  0  0
  8 26  1  0  0  0  0
  9 27  1  0  0  0  0
  9 28  1  0  0  0  0
 10 29  1  0  0  0  0
 12 30  1  0  0  0  0
M  END
> <idnumber>
Z1562148890

> <heavy_atoms>
15

> <LogS>
-2.957

> <LogP>
2.595

> <rotating_bonds>
4

> <PSA>
41.99

> <hb_acceptors>
2

> <hb_donors>
1

> <Collection>
Functional

> <link>
https://www.enaminestore.com/catalog/Z1562148890

> <ROCS_ShapeQuery>
_x1140_x0812_0A_x1140_0A_x1097_0A_x0365_0A_x1097_0A_x0310_0A

> <ROCS_TanimotoCombo>
0.673 

> <ROCS_ShapeTanimoto>
0.221 

> <ROCS_ColorTanimoto>
0.452 

> <ROCS_RefTversky>
0.201 

> <ROCS_RefColorTversky>
0.515 

> <ROCS_RefTverskyCombo>
0.716 

> <ROCS_FitTversky>
1.843 

> <ROCS_FitColorTversky>
0.786 

> <ROCS_FitTverskyCombo>
2.628 

> <ROCS_ColorScore>
-4.045

> <ROCS_Overlap>
2056.821

> <ROCS_Rank>
44                  

$$$$
untitled-dbase-1115708_182
  -OEChem-02092421083D

 36 37  0     0  0  0  0  0  0999 V2000
    8.5662   12.4428   24.3370 C   0  0  0  0  0  0  0  0  0  0  0  0
    8.9972   10.1860   23.6644 C   0  0  0  0  0  0  0  0  0  0  0  0
    5.8944   11.4308   26.6124 C   0  0  0  0  0  0  0  0  0  0  0  0
    7.5626   11.9306   25.1750 C   0  0  0  0  0  0  0  0  0  0  0  0
    9.2954   11.5385   23.5670 C   0  0  0  0  0  0  0  0  0  0  0  0
    6.6232   12.4770   26.0890 C   0  0  0  0  0  0  0  0  0  0  0  0
    7.3697   10.5522   25.1746 C   0  0  0  0  0  0  0  0  0  0  0  0
   10.3473   12.0045   22.6798 C   0  0  0  0  0  0  0  0  0  0  0  0
    6.4503   13.9046   26.4246 C   0  0  0  0  0  0  0  0  0  0  0  0
   11.5445   12.9903   24.6494 C   0  0  0  0  0  0  0  0  0  0  0  0
   12.5437   13.1896   22.3999 C   0  0  0  0  0  0  0  0  0  0  0  0
   12.0767   14.1655   21.3370 C   0  0  0  0  0  0  0  0  0  0  0  0
    8.0440    9.6371   24.4528 N   0  0  0  0  0  0  0  0  0  0  0  0
    6.3558   10.2683   26.0512 N   0  0  0  0  0  0  0  0  0  0  0  0
   10.8855   16.4209   20.5987 N   0  0  0  0  0  0  0  0  0  0  0  0
   11.4402   12.7039   23.2256 N   0  0  0  0  0  0  0  0  0  0  0  0
   10.2248   11.7429   21.4751 O   0  0  0  0  0  0  0  0  0  0  0  0
   10.0240   15.1186   22.6428 O   0  0  0  0  0  0  0  0  0  0  0  0
   12.2351   16.3335   22.7868 O   0  0  0  0  0  0  0  0  0  0  0  0
   11.2599   15.5702   22.0278 S   0  0  0  0  0  0  0  0  0  0  0  0
    8.7661   13.5090   24.2911 H   0  0  0  0  0  0  0  0  0  0  0  0
    9.5505    9.4584   23.0749 H   0  0  0  0  0  0  0  0  0  0  0  0
    5.0887   11.4082   27.3334 H   0  0  0  0  0  0  0  0  0  0  0  0
    7.0883   14.1921   27.2760 H   0  0  0  0  0  0  0  0  0  0  0  0
    6.7058   14.5623   25.5766 H   0  0  0  0  0  0  0  0  0  0  0  0
    5.4066   14.1427   26.6917 H   0  0  0  0  0  0  0  0  0  0  0  0
   12.0725   12.1665   25.1520 H   0  0  0  0  0  0  0  0  0  0  0  0
   12.1031   13.9266   24.7950 H   0  0  0  0  0  0  0  0  0  0  0  0
   10.5364   13.0945   25.0771 H   0  0  0  0  0  0  0  0  0  0  0  0
   13.0336   12.3169   21.9567 H   0  0  0  0  0  0  0  0  0  0  0  0
   13.2537   13.6786   23.0738 H   0  0  0  0  0  0  0  0  0  0  0  0
   11.3515   13.6864   20.6723 H   0  0  0  0  0  0  0  0  0  0  0  0
   12.9103   14.5426   20.7369 H   0  0  0  0  0  0  0  0  0  0  0  0
    6.0020    9.3432   26.2518 H   0  0  0  0  0  0  0  0  0  0  0  0
    9.9007   16.4578   20.3080 H   0  0  0  0  0  0  0  0  0  0  0  0
   11.4067   17.2851   20.4060 H   0  0  0  0  0  0  0  0  0  0  0  0
  1  4  1  0  0  0  0
  1  5  2  0  0  0  0
  2  5  1  0  0  0  0
  2 13  2  0  0  0  0
  3  6  2  0  0  0  0
  3 14  1  0  0  0  0
  4  6  1  0  0  0  0
  4  7  2  0  0  0  0
  5  8  1  0  0  0  0
  6  9  1  0  0  0  0
  7 13  1  0  0  0  0
  7 14  1  0  0  0  0
  8 16  1  0  0  0  0
  8 17  2  0  0  0  0
 10 16  1  0  0  0  0
 11 12  1  0  0  0  0
 11 16  1  0  0  0  0
 12 20  1  0  0  0  0
 15 20  1  0  0  0  0
 18 20  2  0  0  0  0
 19 20  2  0  0  0  0
  1 21  1  0  0  0  0
  2 22  1  0  0  0  0
  3 23  1  0  0  0  0
  9 24  1  0  0  0  0
  9 25  1  0  0  0  0
  9 26  1  0  0  0  0
 10 27  1  0  0  0  0
 10 28  1  0  0  0  0
 10 29  1  0  0  0  0
 11 30  1  0  0  0  0
 11 31  1  0  0  0  0
 12 32  1  0  0  0  0
 12 33  1  0  0  0  0
 14 34  1  0  0  0  0
 15 35  1  0  0  0  0
 15 36  1  0  0  0  0
M  END
> <idnumber>
Z5186256512

> <heavy_atoms>
20

> <LogS>
-2.501

> <LogP>
-0.304

> <rotating_bonds>
4

> <PSA>
109.15

> <hb_acceptors>
4

> <hb_donors>
2

> <Collection>
Advanced

> <link>
https://www.enaminestore.com/catalog/Z5186256512

> <ROCS_ShapeQuery>
_x1140_x0812_0A_x1140_0A_x1097_0A_x0365_0A_x1097_0A_x0310_0A

> <ROCS_TanimotoCombo>
0.671 

> <ROCS_ShapeTanimoto>
0.280 

> <ROCS_ColorTanimoto>
0.391 

> <ROCS_RefTversky>
0.248 

> <ROCS_RefColorTversky>
0.563 

> <ROCS_RefTverskyCombo>
0.811 

> <ROCS_FitTversky>
1.857 

> <ROCS_FitColorTversky>
0.562 

> <ROCS_FitTverskyCombo>
2.419 

> <ROCS_ColorScore>
-4.507

> <ROCS_Overlap>
2545.694

> <ROCS_Rank>
45                  

$$$$
untitled-dbase-1012972_66
  -OEChem-02092421083D

 27 27  0     0  0  0  0  0  0999 V2000
   12.2986   15.4108   23.2791 C   0  0  0  0  0  0  0  0  0  0  0  0
    7.3983   11.6282   25.0352 C   0  0  0  0  0  0  0  0  0  0  0  0
    7.9833   10.6381   25.8244 C   0  0  0  0  0  0  0  0  0  0  0  0
    8.0353   12.0599   23.8718 C   0  0  0  0  0  0  0  0  0  0  0  0
    9.2056   10.0797   25.4503 C   0  0  0  0  0  0  0  0  0  0  0  0
    9.2576   11.5015   23.4977 C   0  0  0  0  0  0  0  0  0  0  0  0
    9.8427   10.5114   24.2869 C   0  0  0  0  0  0  0  0  0  0  0  0
    9.9016   11.9712   22.2785 C   0  0  0  0  0  0  0  0  0  0  0  0
   11.0081    8.8768   22.7847 C   0  0  0  0  0  0  0  0  0  0  0  0
   12.2293   14.0714   23.8631 C   0  0  0  0  0  0  0  0  0  0  0  0
   11.1510    9.8968   23.9102 C   0  0  0  0  0  0  0  0  0  0  0  0
   12.3546   16.4732   22.8160 N   0  0  0  0  0  0  0  0  0  0  0  0
   10.7711   13.0421   22.4193 N   0  0  0  0  0  0  0  0  0  0  0  0
    9.7135   11.4443   21.1718 O   0  0  0  0  0  0  0  0  0  0  0  0
   10.9187   13.5384   23.7299 O   0  0  0  0  0  0  0  0  0  0  0  0
    6.4463   12.0633   25.3260 H   0  0  0  0  0  0  0  0  0  0  0  0
    7.4869   10.3025   26.7303 H   0  0  0  0  0  0  0  0  0  0  0  0
    7.5696   12.8330   23.2659 H   0  0  0  0  0  0  0  0  0  0  0  0
    9.6526    9.3085   26.0720 H   0  0  0  0  0  0  0  0  0  0  0  0
   10.3030    8.0847   23.0586 H   0  0  0  0  0  0  0  0  0  0  0  0
   11.9727    8.4100   22.5620 H   0  0  0  0  0  0  0  0  0  0  0  0
   10.6411    9.3511   21.8682 H   0  0  0  0  0  0  0  0  0  0  0  0
   12.9207   13.3934   23.3544 H   0  0  0  0  0  0  0  0  0  0  0  0
   12.4916   14.0866   24.9253 H   0  0  0  0  0  0  0  0  0  0  0  0
   11.8648   10.6768   23.6028 H   0  0  0  0  0  0  0  0  0  0  0  0
   11.6092    9.4087   24.7844 H   0  0  0  0  0  0  0  0  0  0  0  0
   11.2679   13.4417   21.6313 H   0  0  0  0  0  0  0  0  0  0  0  0
  1 10  1  0  0  0  0
  1 12  3  0  0  0  0
  2  3  1  0  0  0  0
  2  4  2  0  0  0  0
  3  5  2  0  0  0  0
  4  6  1  0  0  0  0
  5  7  1  0  0  0  0
  6  7  2  0  0  0  0
  6  8  1  0  0  0  0
  7 11  1  0  0  0  0
  8 13  1  0  0  0  0
  8 14  2  0  0  0  0
  9 11  1  0  0  0  0
 10 15  1  0  0  0  0
 13 15  1  0  0  0  0
  2 16  1  0  0  0  0
  3 17  1  0  0  0  0
  4 18  1  0  0  0  0
  5 19  1  0  0  0  0
  9 20  1  0  0  0  0
  9 21  1  0  0  0  0
  9 22  1  0  0  0  0
 10 23  1  0  0  0  0
 10 24  1  0  0  0  0
 11 25  1  0  0  0  0
 11 26  1  0  0  0  0
 13 27  1  0  0  0  0
M  END
> <idnumber>
Z3207309680

> <heavy_atoms>
15

> <LogS>
-3.32

> <LogP>
1.36

> <rotating_bonds>
4

> <PSA>
62.12

> <hb_acceptors>
3

> <hb_donors>
1

> <Collection>
Advanced

> <link>
https://www.enaminestore.com/catalog/Z3207309680

> <ROCS_ShapeQuery>
_x1140_x0812_0A_x1140_0A_x1097_0A_x0365_0A_x1097_0A_x0310_0A

> <ROCS_TanimotoCombo>
0.671 

> <ROCS_ShapeTanimoto>
0.212 

> <ROCS_ColorTanimoto>
0.459 

> <ROCS_RefTversky>
0.195 

> <ROCS_RefColorTversky>
0.521 

> <ROCS_RefTverskyCombo>
0.715 

> <ROCS_FitTversky>
1.736 

> <ROCS_FitColorTversky>
0.794 

> <ROCS_FitTverskyCombo>
2.530 

> <ROCS_ColorScore>
-4.088

> <ROCS_Overlap>
1995.570

> <ROCS_Rank>
46                  

$$$$
untitled-dbase-651608_4
  -OEChem-02092421083D

 32 33  0     0  0  0  0  0  0999 V2000
   12.3620   12.2393   19.8940 C   0  0  0  0  0  0  0  0  0  0  0  0
   12.2728   13.9041   21.6425 C   0  0  0  0  0  0  0  0  0  0  0  0
   13.9535   14.0569   19.9137 C   0  0  0  0  0  0  0  0  0  0  0  0
   11.7721   12.7432   21.0531 C   0  0  0  0  0  0  0  0  0  0  0  0
   13.4528   12.8961   19.3243 C   0  0  0  0  0  0  0  0  0  0  0  0
   13.3636   14.5609   21.0728 C   0  0  0  0  0  0  0  0  0  0  0  0
    9.4267   11.6719   23.7392 C   0  0  0  0  0  0  0  0  0  0  0  0
    9.1871   10.3431   23.8414 C   0  0  0  0  0  0  0  0  0  0  0  0
    8.5180   12.6283   24.4430 C   0  0  0  0  0  0  0  0  0  0  0  0
    7.3176   10.6479   25.2013 C   0  0  0  0  0  0  0  0  0  0  0  0
   10.6105   12.0437   21.6599 C   0  0  0  0  0  0  0  0  0  0  0  0
    6.5362   12.8909   25.8819 C   0  0  0  0  0  0  0  0  0  0  0  0
    8.1308    9.8437   24.5743 N   0  0  0  0  0  0  0  0  0  0  0  0
    7.4794   12.0390   25.1586 N   0  0  0  0  0  0  0  0  0  0  0  0
   10.0179    9.4488   23.1971 N   0  0  0  0  0  0  0  0  0  0  0  0
    6.2745   10.1109   25.9215 N   0  0  0  0  0  0  0  0  0  0  0  0
   10.4572   12.2190   23.0269 N   0  0  0  0  0  0  0  0  0  0  0  0
    8.7239   13.8386   24.3578 O   0  0  0  0  0  0  0  0  0  0  0  0
    9.8594   11.3926   20.9382 O   0  0  0  0  0  0  0  0  0  0  0  0
   14.0194   12.4121   18.2112 F   0  0  0  0  0  0  0  0  0  0  0  0
   13.8445   15.6757   21.6387 F   0  0  0  0  0  0  0  0  0  0  0  0
   11.9803   11.3356   19.4261 H   0  0  0  0  0  0  0  0  0  0  0  0
   11.8211   14.3059   22.5458 H   0  0  0  0  0  0  0  0  0  0  0  0
   14.8026   14.5682   19.4701 H   0  0  0  0  0  0  0  0  0  0  0  0
    5.6946   13.1494   25.2224 H   0  0  0  0  0  0  0  0  0  0  0  0
    6.1588   12.3532   26.7642 H   0  0  0  0  0  0  0  0  0  0  0  0
    7.0458   13.8112   26.2036 H   0  0  0  0  0  0  0  0  0  0  0  0
   10.7729    9.8155   22.6737 H   0  0  0  0  0  0  0  0  0  0  0  0
    9.8183    8.4844   23.2899 H   0  0  0  0  0  0  0  0  0  0  0  0
    6.1794    9.1247   25.9369 H   0  0  0  0  0  0  0  0  0  0  0  0
    5.6650   10.7342   26.3925 H   0  0  0  0  0  0  0  0  0  0  0  0
   11.1176   12.7804   23.5488 H   0  0  0  0  0  0  0  0  0  0  0  0
  1  4  1  0  0  0  0
  1  5  2  0  0  0  0
  2  4  2  0  0  0  0
  2  6  1  0  0  0  0
  3  5  1  0  0  0  0
  3  6  2  0  0  0  0
  4 11  1  0  0  0  0
  5 20  1  0  0  0  0
  6 21  1  0  0  0  0
  7  8  2  0  0  0  0
  7  9  1  0  0  0  0
  7 17  1  0  0  0  0
  8 13  1  0  0  0  0
  8 15  1  0  0  0  0
  9 14  1  0  0  0  0
  9 18  2  0  0  0  0
 10 13  2  0  0  0  0
 10 14  1  0  0  0  0
 10 16  1  0  0  0  0
 11 17  1  0  0  0  0
 11 19  2  0  0  0  0
 12 14  1  0  0  0  0
  1 22  1  0  0  0  0
  2 23  1  0  0  0  0
  3 24  1  0  0  0  0
 12 25  1  0  0  0  0
 12 26  1  0  0  0  0
 12 27  1  0  0  0  0
 15 28  1  0  0  0  0
 15 29  1  0  0  0  0
 16 30  1  0  0  0  0
 16 31  1  0  0  0  0
 17 32  1  0  0  0  0
M  END
> <idnumber>
Z225845346

> <heavy_atoms>
21

> <LogS>
-3.43

> <LogP>
0.15

> <rotating_bonds>
2

> <PSA>
113.81

> <hb_acceptors>
5

> <hb_donors>
3

> <Collection>
HTS

> <link>
https://www.enaminestore.com/catalog/Z225845346

> <ROCS_ShapeQuery>
_x1140_x0812_0A_x1140_0A_x1097_0A_x0365_0A_x1097_0A_x0310_0A

> <ROCS_TanimotoCombo>
0.670 

> <ROCS_ShapeTanimoto>
0.255 

> <ROCS_ColorTanimoto>
0.415 

> <ROCS_RefTversky>
0.232 

> <ROCS_RefColorTversky>
0.652 

> <ROCS_RefTverskyCombo>
0.884 

> <ROCS_FitTversky>
1.637 

> <ROCS_FitColorTversky>
0.533 

> <ROCS_FitTverskyCombo>
2.170 

> <ROCS_ColorScore>
-5.286

> <ROCS_Overlap>
2381.787

> <ROCS_Rank>
47                  

$$$$
untitled-dbase-921417_15
  -OEChem-02092421083D

 24 24  0     0  0  0  0  0  0999 V2000
    9.4066   11.6151   23.7281 C   0  0  0  0  0  0  0  0  0  0  0  0
    9.0268   10.2664   23.6166 C   0  0  0  0  0  0  0  0  0  0  0  0
    8.7130   12.0594   24.8225 C   0  0  0  0  0  0  0  0  0  0  0  0
   10.5243   12.1564   21.5786 C   0  0  0  0  0  0  0  0  0  0  0  0
    8.6202   13.3494   25.5198 C   0  0  0  0  0  0  0  0  0  0  0  0
   10.9825    9.0810   22.5888 C   0  0  0  0  0  0  0  0  0  0  0  0
    9.4619    9.2796   22.6140 C   0  0  0  0  0  0  0  0  0  0  0  0
   11.5305   13.1454   21.0375 C   0  0  0  0  0  0  0  0  0  0  0  0
    8.1637    9.9021   24.5690 N   0  0  0  0  0  0  0  0  0  0  0  0
   10.2819   12.3581   22.9311 N   0  0  0  0  0  0  0  0  0  0  0  0
   10.0454   11.2977   20.8428 O   0  0  0  0  0  0  0  0  0  0  0  0
    7.9675   11.0461   25.3331 O   0  0  0  0  0  0  0  0  0  0  0  0
   10.7399   14.0714   19.7518 Cl  0  0  0  0  0  0  0  0  0  0  0  0
    7.8107   13.9759   25.1043 H   0  0  0  0  0  0  0  0  0  0  0  0
    8.4219   13.2296   26.6012 H   0  0  0  0  0  0  0  0  0  0  0  0
    9.5571   13.9331   25.4506 H   0  0  0  0  0  0  0  0  0  0  0  0
   11.4946   10.0343   22.4195 H   0  0  0  0  0  0  0  0  0  0  0  0
   11.2816    8.3898   21.7946 H   0  0  0  0  0  0  0  0  0  0  0  0
   11.3355    8.6748   23.5427 H   0  0  0  0  0  0  0  0  0  0  0  0
    8.9869    8.2930   22.7871 H   0  0  0  0  0  0  0  0  0  0  0  0
    9.1337    9.5687   21.5952 H   0  0  0  0  0  0  0  0  0  0  0  0
   12.4210   12.6621   20.6277 H   0  0  0  0  0  0  0  0  0  0  0  0
   11.8346   13.8289   21.8353 H   0  0  0  0  0  0  0  0  0  0  0  0
   10.7878   13.1160   23.3831 H   0  0  0  0  0  0  0  0  0  0  0  0
  1  2  1  0  0  0  0
  1  3  2  0  0  0  0
  1 10  1  0  0  0  0
  2  7  1  0  0  0  0
  2  9  2  0  0  0  0
  3  5  1  0  0  0  0
  3 12  1  0  0  0  0
  4  8  1  0  0  0  0
  4 10  1  0  0  0  0
  4 11  2  0  0  0  0
  6  7  1  0  0  0  0
  8 13  1  0  0  0  0
  9 12  1  0  0  0  0
  5 14  1  0  0  0  0
  5 15  1  0  0  0  0
  5 16  1  0  0  0  0
  6 17  1  0  0  0  0
  6 18  1  0  0  0  0
  6 19  1  0  0  0  0
  7 20  1  0  0  0  0
  7 21  1  0  0  0  0
  8 22  1  0  0  0  0
  8 23  1  0  0  0  0
 10 24  1  0  0  0  0
M  END
> <idnumber>
Z2596883949

> <heavy_atoms>
13

> <LogS>
-1.199

> <LogP>
0.105

> <rotating_bonds>
3

> <PSA>
55.13

> <hb_acceptors>
2

> <hb_donors>
1

> <Collection>
Functional

> <link>
https://www.enaminestore.com/catalog/Z2596883949

> <ROCS_ShapeQuery>
_x1140_x0812_0A_x1140_0A_x1097_0A_x0365_0A_x1097_0A_x0310_0A

> <ROCS_TanimotoCombo>
0.670 

> <ROCS_ShapeTanimoto>
0.207 

> <ROCS_ColorTanimoto>
0.463 

> <ROCS_RefTversky>
0.189 

> <ROCS_RefColorTversky>
0.524 

> <ROCS_RefTverskyCombo>
0.713 

> <ROCS_FitTversky>
1.825 

> <ROCS_FitColorTversky>
0.798 

> <ROCS_FitTverskyCombo>
2.623 

> <ROCS_ColorScore>
-4.112

> <ROCS_Overlap>
1941.585

> <ROCS_Rank>
48                  

$$$$
untitled-dbase-528220_28
  -OEChem-02092421083D

 33 33  0     1  0  0  0  0  0999 V2000
   11.4456   10.5361   22.5987 C   0  0  0  0  0  0  0  0  0  0  0  0
   11.5694    9.2061   22.4672 C   0  0  0  0  0  0  0  0  0  0  0  0
   10.2091   11.3225   22.4176 C   0  0  0  0  0  0  0  0  0  0  0  0
    7.0527   10.1620   25.1844 C   0  0  0  0  0  0  0  0  0  0  0  0
    7.9770   11.6545   23.4306 C   0  0  0  0  0  0  0  0  0  0  0  0
    9.8626   11.5830   24.9298 C   0  0  0  0  0  0  0  0  0  0  0  0
    7.4518   11.5709   24.8580 C   0  0  2  0  0  0  0  0  0  0  0  0
    8.6324   12.0233   25.7287 C   0  0  2  0  0  0  0  0  0  0  0  0
   12.8390    8.4226   22.6561 C   0  0  0  0  0  0  0  0  0  0  0  0
   10.3786    8.3590   22.1008 C   0  0  0  0  0  0  0  0  0  0  0  0
    8.6214   13.5367   25.9438 C   0  0  0  0  0  0  0  0  0  0  0  0
    9.4223   11.5101   23.5388 N   0  0  0  0  0  0  0  0  0  0  0  0
    6.0410   10.0727   26.1111 N   0  0  0  0  0  0  0  0  0  0  0  0
    9.9446   11.7589   21.2976 O   0  0  0  0  0  0  0  0  0  0  0  0
    7.5831    9.1923   24.6479 O   0  0  0  0  0  0  0  0  0  0  0  0
   12.5111   11.2977   22.9280 F   0  0  0  0  0  0  0  0  0  0  0  0
    9.6986   13.9145   26.6527 F   0  0  0  0  0  0  0  0  0  0  0  0
    8.6392   14.1755   24.7618 F   0  0  0  0  0  0  0  0  0  0  0  0
    7.5159   13.9038   26.6139 F   0  0  0  0  0  0  0  0  0  0  0  0
    7.6043   10.8443   22.7891 H   0  0  0  0  0  0  0  0  0  0  0  0
    7.7276   12.6071   22.9466 H   0  0  0  0  0  0  0  0  0  0  0  0
   10.6793   12.3156   24.9833 H   0  0  0  0  0  0  0  0  0  0  0  0
   10.2405   10.6097   25.2665 H   0  0  0  0  0  0  0  0  0  0  0  0
    6.5819   12.2197   24.9907 H   0  0  0  0  0  0  0  0  0  0  0  0
    8.6176   11.5312   26.6923 H   0  0  0  0  0  0  0  0  0  0  0  0
   12.9959    8.0770   23.6796 H   0  0  0  0  0  0  0  0  0  0  0  0
   13.7032    9.0382   22.3844 H   0  0  0  0  0  0  0  0  0  0  0  0
   12.8322    7.5368   22.0117 H   0  0  0  0  0  0  0  0  0  0  0  0
   10.3015    8.2655   21.0124 H   0  0  0  0  0  0  0  0  0  0  0  0
   10.4366    7.3477   22.5159 H   0  0  0  0  0  0  0  0  0  0  0  0
    9.4580    8.8179   22.4762 H   0  0  0  0  0  0  0  0  0  0  0  0
    5.6527   10.9293   26.4921 H   0  0  0  0  0  0  0  0  0  0  0  0
    5.6669    9.1846   26.4293 H   0  0  0  0  0  0  0  0  0  0  0  0
  1  2  2  0  0  0  0
  1  3  1  0  0  0  0
  1 16  1  0  0  0  0
  2  9  1  0  0  0  0
  2 10  1  0  0  0  0
  3 12  1  0  0  0  0
  3 14  2  0  0  0  0
  4  7  1  1  0  0  0
  4 13  1  0  0  0  0
  4 15  2  0  0  0  0
  5  7  1  0  0  0  0
  5 12  1  0  0  0  0
  6  8  1  0  0  0  0
  6 12  1  0  0  0  0
  7  8  1  0  0  0  0
  8 11  1  6  0  0  0
 11 17  1  0  0  0  0
 11 18  1  0  0  0  0
 11 19  1  0  0  0  0
  5 20  1  0  0  0  0
  5 21  1  0  0  0  0
  6 22  1  0  0  0  0
  6 23  1  0  0  0  0
  7 24  1  0  0  0  0
  8 25  1  0  0  0  0
  9 26  1  0  0  0  0
  9 27  1  0  0  0  0
  9 28  1  0  0  0  0
 10 29  1  0  0  0  0
 10 30  1  0  0  0  0
 10 31  1  0  0  0  0
 13 32  1  0  0  0  0
 13 33  1  0  0  0  0
M  END
> <idnumber>
Z2059360079

> <heavy_atoms>
19

> <LogS>
-2.33

> <LogP>
1.21

> <rotating_bonds>
3

> <PSA>
63.4

> <hb_acceptors>
2

> <hb_donors>
1

> <Collection>
Advanced

> <link>
https://www.enaminestore.com/catalog/Z2059360079

> <ROCS_ShapeQuery>
_x1140_x0812_0A_x1140_0A_x1097_0A_x0365_0A_x1097_0A_x0310_0A

> <ROCS_TanimotoCombo>
0.670 

> <ROCS_ShapeTanimoto>
0.224 

> <ROCS_ColorTanimoto>
0.445 

> <ROCS_RefTversky>
0.207 

> <ROCS_RefColorTversky>
0.510 

> <ROCS_RefTverskyCombo>
0.717 

> <ROCS_FitTversky>
1.589 

> <ROCS_FitColorTversky>
0.778 

> <ROCS_FitTverskyCombo>
2.367 

> <ROCS_ColorScore>
-4.005

> <ROCS_Overlap>
2124.826

> <ROCS_Rank>
49                  

$$$$
untitled-dbase-980675_97
  -OEChem-02092421083D

 40 42  0     0  0  0  0  0  0999 V2000
    8.7290   12.5680   24.4544 C   0  0  0  0  0  0  0  0  0  0  0  0
    7.7310   12.1269   25.3162 C   0  0  0  0  0  0  0  0  0  0  0  0
    9.4427   11.6464   23.6964 C   0  0  0  0  0  0  0  0  0  0  0  0
    7.4874   10.7645   25.3831 C   0  0  0  0  0  0  0  0  0  0  0  0
    9.1226   10.3055   23.8360 C   0  0  0  0  0  0  0  0  0  0  0  0
   12.3084   15.1250   23.2814 C   0  0  0  0  0  0  0  0  0  0  0  0
   10.4994   12.1055   22.7829 C   0  0  0  0  0  0  0  0  0  0  0  0
   12.2643   13.8105   22.5269 C   0  0  0  0  0  0  0  0  0  0  0  0
    5.7490    8.9554   25.9989 C   0  0  0  0  0  0  0  0  0  0  0  0
    4.9954   10.2358   25.8174 C   0  0  0  0  0  0  0  0  0  0  0  0
   13.0287   13.6907   25.1559 C   0  0  0  0  0  0  0  0  0  0  0  0
   12.0714   12.5994   24.6996 C   0  0  0  0  0  0  0  0  0  0  0  0
    6.4211   10.2687   26.3012 C   0  0  0  0  0  0  0  0  0  0  0  0
   12.8345   16.1555   25.4783 C   0  0  0  0  0  0  0  0  0  0  0  0
   11.5393   16.5996   26.1100 C   0  0  0  0  0  0  0  0  0  0  0  0
    8.1598    9.8392   24.6626 N   0  0  0  0  0  0  0  0  0  0  0  0
   12.6452   14.9925   24.6280 N   0  0  0  0  0  0  0  0  0  0  0  0
   11.5805   12.8053   23.3327 N   0  0  0  0  0  0  0  0  0  0  0  0
   12.1782   16.1961   22.6895 O   0  0  0  0  0  0  0  0  0  0  0  0
   10.3468   11.8371   21.5925 O   0  0  0  0  0  0  0  0  0  0  0  0
    9.8024    9.3643   23.1070 O   0  0  0  0  0  0  0  0  0  0  0  0
   11.7430   17.6795   26.8967 F   0  0  0  0  0  0  0  0  0  0  0  0
   10.6264   16.9407   25.1756 F   0  0  0  0  0  0  0  0  0  0  0  0
   11.0076   15.6269   26.8805 F   0  0  0  0  0  0  0  0  0  0  0  0
    8.9416   13.6313   24.3815 H   0  0  0  0  0  0  0  0  0  0  0  0
    7.1676   12.8368   25.9125 H   0  0  0  0  0  0  0  0  0  0  0  0
   11.6871   13.9536   21.6305 H   0  0  0  0  0  0  0  0  0  0  0  0
   13.2694   13.5148   22.3044 H   0  0  0  0  0  0  0  0  0  0  0  0
    5.4815    8.3278   26.8409 H   0  0  0  0  0  0  0  0  0  0  0  0
    6.0326    8.4079   25.1082 H   0  0  0  0  0  0  0  0  0  0  0  0
    4.7741   10.5498   24.8041 H   0  0  0  0  0  0  0  0  0  0  0  0
    4.2189   10.4711   26.5355 H   0  0  0  0  0  0  0  0  0  0  0  0
   13.0303   13.7350   26.2452 H   0  0  0  0  0  0  0  0  0  0  0  0
   14.0412   13.4789   24.8099 H   0  0  0  0  0  0  0  0  0  0  0  0
   12.5626   11.6098   24.7876 H   0  0  0  0  0  0  0  0  0  0  0  0
   11.1840   12.5532   25.3640 H   0  0  0  0  0  0  0  0  0  0  0  0
    6.5692   10.5050   27.3468 H   0  0  0  0  0  0  0  0  0  0  0  0
   13.5672   15.8891   26.2458 H   0  0  0  0  0  0  0  0  0  0  0  0
   13.2557   16.9532   24.8595 H   0  0  0  0  0  0  0  0  0  0  0  0
    9.4640    8.4827   23.3156 H   0  0  0  0  0  0  0  0  0  0  0  0
  1  2  2  0  0  0  0
  1  3  1  0  0  0  0
  2  4  1  0  0  0  0
  3  5  2  0  0  0  0
  3  7  1  0  0  0  0
  4 13  1  0  0  0  0
  4 16  2  0  0  0  0
  5 16  1  0  0  0  0
  5 21  1  0  0  0  0
  6  8  1  0  0  0  0
  6 17  1  0  0  0  0
  6 19  2  0  0  0  0
  7 18  1  0  0  0  0
  7 20  2  0  0  0  0
  8 18  1  0  0  0  0
  9 10  1  0  0  0  0
  9 13  1  0  0  0  0
 10 13  1  0  0  0  0
 11 12  1  0  0  0  0
 11 17  1  0  0  0  0
 12 18  1  0  0  0  0
 14 15  1  0  0  0  0
 14 17  1  0  0  0  0
 15 22  1  0  0  0  0
 15 23  1  0  0  0  0
 15 24  1  0  0  0  0
  1 25  1  0  0  0  0
  2 26  1  0  0  0  0
  8 27  1  0  0  0  0
  8 28  1  0  0  0  0
  9 29  1  0  0  0  0
  9 30  1  0  0  0  0
 10 31  1  0  0  0  0
 10 32  1  0  0  0  0
 11 33  1  0  0  0  0
 11 34  1  0  0  0  0
 12 35  1  0  0  0  0
 12 36  1  0  0  0  0
 13 37  1  0  0  0  0
 14 38  1  0  0  0  0
 14 39  1  0  0  0  0
 21 40  1  0  0  0  0
M  END
> <idnumber>
Z2959744932

> <heavy_atoms>
24

> <LogS>
-3.334

> <LogP>
2.107

> <rotating_bonds>
4

> <PSA>
73.74

> <hb_acceptors>
4

> <hb_donors>
1

> <Collection>
HTS

> <link>
https://www.enaminestore.com/catalog/Z2959744932

> <ROCS_ShapeQuery>
_x1140_x0812_0A_x1140_0A_x1097_0A_x0365_0A_x1097_0A_x0310_0A

> <ROCS_TanimotoCombo>
0.669 

> <ROCS_ShapeTanimoto>
0.255 

> <ROCS_ColorTanimoto>
0.414 

> <ROCS_RefTversky>
0.234 

> <ROCS_RefColorTversky>
0.553 

> <ROCS_RefTverskyCombo>
0.787 

> <ROCS_FitTversky>
1.525 

> <ROCS_FitColorTversky>
0.623 

> <ROCS_FitTverskyCombo>
2.148 

> <ROCS_ColorScore>
-4.398

> <ROCS_Overlap>
2406.217

> <ROCS_Rank>
50                  

$$$$
untitled-dbase-552761_47
  -OEChem-02092421083D

 22 22  0     0  0  0  0  0  0999 V2000
    8.8773   12.2911   25.0163 C   0  0  0  0  0  0  0  0  0  0  0  0
    9.7011   11.4816   24.2611 C   0  0  0  0  0  0  0  0  0  0  0  0
    9.2484   10.1942   24.0562 C   0  0  0  0  0  0  0  0  0  0  0  0
    7.3692   10.6087   25.2661 C   0  0  0  0  0  0  0  0  0  0  0  0
   10.1360   12.4442   21.4311 C   0  0  0  0  0  0  0  0  0  0  0  0
   11.0018   11.9880   23.7080 C   0  0  0  0  0  0  0  0  0  0  0  0
   10.0322   13.5247   20.3852 C   0  0  0  0  0  0  0  0  0  0  0  0
    7.7002   11.8858   25.5363 N   0  0  0  0  0  0  0  0  0  0  0  0
    8.0831    9.7225   24.5459 N   0  0  0  0  0  0  0  0  0  0  0  0
   10.8041   12.8569   22.5715 N   0  0  0  0  0  0  0  0  0  0  0  0
    9.6503   11.3273   21.2605 O   0  0  0  0  0  0  0  0  0  0  0  0
   10.0009    9.3172   23.3200 O   0  0  0  0  0  0  0  0  0  0  0  0
    6.1741   10.1620   25.7797 O   0  0  0  0  0  0  0  0  0  0  0  0
    9.1491   14.8857   21.0942 Cl  0  0  0  0  0  0  0  0  0  0  0  0
    9.1413   13.3212   25.2338 H   0  0  0  0  0  0  0  0  0  0  0  0
   11.5529   12.5497   24.4702 H   0  0  0  0  0  0  0  0  0  0  0  0
   11.6422   11.1592   23.3884 H   0  0  0  0  0  0  0  0  0  0  0  0
   11.0098   13.8787   20.0487 H   0  0  0  0  0  0  0  0  0  0  0  0
    9.4743   13.1450   19.5248 H   0  0  0  0  0  0  0  0  0  0  0  0
   11.1680   13.8041   22.6101 H   0  0  0  0  0  0  0  0  0  0  0  0
    9.5503    8.4627   23.2684 H   0  0  0  0  0  0  0  0  0  0  0  0
    5.7494   10.8747   26.2738 H   0  0  0  0  0  0  0  0  0  0  0  0
  1  2  1  0  0  0  0
  1  8  2  0  0  0  0
  2  3  2  0  0  0  0
  2  6  1  0  0  0  0
  3  9  1  0  0  0  0
  3 12  1  0  0  0  0
  4  8  1  0  0  0  0
  4  9  2  0  0  0  0
  4 13  1  0  0  0  0
  5  7  1  0  0  0  0
  5 10  1  0  0  0  0
  5 11  2  0  0  0  0
  6 10  1  0  0  0  0
  7 14  1  0  0  0  0
  1 15  1  0  0  0  0
  6 16  1  0  0  0  0
  6 17  1  0  0  0  0
  7 18  1  0  0  0  0
  7 19  1  0  0  0  0
 10 20  1  0  0  0  0
 12 21  1  0  0  0  0
 13 22  1  0  0  0  0
M  END
> <idnumber>
Z1562144445

> <heavy_atoms>
14

> <LogS>
-1.212

> <LogP>
0.301

> <rotating_bonds>
3

> <PSA>
95.34

> <hb_acceptors>
5

> <hb_donors>
3

> <Collection>
Functional

> <link>
https://www.enaminestore.com/catalog/Z1562144445

> <ROCS_ShapeQuery>
_x1140_x0812_0A_x1140_0A_x1097_0A_x0365_0A_x1097_0A_x0310_0A

> <ROCS_TanimotoCombo>
0.669 

> <ROCS_ShapeTanimoto>
0.228 

> <ROCS_ColorTanimoto>
0.441 

> <ROCS_RefTversky>
0.206 

> <ROCS_RefColorTversky>
0.648 

> <ROCS_RefTverskyCombo>
0.853 

> <ROCS_FitTversky>
1.894 

> <ROCS_FitColorTversky>
0.581 

> <ROCS_FitTverskyCombo>
2.474 

> <ROCS_ColorScore>
-5.217

> <ROCS_Overlap>
2107.329

> <ROCS_Rank>
51                  

$$$$
untitled-dbase-802814_11
  -OEChem-02092421083D

 29 31  0     0  0  0  0  0  0999 V2000
    8.0548   12.3328   23.9162 C   0  0  0  0  0  0  0  0  0  0  0  0
    7.1415   11.8069   24.8385 C   0  0  0  0  0  0  0  0  0  0  0  0
    8.9925   11.4537   23.3743 C   0  0  0  0  0  0  0  0  0  0  0  0
    6.0624   12.2650   25.6203 C   0  0  0  0  0  0  0  0  0  0  0  0
    7.2329   10.4585   25.1463 C   0  0  0  0  0  0  0  0  0  0  0  0
    8.9732   10.1208   23.7711 C   0  0  0  0  0  0  0  0  0  0  0  0
    9.9638   11.9518   22.4115 C   0  0  0  0  0  0  0  0  0  0  0  0
   12.5746   12.7810   20.9774 C   0  0  0  0  0  0  0  0  0  0  0  0
   11.5745   13.8104   20.5362 C   0  0  0  0  0  0  0  0  0  0  0  0
   11.8214   13.5828   22.0001 C   0  0  0  0  0  0  0  0  0  0  0  0
    5.5175   13.6324   25.6907 C   0  0  0  0  0  0  0  0  0  0  0  0
    5.5122   11.2978   26.3616 N   0  0  0  0  0  0  0  0  0  0  0  0
    8.1118    9.5660   24.6580 N   0  0  0  0  0  0  0  0  0  0  0  0
    6.2442   10.2121   26.0526 N   0  0  0  0  0  0  0  0  0  0  0  0
   10.8213   12.9694   22.8441 N   0  0  0  0  0  0  0  0  0  0  0  0
    9.9979   11.4937   21.2562 O   0  0  0  0  0  0  0  0  0  0  0  0
    9.9005    9.2604   23.2328 O   0  0  0  0  0  0  0  0  0  0  0  0
    8.0312   13.3813   23.6367 H   0  0  0  0  0  0  0  0  0  0  0  0
   12.3145   11.7381   20.8427 H   0  0  0  0  0  0  0  0  0  0  0  0
   13.6253   13.0035   20.8355 H   0  0  0  0  0  0  0  0  0  0  0  0
   11.9525   14.7257   20.0978 H   0  0  0  0  0  0  0  0  0  0  0  0
   10.6445   13.4571   20.1079 H   0  0  0  0  0  0  0  0  0  0  0  0
   12.3814   14.3499   22.5241 H   0  0  0  0  0  0  0  0  0  0  0  0
    4.7210   13.7843   24.9427 H   0  0  0  0  0  0  0  0  0  0  0  0
    5.0900   13.8595   26.6833 H   0  0  0  0  0  0  0  0  0  0  0  0
    6.2924   14.3989   25.5126 H   0  0  0  0  0  0  0  0  0  0  0  0
    6.0127    9.3330   26.4978 H   0  0  0  0  0  0  0  0  0  0  0  0
   10.7085   13.3504   23.7778 H   0  0  0  0  0  0  0  0  0  0  0  0
    9.7689    8.3754   23.5966 H   0  0  0  0  0  0  0  0  0  0  0  0
  1  2  1  0  0  0  0
  1  3  2  0  0  0  0
  2  4  1  0  0  0  0
  2  5  2  0  0  0  0
  3  6  1  0  0  0  0
  3  7  1  0  0  0  0
  4 11  1  0  0  0  0
  4 12  2  0  0  0  0
  5 13  1  0  0  0  0
  5 14  1  0  0  0  0
  6 13  2  0  0  0  0
  6 17  1  0  0  0  0
  7 15  1  0  0  0  0
  7 16  2  0  0  0  0
  8  9  1  0  0  0  0
  8 10  1  0  0  0  0
  9 10  1  0  0  0  0
 10 15  1  0  0  0  0
 12 14  1  0  0  0  0
  1 18  1  0  0  0  0
  8 19  1  0  0  0  0
  8 20  1  0  0  0  0
  9 21  1  0  0  0  0
  9 22  1  0  0  0  0
 10 23  1  0  0  0  0
 11 24  1  0  0  0  0
 11 25  1  0  0  0  0
 11 26  1  0  0  0  0
 14 27  1  0  0  0  0
 15 28  1  0  0  0  0
 17 29  1  0  0  0  0
M  END
> <idnumber>
Z1827719547

> <heavy_atoms>
17

> <LogS>
-2.759

> <LogP>
2.492

> <rotating_bonds>
2

> <PSA>
90.9

> <hb_acceptors>
4

> <hb_donors>
3

> <Collection>
Advanced

> <link>
https://www.enaminestore.com/catalog/Z1827719547

> <ROCS_ShapeQuery>
_x1140_x0812_0A_x1140_0A_x1097_0A_x0365_0A_x1097_0A_x0310_0A

> <ROCS_TanimotoCombo>
0.669 

> <ROCS_ShapeTanimoto>
0.272 

> <ROCS_ColorTanimoto>
0.397 

> <ROCS_RefTversky>
0.241 

> <ROCS_RefColorTversky>
0.601 

> <ROCS_RefTverskyCombo>
0.842 

> <ROCS_FitTversky>
1.919 

> <ROCS_FitColorTversky>
0.539 

> <ROCS_FitTverskyCombo>
2.458 

> <ROCS_ColorScore>
-4.841

> <ROCS_Overlap>
2468.902

> <ROCS_Rank>
52                  

$$$$
untitled-dbase-1008008_141
  -OEChem-02092421083D

 36 38  0     0  0  0  0  0  0999 V2000
    8.3547   12.6627   24.1338 C   0  0  0  0  0  0  0  0  0  0  0  0
    7.3671   12.0679   24.9112 C   0  0  0  0  0  0  0  0  0  0  0  0
   11.9561   13.9358   21.8196 C   0  0  0  0  0  0  0  0  0  0  0  0
    9.2665   10.5030   23.7325 C   0  0  0  0  0  0  0  0  0  0  0  0
   11.2935   15.7625   23.6727 C   0  0  0  0  0  0  0  0  0  0  0  0
    9.3262   11.8723   23.5298 C   0  0  0  0  0  0  0  0  0  0  0  0
   12.5655   15.1722   21.8837 C   0  0  0  0  0  0  0  0  0  0  0  0
    7.3950   10.6898   25.0519 C   0  0  0  0  0  0  0  0  0  0  0  0
   10.9841   13.6993   22.7702 C   0  0  0  0  0  0  0  0  0  0  0  0
   13.4797   16.7493   20.0531 C   0  0  0  0  0  0  0  0  0  0  0  0
   13.3156   15.4023   19.4214 C   0  0  0  0  0  0  0  0  0  0  0  0
   13.6277   15.5068   20.8910 C   0  0  0  0  0  0  0  0  0  0  0  0
    5.7905   11.2886   27.8551 C   0  0  0  0  0  0  0  0  0  0  0  0
    5.3642   10.8639   26.4911 C   0  0  0  0  0  0  0  0  0  0  0  0
    8.3225    9.8891   24.4807 N   0  0  0  0  0  0  0  0  0  0  0  0
   12.2577   16.1130   22.8004 N   0  0  0  0  0  0  0  0  0  0  0  0
   10.6264   14.5934   23.7151 N   0  0  0  0  0  0  0  0  0  0  0  0
   10.3369   12.4442   22.7399 N   0  0  0  0  0  0  0  0  0  0  0  0
    6.3825   10.0991   25.8485 N   0  0  0  0  0  0  0  0  0  0  0  0
    8.3583   13.7417   24.0049 H   0  0  0  0  0  0  0  0  0  0  0  0
    6.6055   12.6771   25.3866 H   0  0  0  0  0  0  0  0  0  0  0  0
   12.2254   13.1996   21.0711 H   0  0  0  0  0  0  0  0  0  0  0  0
    9.9970    9.8343   23.2872 H   0  0  0  0  0  0  0  0  0  0  0  0
   11.0250   16.4998   24.4195 H   0  0  0  0  0  0  0  0  0  0  0  0
   14.3808   17.3066   19.8257 H   0  0  0  0  0  0  0  0  0  0  0  0
   12.5941   17.3627   20.1672 H   0  0  0  0  0  0  0  0  0  0  0  0
   12.3190   15.1097   19.1127 H   0  0  0  0  0  0  0  0  0  0  0  0
   14.1049   15.0518   18.7672 H   0  0  0  0  0  0  0  0  0  0  0  0
   14.6342   15.2436   21.1892 H   0  0  0  0  0  0  0  0  0  0  0  0
    6.7010   11.9014   27.7811 H   0  0  0  0  0  0  0  0  0  0  0  0
    4.9885   11.8788   28.3226 H   0  0  0  0  0  0  0  0  0  0  0  0
    5.9962   10.3990   28.4684 H   0  0  0  0  0  0  0  0  0  0  0  0
    4.4538   10.2521   26.5737 H   0  0  0  0  0  0  0  0  0  0  0  0
    5.1515   11.7581   25.8867 H   0  0  0  0  0  0  0  0  0  0  0  0
   10.6722   11.8362   21.9953 H   0  0  0  0  0  0  0  0  0  0  0  0
    6.4120    9.1047   25.9449 H   0  0  0  0  0  0  0  0  0  0  0  0
  1  2  2  0  0  0  0
  1  6  1  0  0  0  0
  2  8  1  0  0  0  0
  3  7  2  0  0  0  0
  3  9  1  0  0  0  0
  4  6  2  0  0  0  0
  4 15  1  0  0  0  0
  5 16  2  0  0  0  0
  5 17  1  0  0  0  0
  6 18  1  0  0  0  0
  7 12  1  0  0  0  0
  7 16  1  0  0  0  0
  8 15  2  0  0  0  0
  8 19  1  0  0  0  0
  9 17  2  0  0  0  0
  9 18  1  0  0  0  0
 10 11  1  0  0  0  0
 10 12  1  0  0  0  0
 11 12  1  0  0  0  0
 13 14  1  0  0  0  0
 14 19  1  0  0  0  0
  1 20  1  0  0  0  0
  2 21  1  0  0  0  0
  3 22  1  0  0  0  0
  4 23  1  0  0  0  0
  5 24  1  0  0  0  0
 10 25  1  0  0  0  0
 10 26  1  0  0  0  0
 11 27  1  0  0  0  0
 11 28  1  0  0  0  0
 12 29  1  0  0  0  0
 13 30  1  0  0  0  0
 13 31  1  0  0  0  0
 13 32  1  0  0  0  0
 14 33  1  0  0  0  0
 14 34  1  0  0  0  0
 18 35  1  0  0  0  0
 19 36  1  0  0  0  0
M  END
> <idnumber>
Z3079948449

> <heavy_atoms>
19

> <LogS>
-2.623

> <LogP>
3.043

> <rotating_bonds>
5

> <PSA>
62.73

> <hb_acceptors>
5

> <hb_donors>
2

> <Collection>
HTS

> <link>
https://www.enaminestore.com/catalog/Z3079948449

> <ROCS_ShapeQuery>
_x1140_x0812_0A_x1140_0A_x1097_0A_x0365_0A_x1097_0A_x0310_0A

> <ROCS_TanimotoCombo>
0.669 

> <ROCS_ShapeTanimoto>
0.232 

> <ROCS_ColorTanimoto>
0.437 

> <ROCS_RefTversky>
0.213 

> <ROCS_RefColorTversky>
0.574 

> <ROCS_RefTverskyCombo>
0.787 

> <ROCS_FitTversky>
1.618 

> <ROCS_FitColorTversky>
0.647 

> <ROCS_FitTverskyCombo>
2.265 

> <ROCS_ColorScore>
-4.562

> <ROCS_Overlap>
2186.684

> <ROCS_Rank>
53                  

$$$$
untitled-dbase-937502_29
  -OEChem-02092421083D

 38 40  0     1  0  0  0  0  0999 V2000
   12.1187   15.9143   21.9475 C   0  0  0  0  0  0  0  0  0  0  0  0
    5.7630   12.4022   26.6630 C   0  0  0  0  0  0  0  0  0  0  0  0
    5.6784   11.0221   26.8328 C   0  0  0  0  0  0  0  0  0  0  0  0
    6.7065   12.9409   25.7876 C   0  0  0  0  0  0  0  0  0  0  0  0
    6.5418   10.1802   26.1336 C   0  0  0  0  0  0  0  0  0  0  0  0
    7.5715   12.1024   25.0716 C   0  0  0  0  0  0  0  0  0  0  0  0
    7.4959   10.7188   25.2662 C   0  0  0  0  0  0  0  0  0  0  0  0
   10.2097   13.3183   21.6749 C   0  0  0  0  0  0  0  0  0  0  0  0
    8.5836   12.6954   24.1336 C   0  0  0  0  0  0  0  0  0  0  0  0
   10.8199   15.7985   19.7899 C   0  0  0  0  0  0  0  0  0  0  0  0
   12.2642   15.5710   19.4542 C   0  0  0  0  0  0  0  0  0  0  0  0
    9.1270   11.6278   23.1787 C   0  0  2  0  0  0  0  0  0  0  0  0
    9.4744   10.3708   23.9949 C   0  0  2  0  0  0  0  0  0  0  0  0
   11.7293   15.1359   20.8002 C   0  0  0  0  0  0  0  0  0  0  0  0
   11.5537   13.6495   21.0529 C   0  0  0  0  0  0  0  0  0  0  0  0
   10.0628    9.2479   23.1418 C   0  0  0  0  0  0  0  0  0  0  0  0
   12.4326   16.5414   22.8718 N   0  0  0  0  0  0  0  0  0  0  0  0
   10.2754   12.1733   22.4595 N   0  0  0  0  0  0  0  0  0  0  0  0
    9.2010   13.9952   21.4950 O   0  0  0  0  0  0  0  0  0  0  0  0
    8.2971    9.8192   24.6146 O   0  0  0  0  0  0  0  0  0  0  0  0
   10.2791    8.1609   23.8980 F   0  0  0  0  0  0  0  0  0  0  0  0
    9.2138    8.9278   22.1535 F   0  0  0  0  0  0  0  0  0  0  0  0
   11.2273    9.6413   22.6038 F   0  0  0  0  0  0  0  0  0  0  0  0
    5.0934   13.0592   27.2103 H   0  0  0  0  0  0  0  0  0  0  0  0
    4.9413   10.6024   27.5110 H   0  0  0  0  0  0  0  0  0  0  0  0
    6.7606   14.0195   25.6626 H   0  0  0  0  0  0  0  0  0  0  0  0
    6.4702    9.1048   26.2738 H   0  0  0  0  0  0  0  0  0  0  0  0
    8.1292   13.5071   23.5525 H   0  0  0  0  0  0  0  0  0  0  0  0
    9.3973   13.1215   24.7346 H   0  0  0  0  0  0  0  0  0  0  0  0
   10.4992   16.8198   19.9616 H   0  0  0  0  0  0  0  0  0  0  0  0
   10.0829   15.1901   19.2784 H   0  0  0  0  0  0  0  0  0  0  0  0
   12.4947   14.8105   18.7170 H   0  0  0  0  0  0  0  0  0  0  0  0
   12.9096   16.4404   19.4006 H   0  0  0  0  0  0  0  0  0  0  0  0
    8.3706   11.3916   22.4319 H   0  0  0  0  0  0  0  0  0  0  0  0
   10.1923   10.6101   24.7944 H   0  0  0  0  0  0  0  0  0  0  0  0
   12.3437   13.2956   21.7251 H   0  0  0  0  0  0  0  0  0  0  0  0
   11.6432   13.1033   20.1071 H   0  0  0  0  0  0  0  0  0  0  0  0
   11.1682   11.6907   22.5369 H   0  0  0  0  0  0  0  0  0  0  0  0
  1 14  1  0  0  0  0
  1 17  3  0  0  0  0
  2  3  1  0  0  0  0
  2  4  2  0  0  0  0
  3  5  2  0  0  0  0
  4  6  1  0  0  0  0
  5  7  1  0  0  0  0
  6  7  2  0  0  0  0
  6  9  1  0  0  0  0
  7 20  1  0  0  0  0
  8 15  1  0  0  0  0
  8 18  1  0  0  0  0
  8 19  2  0  0  0  0
  9 12  1  0  0  0  0
 10 11  1  0  0  0  0
 10 14  1  0  0  0  0
 11 14  1  0  0  0  0
 12 13  1  0  0  0  0
 12 18  1  1  0  0  0
 13 16  1  6  0  0  0
 13 20  1  0  0  0  0
 14 15  1  0  0  0  0
 16 21  1  0  0  0  0
 16 22  1  0  0  0  0
 16 23  1  0  0  0  0
  2 24  1  0  0  0  0
  3 25  1  0  0  0  0
  4 26  1  0  0  0  0
  5 27  1  0  0  0  0
  9 28  1  0  0  0  0
  9 29  1  0  0  0  0
 10 30  1  0  0  0  0
 10 31  1  0  0  0  0
 11 32  1  0  0  0  0
 11 33  1  0  0  0  0
 12 34  1  0  0  0  0
 13 35  1  0  0  0  0
 15 36  1  0  0  0  0
 15 37  1  0  0  0  0
 18 38  1  0  0  0  0
M  END
> <idnumber>
Z2718119330

> <heavy_atoms>
23

> <LogS>
-3.631

> <LogP>
2.451

> <rotating_bonds>
4

> <PSA>
62.12

> <hb_acceptors>
3

> <hb_donors>
1

> <Collection>
HTS

> <link>
https://www.enaminestore.com/catalog/Z2718119330

> <ROCS_ShapeQuery>
_x1140_x0812_0A_x1140_0A_x1097_0A_x0365_0A_x1097_0A_x0310_0A

> <ROCS_TanimotoCombo>
0.669 

> <ROCS_ShapeTanimoto>
0.300 

> <ROCS_ColorTanimoto>
0.369 

> <ROCS_RefTversky>
0.265 

> <ROCS_RefColorTversky>
0.478 

> <ROCS_RefTverskyCombo>
0.743 

> <ROCS_FitTversky>
1.783 

> <ROCS_FitColorTversky>
0.618 

> <ROCS_FitTverskyCombo>
2.401 

> <ROCS_ColorScore>
-3.773

> <ROCS_Overlap>
2723.309

> <ROCS_Rank>
54                  

$$$$
untitled-dbase-802006_127
  -OEChem-02092421083D

 43 44  0     0  0  0  0  0  0999 V2000
    8.9641   10.3768   23.6186 C   0  0  0  0  0  0  0  0  0  0  0  0
    9.2224   11.7314   23.6371 C   0  0  0  0  0  0  0  0  0  0  0  0
    7.8255   10.9050   25.4170 C   0  0  0  0  0  0  0  0  0  0  0  0
   10.2050   12.4102   21.4239 C   0  0  0  0  0  0  0  0  0  0  0  0
   12.4004   13.4678   21.6246 C   0  0  0  0  0  0  0  0  0  0  0  0
   10.3100   14.8336   21.1205 C   0  0  0  0  0  0  0  0  0  0  0  0
   13.3596   14.5599   21.1745 C   0  0  0  0  0  0  0  0  0  0  0  0
   11.0845   16.0463   20.6256 C   0  0  0  0  0  0  0  0  0  0  0  0
   11.0701   13.5316   20.8773 C   0  0  0  0  0  0  0  0  0  0  0  0
    6.9694   10.7821   26.6167 C   0  0  0  0  0  0  0  0  0  0  0  0
   11.6267    8.8680   23.8588 C   0  0  0  0  0  0  0  0  0  0  0  0
   11.4259    8.3274   21.4234 C   0  0  0  0  0  0  0  0  0  0  0  0
    9.4634    9.4104   22.6191 C   0  0  0  0  0  0  0  0  0  0  0  0
   11.0115    9.3043   22.5267 C   0  0  0  0  0  0  0  0  0  0  0  0
    8.1636    9.9010   24.6387 N   0  0  0  0  0  0  0  0  0  0  0  0
    9.9782   12.5711   22.7849 N   0  0  0  0  0  0  0  0  0  0  0  0
    9.7971   11.5165   20.6892 O   0  0  0  0  0  0  0  0  0  0  0  0
   13.4699   17.1249   20.6604 O   0  0  0  0  0  0  0  0  0  0  0  0
   12.4532   16.3747   22.8427 O   0  0  0  0  0  0  0  0  0  0  0  0
    8.4345   12.4490   24.9808 S   0  0  0  0  0  0  0  0  0  0  0  0
   12.6715   16.1839   21.4219 S   0  0  0  0  0  0  0  0  0  0  0  0
   12.8719   12.4908   21.4602 H   0  0  0  0  0  0  0  0  0  0  0  0
   12.2266   13.5462   22.7057 H   0  0  0  0  0  0  0  0  0  0  0  0
   10.0887   14.9452   22.1898 H   0  0  0  0  0  0  0  0  0  0  0  0
    9.3401   14.7976   20.6088 H   0  0  0  0  0  0  0  0  0  0  0  0
   14.2944   14.5149   21.7415 H   0  0  0  0  0  0  0  0  0  0  0  0
   13.5951   14.4626   20.1098 H   0  0  0  0  0  0  0  0  0  0  0  0
   11.2627   15.9863   19.5471 H   0  0  0  0  0  0  0  0  0  0  0  0
   10.5364   16.9697   20.8363 H   0  0  0  0  0  0  0  0  0  0  0  0
   11.2033   13.3502   19.8302 H   0  0  0  0  0  0  0  0  0  0  0  0
    7.5750   10.5821   27.5146 H   0  0  0  0  0  0  0  0  0  0  0  0
    6.3856   11.6989   26.8007 H   0  0  0  0  0  0  0  0  0  0  0  0
    6.2354    9.9658   26.5158 H   0  0  0  0  0  0  0  0  0  0  0  0
   11.2531    7.8853   24.1662 H   0  0  0  0  0  0  0  0  0  0  0  0
   11.3999    9.5834   24.6554 H   0  0  0  0  0  0  0  0  0  0  0  0
   12.7174    8.8042   23.7794 H   0  0  0  0  0  0  0  0  0  0  0  0
   11.0430    7.3223   21.6294 H   0  0  0  0  0  0  0  0  0  0  0  0
   11.0413    8.6433   20.4476 H   0  0  0  0  0  0  0  0  0  0  0  0
   12.5167    8.2598   21.3529 H   0  0  0  0  0  0  0  0  0  0  0  0
    9.0539    8.3949   22.7971 H   0  0  0  0  0  0  0  0  0  0  0  0
    9.0737    9.6862   21.6186 H   0  0  0  0  0  0  0  0  0  0  0  0
   11.4201   10.2900   22.2700 H   0  0  0  0  0  0  0  0  0  0  0  0
   10.3977   13.3830   23.2331 H   0  0  0  0  0  0  0  0  0  0  0  0
  1  2  2  0  0  0  0
  1 13  1  0  0  0  0
  1 15  1  0  0  0  0
  2 16  1  0  0  0  0
  2 20  1  0  0  0  0
  3 10  1  0  0  0  0
  3 15  2  0  0  0  0
  3 20  1  0  0  0  0
  4  9  1  0  0  0  0
  4 16  1  0  0  0  0
  4 17  2  0  0  0  0
  5  7  1  0  0  0  0
  5  9  1  0  0  0  0
  6  8  1  0  0  0  0
  6  9  1  0  0  0  0
  7 21  1  0  0  0  0
  8 21  1  0  0  0  0
 11 14  1  0  0  0  0
 12 14  1  0  0  0  0
 13 14  1  0  0  0  0
 18 21  2  0  0  0  0
 19 21  2  0  0  0  0
  5 22  1  0  0  0  0
  5 23  1  0  0  0  0
  6 24  1  0  0  0  0
  6 25  1  0  0  0  0
  7 26  1  0  0  0  0
  7 27  1  0  0  0  0
  8 28  1  0  0  0  0
  8 29  1  0  0  0  0
  9 30  1  0  0  0  0
 10 31  1  0  0  0  0
 10 32  1  0  0  0  0
 10 33  1  0  0  0  0
 11 34  1  0  0  0  0
 11 35  1  0  0  0  0
 11 36  1  0  0  0  0
 12 37  1  0  0  0  0
 12 38  1  0  0  0  0
 12 39  1  0  0  0  0
 13 40  1  0  0  0  0
 13 41  1  0  0  0  0
 14 42  1  0  0  0  0
 16 43  1  0  0  0  0
M  END
> <idnumber>
Z1421267660

> <heavy_atoms>
21

> <LogS>
-3.122

> <LogP>
0.234

> <rotating_bonds>
4

> <PSA>
76.13

> <hb_acceptors>
4

> <hb_donors>
1

> <Collection>
HTS

> <link>
https://www.enaminestore.com/catalog/Z1421267660

> <ROCS_ShapeQuery>
_x1140_x0812_0A_x1140_0A_x1097_0A_x0365_0A_x1097_0A_x0310_0A

> <ROCS_TanimotoCombo>
0.668 

> <ROCS_ShapeTanimoto>
0.228 

> <ROCS_ColorTanimoto>
0.440 

> <ROCS_RefTversky>
0.211 

> <ROCS_RefColorTversky>
0.611 

> <ROCS_RefTverskyCombo>
0.821 

> <ROCS_FitTversky>
1.584 

> <ROCS_FitColorTversky>
0.611 

> <ROCS_FitTverskyCombo>
2.195 

> <ROCS_ColorScore>
-4.887

> <ROCS_Overlap>
2160.755

> <ROCS_Rank>
55                  

$$$$
untitled-dbase-1081291_12
  -OEChem-02092421083D

 31 31  0     0  0  0  0  0  0999 V2000
    8.9743   10.3990   23.6079 C   0  0  0  0  0  0  0  0  0  0  0  0
    9.3607   11.7195   23.7028 C   0  0  0  0  0  0  0  0  0  0  0  0
    7.8585   10.9399   25.4169 C   0  0  0  0  0  0  0  0  0  0  0  0
   11.7962   13.5615   19.8053 C   0  0  0  0  0  0  0  0  0  0  0  0
   11.4034   13.4523   21.0755 C   0  0  0  0  0  0  0  0  0  0  0  0
   10.4450   12.4157   21.5447 C   0  0  0  0  0  0  0  0  0  0  0  0
    6.9727   10.8376   26.5967 C   0  0  0  0  0  0  0  0  0  0  0  0
   11.4741    8.6383   23.8061 C   0  0  0  0  0  0  0  0  0  0  0  0
   11.2679    8.2306   21.3454 C   0  0  0  0  0  0  0  0  0  0  0  0
    9.4063    9.4219   22.5418 C   0  0  0  0  0  0  0  0  0  0  0  0
   10.9294    9.1924   22.4871 C   0  0  0  0  0  0  0  0  0  0  0  0
    8.1132    9.9501   24.5901 N   0  0  0  0  0  0  0  0  0  0  0  0
   10.1795   12.4976   22.9350 N   0  0  0  0  0  0  0  0  0  0  0  0
    9.9682   11.6022   20.7619 O   0  0  0  0  0  0  0  0  0  0  0  0
   11.8721   14.3016   22.0127 F   0  0  0  0  0  0  0  0  0  0  0  0
    8.6206   12.4385   25.0727 S   0  0  0  0  0  0  0  0  0  0  0  0
   12.4976   14.3371   19.5172 H   0  0  0  0  0  0  0  0  0  0  0  0
   11.4374   12.8943   19.0296 H   0  0  0  0  0  0  0  0  0  0  0  0
    7.5396   10.5332   27.4904 H   0  0  0  0  0  0  0  0  0  0  0  0
    6.4760   11.7955   26.8220 H   0  0  0  0  0  0  0  0  0  0  0  0
    6.1658   10.1024   26.4421 H   0  0  0  0  0  0  0  0  0  0  0  0
   11.0012    7.6840   24.0617 H   0  0  0  0  0  0  0  0  0  0  0  0
   11.3027    9.3357   24.6319 H   0  0  0  0  0  0  0  0  0  0  0  0
   12.5547    8.4718   23.7394 H   0  0  0  0  0  0  0  0  0  0  0  0
   10.7854    7.2595   21.4985 H   0  0  0  0  0  0  0  0  0  0  0  0
   10.9342    8.6264   20.3799 H   0  0  0  0  0  0  0  0  0  0  0  0
   12.3481    8.0600   21.2875 H   0  0  0  0  0  0  0  0  0  0  0  0
    8.8890    8.4635   22.6820 H   0  0  0  0  0  0  0  0  0  0  0  0
    9.0541    9.8068   21.5752 H   0  0  0  0  0  0  0  0  0  0  0  0
   11.4364   10.1441   22.2828 H   0  0  0  0  0  0  0  0  0  0  0  0
   10.6949   13.2682   23.4074 H   0  0  0  0  0  0  0  0  0  0  0  0
  1  2  2  0  0  0  0
  1 10  1  0  0  0  0
  1 12  1  0  0  0  0
  2 13  1  0  0  0  0
  2 16  1  0  0  0  0
  3  7  1  0  0  0  0
  3 12  2  0  0  0  0
  3 16  1  0  0  0  0
  4  5  2  0  0  0  0
  5  6  1  0  0  0  0
  5 15  1  0  0  0  0
  6 13  1  0  0  0  0
  6 14  2  0  0  0  0
  8 11  1  0  0  0  0
  9 11  1  0  0  0  0
 10 11  1  0  0  0  0
  4 17  1  0  0  0  0
  4 18  1  0  0  0  0
  7 19  1  0  0  0  0
  7 20  1  0  0  0  0
  7 21  1  0  0  0  0
  8 22  1  0  0  0  0
  8 23  1  0  0  0  0
  8 24  1  0  0  0  0
  9 25  1  0  0  0  0
  9 26  1  0  0  0  0
  9 27  1  0  0  0  0
 10 28  1  0  0  0  0
 10 29  1  0  0  0  0
 11 30  1  0  0  0  0
 13 31  1  0  0  0  0
M  END
> <idnumber>
Z4281796906

> <heavy_atoms>
16

> <LogS>
-3.263

> <LogP>
2.79

> <rotating_bonds>
4

> <PSA>
41.99

> <hb_acceptors>
2

> <hb_donors>
1

> <Collection>
Functional

> <link>
https://www.enaminestore.com/catalog/Z4281796906

> <ROCS_ShapeQuery>
_x1140_x0812_0A_x1140_0A_x1097_0A_x0365_0A_x1097_0A_x0310_0A

> <ROCS_TanimotoCombo>
0.668 

> <ROCS_ShapeTanimoto>
0.222 

> <ROCS_ColorTanimoto>
0.446 

> <ROCS_RefTversky>
0.202 

> <ROCS_RefColorTversky>
0.511 

> <ROCS_RefTverskyCombo>
0.713 

> <ROCS_FitTversky>
1.770 

> <ROCS_FitColorTversky>
0.779 

> <ROCS_FitTverskyCombo>
2.549 

> <ROCS_ColorScore>
-4.010

> <ROCS_Overlap>
2074.485

> <ROCS_Rank>
56                  

$$$$
untitled-dbase-75736_20
  -OEChem-02092421083D

 26 27  0     0  0  0  0  0  0999 V2000
    8.3586   12.6616   24.1214 C   0  0  0  0  0  0  0  0  0  0  0  0
    7.3721   12.0727   24.9045 C   0  0  0  0  0  0  0  0  0  0  0  0
    9.2670   10.4985   23.7311 C   0  0  0  0  0  0  0  0  0  0  0  0
   11.5560   15.7095   21.7255 C   0  0  0  0  0  0  0  0  0  0  0  0
   12.2557   15.2269   23.8338 C   0  0  0  0  0  0  0  0  0  0  0  0
    9.3279   11.8665   23.5200 C   0  0  0  0  0  0  0  0  0  0  0  0
   10.8999   14.4989   21.6334 C   0  0  0  0  0  0  0  0  0  0  0  0
    7.3986   10.6954   25.0535 C   0  0  0  0  0  0  0  0  0  0  0  0
   10.9862   13.6869   22.7458 C   0  0  0  0  0  0  0  0  0  0  0  0
    5.0843   10.6767   25.9858 C   0  0  0  0  0  0  0  0  0  0  0  0
   12.2460   16.1071   22.8146 N   0  0  0  0  0  0  0  0  0  0  0  0
    8.3240    9.8902   24.4850 N   0  0  0  0  0  0  0  0  0  0  0  0
   11.6583   14.0205   23.8671 N   0  0  0  0  0  0  0  0  0  0  0  0
   10.3374   12.4324   22.7245 N   0  0  0  0  0  0  0  0  0  0  0  0
    6.3872   10.1107   25.8558 N   0  0  0  0  0  0  0  0  0  0  0  0
   10.0484   14.0807   20.2034 Cl  0  0  0  0  0  0  0  0  0  0  0  0
    8.3632   13.7398   23.9860 H   0  0  0  0  0  0  0  0  0  0  0  0
    6.6122   12.6856   25.3780 H   0  0  0  0  0  0  0  0  0  0  0  0
    9.9957    9.8262   23.2881 H   0  0  0  0  0  0  0  0  0  0  0  0
   11.5533   16.4240   20.9081 H   0  0  0  0  0  0  0  0  0  0  0  0
   12.8005   15.5223   24.7223 H   0  0  0  0  0  0  0  0  0  0  0  0
    5.0203   11.5934   25.3813 H   0  0  0  0  0  0  0  0  0  0  0  0
    4.3337    9.9531   25.6350 H   0  0  0  0  0  0  0  0  0  0  0  0
    4.8939   10.9197   27.0416 H   0  0  0  0  0  0  0  0  0  0  0  0
   10.6704   11.8196   21.9827 H   0  0  0  0  0  0  0  0  0  0  0  0
    6.6290    9.2692   26.3378 H   0  0  0  0  0  0  0  0  0  0  0  0
  1  2  2  0  0  0  0
  1  6  1  0  0  0  0
  2  8  1  0  0  0  0
  3  6  2  0  0  0  0
  3 12  1  0  0  0  0
  4  7  1  0  0  0  0
  4 11  2  0  0  0  0
  5 11  1  0  0  0  0
  5 13  2  0  0  0  0
  6 14  1  0  0  0  0
  7  9  2  0  0  0  0
  7 16  1  0  0  0  0
  8 12  2  0  0  0  0
  8 15  1  0  0  0  0
  9 13  1  0  0  0  0
  9 14  1  0  0  0  0
 10 15  1  0  0  0  0
  1 17  1  0  0  0  0
  2 18  1  0  0  0  0
  3 19  1  0  0  0  0
  4 20  1  0  0  0  0
  5 21  1  0  0  0  0
 10 22  1  0  0  0  0
 10 23  1  0  0  0  0
 10 24  1  0  0  0  0
 14 25  1  0  0  0  0
 15 26  1  0  0  0  0
M  END
> <idnumber>
Z1787638016

> <heavy_atoms>
16

> <LogS>
-2.526

> <LogP>
2.309

> <rotating_bonds>
3

> <PSA>
62.73

> <hb_acceptors>
5

> <hb_donors>
2

> <Collection>
HTS

> <link>
https://www.enaminestore.com/catalog/Z1787638016

> <ROCS_ShapeQuery>
_x1140_x0812_0A_x1140_0A_x1097_0A_x0365_0A_x1097_0A_x0310_0A

> <ROCS_TanimotoCombo>
0.667 

> <ROCS_ShapeTanimoto>
0.231 

> <ROCS_ColorTanimoto>
0.437 

> <ROCS_RefTversky>
0.210 

> <ROCS_RefColorTversky>
0.574 

> <ROCS_RefTverskyCombo>
0.783 

> <ROCS_FitTversky>
1.765 

> <ROCS_FitColorTversky>
0.647 

> <ROCS_FitTverskyCombo>
2.411 

> <ROCS_ColorScore>
-4.562

> <ROCS_Overlap>
2151.118

> <ROCS_Rank>
57                  

$$$$
untitled-dbase-983746_162
  -OEChem-02092421083D

 45 47  0     0  0  0  0  0  0999 V2000
    6.5266   10.4372   26.3011 C   0  0  0  0  0  0  0  0  0  0  0  0
    5.6162   11.3652   26.8129 C   0  0  0  0  0  0  0  0  0  0  0  0
    8.3258   12.4467   23.8055 C   0  0  0  0  0  0  0  0  0  0  0  0
    6.4973   13.0353   25.3259 C   0  0  0  0  0  0  0  0  0  0  0  0
    7.4128   12.1017   24.8113 C   0  0  0  0  0  0  0  0  0  0  0  0
    9.2172   11.5018   23.3182 C   0  0  0  0  0  0  0  0  0  0  0  0
    7.4336   10.7793   25.3018 C   0  0  0  0  0  0  0  0  0  0  0  0
    5.6013   12.6659   26.3250 C   0  0  0  0  0  0  0  0  0  0  0  0
    9.1624   10.2336   23.8600 C   0  0  0  0  0  0  0  0  0  0  0  0
   11.5713   15.5291   22.8219 C   0  0  0  0  0  0  0  0  0  0  0  0
   10.1735   11.8623   22.2649 C   0  0  0  0  0  0  0  0  0  0  0  0
   11.4054   14.6713   21.5880 C   0  0  0  0  0  0  0  0  0  0  0  0
   12.8581   13.8341   25.2621 C   0  0  0  0  0  0  0  0  0  0  0  0
   12.1657   15.0432   25.9069 C   0  0  0  0  0  0  0  0  0  0  0  0
   11.9690   12.5968   25.1099 C   0  0  0  0  0  0  0  0  0  0  0  0
   12.0982   13.3075   21.7321 C   0  0  0  0  0  0  0  0  0  0  0  0
   10.8954   15.5679   25.2183 C   0  0  0  0  0  0  0  0  0  0  0  0
   12.2053   11.8401   23.7961 C   0  0  0  0  0  0  0  0  0  0  0  0
    8.2975    9.8602   24.8309 N   0  0  0  0  0  0  0  0  0  0  0  0
   10.7401   15.1259   23.8493 N   0  0  0  0  0  0  0  0  0  0  0  0
   11.4333   12.3592   22.6433 N   0  0  0  0  0  0  0  0  0  0  0  0
   12.4036   16.4299   22.8851 O   0  0  0  0  0  0  0  0  0  0  0  0
    9.7859   11.6961   21.1090 O   0  0  0  0  0  0  0  0  0  0  0  0
   10.0222    9.2642   23.4124 O   0  0  0  0  0  0  0  0  0  0  0  0
    4.7305   13.5589   26.8126 F   0  0  0  0  0  0  0  0  0  0  0  0
    6.5180    9.4246   26.7003 H   0  0  0  0  0  0  0  0  0  0  0  0
    4.9206   11.0686   27.5924 H   0  0  0  0  0  0  0  0  0  0  0  0
    8.3381   13.4581   23.4033 H   0  0  0  0  0  0  0  0  0  0  0  0
    6.4769   14.0562   24.9513 H   0  0  0  0  0  0  0  0  0  0  0  0
   10.3469   14.5362   21.3256 H   0  0  0  0  0  0  0  0  0  0  0  0
   11.8611   15.2222   20.7525 H   0  0  0  0  0  0  0  0  0  0  0  0
   13.2154   14.1294   24.2818 H   0  0  0  0  0  0  0  0  0  0  0  0
   13.7191   13.5652   25.8640 H   0  0  0  0  0  0  0  0  0  0  0  0
   11.8835   14.7525   26.9304 H   0  0  0  0  0  0  0  0  0  0  0  0
   12.8837   15.8644   26.0368 H   0  0  0  0  0  0  0  0  0  0  0  0
   12.1870   11.9233   25.9416 H   0  0  0  0  0  0  0  0  0  0  0  0
   10.9248   12.8759   25.2258 H   0  0  0  0  0  0  0  0  0  0  0  0
   12.1779   12.8608   20.7321 H   0  0  0  0  0  0  0  0  0  0  0  0
   13.1344   13.4318   22.0817 H   0  0  0  0  0  0  0  0  0  0  0  0
   10.0010   15.2477   25.7722 H   0  0  0  0  0  0  0  0  0  0  0  0
   10.9100   16.6681   25.2190 H   0  0  0  0  0  0  0  0  0  0  0  0
   13.2681   11.8051   23.5121 H   0  0  0  0  0  0  0  0  0  0  0  0
   11.9044   10.7865   23.9360 H   0  0  0  0  0  0  0  0  0  0  0  0
    9.9785   14.4841   23.6318 H   0  0  0  0  0  0  0  0  0  0  0  0
    9.8586    8.4379   23.8877 H   0  0  0  0  0  0  0  0  0  0  0  0
  1  2  2  0  0  0  0
  1  7  1  0  0  0  0
  2  8  1  0  0  0  0
  3  5  2  0  0  0  0
  3  6  1  0  0  0  0
  4  5  1  0  0  0  0
  4  8  2  0  0  0  0
  5  7  1  0  0  0  0
  6  9  2  0  0  0  0
  6 11  1  0  0  0  0
  7 19  2  0  0  0  0
  8 25  1  0  0  0  0
  9 19  1  0  0  0  0
  9 24  1  0  0  0  0
 10 12  1  0  0  0  0
 10 20  1  0  0  0  0
 10 22  2  0  0  0  0
 11 21  1  0  0  0  0
 11 23  2  0  0  0  0
 12 16  1  0  0  0  0
 13 14  1  0  0  0  0
 13 15  1  0  0  0  0
 14 17  1  0  0  0  0
 15 18  1  0  0  0  0
 16 21  1  0  0  0  0
 17 20  1  0  0  0  0
 18 21  1  0  0  0  0
  1 26  1  0  0  0  0
  2 27  1  0  0  0  0
  3 28  1  0  0  0  0
  4 29  1  0  0  0  0
 12 30  1  0  0  0  0
 12 31  1  0  0  0  0
 13 32  1  0  0  0  0
 13 33  1  0  0  0  0
 14 34  1  0  0  0  0
 14 35  1  0  0  0  0
 15 36  1  0  0  0  0
 15 37  1  0  0  0  0
 16 38  1  0  0  0  0
 16 39  1  0  0  0  0
 17 40  1  0  0  0  0
 17 41  1  0  0  0  0
 18 42  1  0  0  0  0
 18 43  1  0  0  0  0
 20 44  1  0  0  0  0
 24 45  1  0  0  0  0
M  END
> <idnumber>
Z2965257928

> <heavy_atoms>
25

> <LogS>
-3.482

> <LogP>
1.906

> <rotating_bonds>
1

> <PSA>
82.53

> <hb_acceptors>
4

> <hb_donors>
2

> <Collection>
Advanced

> <link>
https://www.enaminestore.com/catalog/Z2965257928

> <ROCS_ShapeQuery>
_x1140_x0812_0A_x1140_0A_x1097_0A_x0365_0A_x1097_0A_x0310_0A

> <ROCS_TanimotoCombo>
0.667 

> <ROCS_ShapeTanimoto>
0.298 

> <ROCS_ColorTanimoto>
0.370 

> <ROCS_RefTversky>
0.265 

> <ROCS_RefColorTversky>
0.540 

> <ROCS_RefTverskyCombo>
0.806 

> <ROCS_FitTversky>
1.694 

> <ROCS_FitColorTversky>
0.539 

> <ROCS_FitTverskyCombo>
2.233 

> <ROCS_ColorScore>
-4.323

> <ROCS_Overlap>
2726.228

> <ROCS_Rank>
58                  

$$$$
untitled-dbase-8252_1
  -OEChem-02092421083D

 21 21  0     0  0  0  0  0  0999 V2000
    8.7593   12.5024   24.6091 C   0  0  0  0  0  0  0  0  0  0  0  0
    9.5732   11.6234   23.9033 C   0  0  0  0  0  0  0  0  0  0  0  0
    7.6329   12.0217   25.2675 C   0  0  0  0  0  0  0  0  0  0  0  0
    9.2200   10.2837   23.8868 C   0  0  0  0  0  0  0  0  0  0  0  0
    7.3664   10.6642   25.1898 C   0  0  0  0  0  0  0  0  0  0  0  0
    9.8064    7.9997   23.0711 C   0  0  0  0  0  0  0  0  0  0  0  0
    5.7092   10.8041   27.0498 C   0  0  0  0  0  0  0  0  0  0  0  0
    8.1337    9.7796   24.5141 N   0  0  0  0  0  0  0  0  0  0  0  0
   10.0596    9.4006   23.1634 N   0  0  0  0  0  0  0  0  0  0  0  0
    6.2153   10.1894   25.8661 N   0  0  0  0  0  0  0  0  0  0  0  0
    9.0021   13.5601   24.6456 H   0  0  0  0  0  0  0  0  0  0  0  0
   10.4538   11.9901   23.3860 H   0  0  0  0  0  0  0  0  0  0  0  0
    6.9923   12.7007   25.8208 H   0  0  0  0  0  0  0  0  0  0  0  0
    8.8925    7.7541   23.6318 H   0  0  0  0  0  0  0  0  0  0  0  0
    9.6752    7.7198   22.0155 H   0  0  0  0  0  0  0  0  0  0  0  0
   10.6566    7.4449   23.4947 H   0  0  0  0  0  0  0  0  0  0  0  0
    6.3429   11.6625   27.3174 H   0  0  0  0  0  0  0  0  0  0  0  0
    4.6801   11.1494   26.8723 H   0  0  0  0  0  0  0  0  0  0  0  0
    5.7142   10.0742   27.8728 H   0  0  0  0  0  0  0  0  0  0  0  0
   10.8536    9.8068   22.7121 H   0  0  0  0  0  0  0  0  0  0  0  0
    5.7634    9.3891   25.4732 H   0  0  0  0  0  0  0  0  0  0  0  0
  1  2  2  0  0  0  0
  1  3  1  0  0  0  0
  2  4  1  0  0  0  0
  3  5  2  0  0  0  0
  4  8  2  0  0  0  0
  4  9  1  0  0  0  0
  5  8  1  0  0  0  0
  5 10  1  0  0  0  0
  6  9  1  0  0  0  0
  7 10  1  0  0  0  0
  1 11  1  0  0  0  0
  2 12  1  0  0  0  0
  3 13  1  0  0  0  0
  6 14  1  0  0  0  0
  6 15  1  0  0  0  0
  6 16  1  0  0  0  0
  7 17  1  0  0  0  0
  7 18  1  0  0  0  0
  7 19  1  0  0  0  0
  9 20  1  0  0  0  0
 10 21  1  0  0  0  0
M  END
> <idnumber>
Z1203731164

> <heavy_atoms>
10

> <LogS>
-1.09

> <LogP>
1.587

> <rotating_bonds>
2

> <PSA>
36.95

> <hb_acceptors>
3

> <hb_donors>
2

> <Collection>
Legacy

> <link>
https://www.enaminestore.com/catalog/Z1203731164

> <ROCS_ShapeQuery>
_x1140_x0812_0A_x1140_0A_x1097_0A_x0365_0A_x1097_0A_x0310_0A

> <ROCS_TanimotoCombo>
0.667 

> <ROCS_ShapeTanimoto>
0.194 

> <ROCS_ColorTanimoto>
0.473 

> <ROCS_RefTversky>
0.178 

> <ROCS_RefColorTversky>
0.494 

> <ROCS_RefTverskyCombo>
0.672 

> <ROCS_FitTversky>
1.924 

> <ROCS_FitColorTversky>
0.917 

> <ROCS_FitTverskyCombo>
2.841 

> <ROCS_ColorScore>
-3.852

> <ROCS_Overlap>
1821.251

> <ROCS_Rank>
59                  

$$$$
untitled-dbase-1156782_46
  -OEChem-02092421083D

 34 36  0     0  0  0  0  0  0999 V2000
    5.8497   12.2347   25.4538 C   0  0  0  0  0  0  0  0  0  0  0  0
    9.0221   10.2401   23.8043 C   0  0  0  0  0  0  0  0  0  0  0  0
    5.4069   11.1879   26.2333 C   0  0  0  0  0  0  0  0  0  0  0  0
    6.9957   11.7870   24.7448 C   0  0  0  0  0  0  0  0  0  0  0  0
    8.9225   11.5451   23.3409 C   0  0  0  0  0  0  0  0  0  0  0  0
    7.8872   12.3480   23.8162 C   0  0  0  0  0  0  0  0  0  0  0  0
    7.2129   10.4653   25.1232 C   0  0  0  0  0  0  0  0  0  0  0  0
    9.9084   12.0452   22.3642 C   0  0  0  0  0  0  0  0  0  0  0  0
   12.4320   15.8166   23.7746 C   0  0  0  0  0  0  0  0  0  0  0  0
   11.6936   13.9228   22.1049 C   0  0  0  0  0  0  0  0  0  0  0  0
   10.7730   13.7886   24.0248 C   0  0  0  0  0  0  0  0  0  0  0  0
   12.1243   14.3374   23.5265 C   0  0  0  0  0  0  0  0  0  0  0  0
    7.7490   13.7588   23.3398 C   0  0  0  0  0  0  0  0  0  0  0  0
   12.6573   16.2305   25.2036 C   0  0  0  0  0  0  0  0  0  0  0  0
    8.1941    9.6481   24.6962 N   0  0  0  0  0  0  0  0  0  0  0  0
    6.2411   10.1202   26.0252 N   0  0  0  0  0  0  0  0  0  0  0  0
   10.6617   13.1266   22.7390 N   0  0  0  0  0  0  0  0  0  0  0  0
    9.9874   11.4843   21.2741 O   0  0  0  0  0  0  0  0  0  0  0  0
   12.4940   16.6264   22.8508 O   0  0  0  0  0  0  0  0  0  0  0  0
    5.3935   13.2140   25.4048 H   0  0  0  0  0  0  0  0  0  0  0  0
    9.8199    9.5907   23.4506 H   0  0  0  0  0  0  0  0  0  0  0  0
    4.5737   11.1085   26.9172 H   0  0  0  0  0  0  0  0  0  0  0  0
   11.2857   14.7195   21.4758 H   0  0  0  0  0  0  0  0  0  0  0  0
   12.4365   13.3426   21.5519 H   0  0  0  0  0  0  0  0  0  0  0  0
   10.8342   13.1037   24.8742 H   0  0  0  0  0  0  0  0  0  0  0  0
    9.9828   14.5275   24.1869 H   0  0  0  0  0  0  0  0  0  0  0  0
   12.9622   13.7209   23.8859 H   0  0  0  0  0  0  0  0  0  0  0  0
    8.3156   14.4344   23.9899 H   0  0  0  0  0  0  0  0  0  0  0  0
    8.1188   13.8666   22.3135 H   0  0  0  0  0  0  0  0  0  0  0  0
    6.6985   14.0729   23.3370 H   0  0  0  0  0  0  0  0  0  0  0  0
   13.7186   16.1399   25.4509 H   0  0  0  0  0  0  0  0  0  0  0  0
   12.0829   15.5804   25.8682 H   0  0  0  0  0  0  0  0  0  0  0  0
   12.3510   17.2710   25.3363 H   0  0  0  0  0  0  0  0  0  0  0  0
    6.1530    9.2160   26.4679 H   0  0  0  0  0  0  0  0  0  0  0  0
  1  3  2  0  0  0  0
  1  4  1  0  0  0  0
  2  5  1  0  0  0  0
  2 15  2  0  0  0  0
  3 16  1  0  0  0  0
  4  6  1  0  0  0  0
  4  7  2  0  0  0  0
  5  6  2  0  0  0  0
  5  8  1  0  0  0  0
  6 13  1  0  0  0  0
  7 15  1  0  0  0  0
  7 16  1  0  0  0  0
  8 17  1  0  0  0  0
  8 18  2  0  0  0  0
  9 12  1  0  0  0  0
  9 14  1  0  0  0  0
  9 19  2  0  0  0  0
 10 12  1  0  0  0  0
 10 17  1  0  0  0  0
 11 12  1  0  0  0  0
 11 17  1  0  0  0  0
  1 20  1  0  0  0  0
  2 21  1  0  0  0  0
  3 22  1  0  0  0  0
 10 23  1  0  0  0  0
 10 24  1  0  0  0  0
 11 25  1  0  0  0  0
 11 26  1  0  0  0  0
 12 27  1  0  0  0  0
 13 28  1  0  0  0  0
 13 29  1  0  0  0  0
 13 30  1  0  0  0  0
 14 31  1  0  0  0  0
 14 32  1  0  0  0  0
 14 33  1  0  0  0  0
 16 34  1  0  0  0  0
M  END
> <idnumber>
Z7626709882

> <heavy_atoms>
19

> <LogS>
-3.512

> <LogP>
1.223

> <rotating_bonds>
2

> <PSA>
66.06

> <hb_acceptors>
3

> <hb_donors>
1

> <Collection>
Advanced

> <link>
https://www.enaminestore.com/catalog/Z7626709882

> <ROCS_ShapeQuery>
_x1140_x0812_0A_x1140_0A_x1097_0A_x0365_0A_x1097_0A_x0310_0A

> <ROCS_TanimotoCombo>
0.667 

> <ROCS_ShapeTanimoto>
0.262 

> <ROCS_ColorTanimoto>
0.405 

> <ROCS_RefTversky>
0.235 

> <ROCS_RefColorTversky>
0.545 

> <ROCS_RefTverskyCombo>
0.780 

> <ROCS_FitTversky>
1.765 

> <ROCS_FitColorTversky>
0.613 

> <ROCS_FitTverskyCombo>
2.378 

> <ROCS_ColorScore>
-4.334

> <ROCS_Overlap>
2412.873

> <ROCS_Rank>
60                  

$$$$
untitled-dbase-1085971_20
  -OEChem-02092421083D

 39 41  0     0  0  0  0  0  0999 V2000
    8.4397   12.6674   24.3567 C   0  0  0  0  0  0  0  0  0  0  0  0
    7.4440   12.0430   25.0996 C   0  0  0  0  0  0  0  0  0  0  0  0
    9.2099   10.5208   23.6818 C   0  0  0  0  0  0  0  0  0  0  0  0
    9.3435   11.8990   23.6315 C   0  0  0  0  0  0  0  0  0  0  0  0
    7.3953   10.6584   25.0841 C   0  0  0  0  0  0  0  0  0  0  0  0
    4.4911   10.5753   28.5298 C   0  0  0  0  0  0  0  0  0  0  0  0
    4.3375    9.8289   27.1847 C   0  0  0  0  0  0  0  0  0  0  0  0
    5.9222   10.9420   28.0749 C   0  0  0  0  0  0  0  0  0  0  0  0
   11.3186   14.2878   21.5383 C   0  0  0  0  0  0  0  0  0  0  0  0
   11.2310   14.4628   24.0406 C   0  0  0  0  0  0  0  0  0  0  0  0
   11.6247   15.7799   21.5153 C   0  0  0  0  0  0  0  0  0  0  0  0
   11.5402   15.9454   23.8774 C   0  0  0  0  0  0  0  0  0  0  0  0
    5.4064   10.7935   26.6270 C   0  0  0  0  0  0  0  0  0  0  0  0
   10.5303   13.9178   22.7952 C   0  0  0  0  0  0  0  0  0  0  0  0
    8.2556    9.8784   24.3919 N   0  0  0  0  0  0  0  0  0  0  0  0
   10.3440   12.4911   22.8849 N   0  0  0  0  0  0  0  0  0  0  0  0
    6.3755   10.0371   25.8475 N   0  0  0  0  0  0  0  0  0  0  0  0
   12.3154   16.1737   22.7008 O   0  0  0  0  0  0  0  0  0  0  0  0
    8.5026   13.7523   24.3493 H   0  0  0  0  0  0  0  0  0  0  0  0
    6.7349   12.6348   25.6690 H   0  0  0  0  0  0  0  0  0  0  0  0
    9.8853    9.8681   23.1368 H   0  0  0  0  0  0  0  0  0  0  0  0
    3.8251   11.4395   28.6348 H   0  0  0  0  0  0  0  0  0  0  0  0
    4.4206    9.9574   29.4282 H   0  0  0  0  0  0  0  0  0  0  0  0
    4.6350    8.7745   27.2348 H   0  0  0  0  0  0  0  0  0  0  0  0
    3.3493    9.8968   26.7219 H   0  0  0  0  0  0  0  0  0  0  0  0
    6.2622   11.9415   28.3583 H   0  0  0  0  0  0  0  0  0  0  0  0
    6.6786   10.2085   28.3795 H   0  0  0  0  0  0  0  0  0  0  0  0
   10.6992   14.0472   20.6688 H   0  0  0  0  0  0  0  0  0  0  0  0
   12.2373   13.7032   21.4578 H   0  0  0  0  0  0  0  0  0  0  0  0
   12.1379   13.9004   24.2664 H   0  0  0  0  0  0  0  0  0  0  0  0
   10.5501   14.3432   24.8878 H   0  0  0  0  0  0  0  0  0  0  0  0
   12.2174   16.0599   20.6362 H   0  0  0  0  0  0  0  0  0  0  0  0
   10.6898   16.3486   21.4729 H   0  0  0  0  0  0  0  0  0  0  0  0
   10.6079   16.5095   23.7748 H   0  0  0  0  0  0  0  0  0  0  0  0
   12.0719   16.3460   24.7480 H   0  0  0  0  0  0  0  0  0  0  0  0
    5.0608   11.6648   26.1451 H   0  0  0  0  0  0  0  0  0  0  0  0
    9.5221   14.3808   22.7269 H   0  0  0  0  0  0  0  0  0  0  0  0
   10.9825   11.9005   22.3707 H   0  0  0  0  0  0  0  0  0  0  0  0
    6.3488    9.0382   25.8297 H   0  0  0  0  0  0  0  0  0  0  0  0
  1  2  2  0  0  0  0
  1  4  1  0  0  0  0
  2  5  1  0  0  0  0
  3  4  2  0  0  0  0
  3 15  1  0  0  0  0
  4 16  1  0  0  0  0
  5 15  2  0  0  0  0
  5 17  1  0  0  0  0
  6  7  1  0  0  0  0
  6  8  1  0  0  0  0
  7 13  1  0  0  0  0
  8 13  1  0  0  0  0
  9 11  1  0  0  0  0
  9 14  1  0  0  0  0
 10 12  1  0  0  0  0
 10 14  1  0  0  0  0
 11 18  1  0  0  0  0
 12 18  1  0  0  0  0
 13 17  1  0  0  0  0
 14 16  1  0  0  0  0
  1 19  1  0  0  0  0
  2 20  1  0  0  0  0
  3 21  1  0  0  0  0
  6 22  1  0  0  0  0
  6 23  1  0  0  0  0
  7 24  1  0  0  0  0
  7 25  1  0  0  0  0
  8 26  1  0  0  0  0
  8 27  1  0  0  0  0
  9 28  1  0  0  0  0
  9 29  1  0  0  0  0
 10 30  1  0  0  0  0
 10 31  1  0  0  0  0
 11 32  1  0  0  0  0
 11 33  1  0  0  0  0
 12 34  1  0  0  0  0
 12 35  1  0  0  0  0
 13 36  1  0  0  0  0
 14 37  1  0  0  0  0
 16 38  1  0  0  0  0
 17 39  1  0  0  0  0
M  END
> <idnumber>
Z4391800026

> <heavy_atoms>
18

> <LogS>
-2.443

> <LogP>
2.132

> <rotating_bonds>
4

> <PSA>
46.18

> <hb_acceptors>
4

> <hb_donors>
2

> <Collection>
Advanced

> <link>
https://www.enaminestore.com/catalog/Z4391800026

> <ROCS_ShapeQuery>
_x1140_x0812_0A_x1140_0A_x1097_0A_x0365_0A_x1097_0A_x0310_0A

> <ROCS_TanimotoCombo>
0.667 

> <ROCS_ShapeTanimoto>
0.229 

> <ROCS_ColorTanimoto>
0.438 

> <ROCS_RefTversky>
0.210 

> <ROCS_RefColorTversky>
0.574 

> <ROCS_RefTverskyCombo>
0.785 

> <ROCS_FitTversky>
1.666 

> <ROCS_FitColorTversky>
0.648 

> <ROCS_FitTverskyCombo>
2.314 

> <ROCS_ColorScore>
-4.566

> <ROCS_Overlap>
2156.260

> <ROCS_Rank>
61                  

$$$$
untitled-dbase-879774_91
  -OEChem-02092421083D

 41 42  0     0  0  0  0  0  0999 V2000
    8.9669   10.4031   23.6225 C   0  0  0  0  0  0  0  0  0  0  0  0
    9.2221   11.7570   23.6858 C   0  0  0  0  0  0  0  0  0  0  0  0
    7.8016   10.8747   25.4196 C   0  0  0  0  0  0  0  0  0  0  0  0
   10.2350   12.5043   21.5087 C   0  0  0  0  0  0  0  0  0  0  0  0
   10.6787   15.0963   21.3537 C   0  0  0  0  0  0  0  0  0  0  0  0
   12.4311   13.9335   21.7647 C   0  0  0  0  0  0  0  0  0  0  0  0
   11.1132   13.6534   21.0044 C   0  0  0  0  0  0  0  0  0  0  0  0
   12.1674   15.4543   21.6064 C   0  0  0  0  0  0  0  0  0  0  0  0
    6.9287   10.7139   26.6025 C   0  0  0  0  0  0  0  0  0  0  0  0
   12.8840   16.1014   20.4277 C   0  0  0  0  0  0  0  0  0  0  0  0
   11.6290    8.8922   23.8552 C   0  0  0  0  0  0  0  0  0  0  0  0
   11.4643    8.4255   21.4018 C   0  0  0  0  0  0  0  0  0  0  0  0
    9.4825    9.4684   22.6014 C   0  0  0  0  0  0  0  0  0  0  0  0
   11.0321    9.3677   22.5282 C   0  0  0  0  0  0  0  0  0  0  0  0
    8.1529    9.8953   24.6161 N   0  0  0  0  0  0  0  0  0  0  0  0
    9.9883   12.6234   22.8705 N   0  0  0  0  0  0  0  0  0  0  0  0
    9.8394   11.6327   20.7414 O   0  0  0  0  0  0  0  0  0  0  0  0
   12.4108   16.2289   22.7999 O   0  0  0  0  0  0  0  0  0  0  0  0
    8.4136   12.4321   25.0392 S   0  0  0  0  0  0  0  0  0  0  0  0
   10.1863   15.6394   20.5410 H   0  0  0  0  0  0  0  0  0  0  0  0
   10.0487   15.1717   22.2484 H   0  0  0  0  0  0  0  0  0  0  0  0
   12.4300   13.5906   22.8065 H   0  0  0  0  0  0  0  0  0  0  0  0
   13.3342   13.5518   21.2785 H   0  0  0  0  0  0  0  0  0  0  0  0
   11.2907   13.5377   19.9261 H   0  0  0  0  0  0  0  0  0  0  0  0
    7.5217   10.4878   27.5025 H   0  0  0  0  0  0  0  0  0  0  0  0
    6.3404   11.6237   26.8058 H   0  0  0  0  0  0  0  0  0  0  0  0
    6.1979    9.8998   26.4664 H   0  0  0  0  0  0  0  0  0  0  0  0
   13.9188   16.3173   20.6935 H   0  0  0  0  0  0  0  0  0  0  0  0
   12.3871   17.0325   20.1551 H   0  0  0  0  0  0  0  0  0  0  0  0
   12.8718   15.4293   19.5696 H   0  0  0  0  0  0  0  0  0  0  0  0
   11.2531    7.9000   24.1272 H   0  0  0  0  0  0  0  0  0  0  0  0
   11.3893    9.5826   24.6697 H   0  0  0  0  0  0  0  0  0  0  0  0
   12.7208    8.8326   23.7895 H   0  0  0  0  0  0  0  0  0  0  0  0
   11.0805    7.4139   21.5717 H   0  0  0  0  0  0  0  0  0  0  0  0
   11.0930    8.7702   20.4306 H   0  0  0  0  0  0  0  0  0  0  0  0
   12.5561    8.3618   21.3450 H   0  0  0  0  0  0  0  0  0  0  0  0
    9.0726    8.4473   22.7427 H   0  0  0  0  0  0  0  0  0  0  0  0
    9.1066    9.7738   21.6043 H   0  0  0  0  0  0  0  0  0  0  0  0
   11.4422   10.3615   22.3074 H   0  0  0  0  0  0  0  0  0  0  0  0
   10.3997   13.4220   23.3492 H   0  0  0  0  0  0  0  0  0  0  0  0
   13.3645   16.3727   22.8241 H   0  0  0  0  0  0  0  0  0  0  0  0
  1  2  2  0  0  0  0
  1 13  1  0  0  0  0
  1 15  1  0  0  0  0
  2 16  1  0  0  0  0
  2 19  1  0  0  0  0
  3  9  1  0  0  0  0
  3 15  2  0  0  0  0
  3 19  1  0  0  0  0
  4  7  1  0  0  0  0
  4 16  1  0  0  0  0
  4 17  2  0  0  0  0
  5  7  1  0  0  0  0
  5  8  1  0  0  0  0
  6  7  1  0  0  0  0
  6  8  1  0  0  0  0
  8 10  1  0  0  0  0
  8 18  1  0  0  0  0
 11 14  1  0  0  0  0
 12 14  1  0  0  0  0
 13 14  1  0  0  0  0
  5 20  1  0  0  0  0
  5 21  1  0  0  0  0
  6 22  1  0  0  0  0
  6 23  1  0  0  0  0
  7 24  1  0  0  0  0
  9 25  1  0  0  0  0
  9 26  1  0  0  0  0
  9 27  1  0  0  0  0
 10 28  1  0  0  0  0
 10 29  1  0  0  0  0
 10 30  1  0  0  0  0
 11 31  1  0  0  0  0
 11 32  1  0  0  0  0
 11 33  1  0  0  0  0
 12 34  1  0  0  0  0
 12 35  1  0  0  0  0
 12 36  1  0  0  0  0
 13 37  1  0  0  0  0
 13 38  1  0  0  0  0
 14 39  1  0  0  0  0
 16 40  1  0  0  0  0
 18 41  1  0  0  0  0
M  END
> <idnumber>
Z2270480835

> <heavy_atoms>
19

> <LogS>
-2.848

> <LogP>
2.587

> <rotating_bonds>
4

> <PSA>
62.22

> <hb_acceptors>
3

> <hb_donors>
2

> <Collection>
Legacy

> <link>
https://www.enaminestore.com/catalog/Z2270480835

> <ROCS_ShapeQuery>
_x1140_x0812_0A_x1140_0A_x1097_0A_x0365_0A_x1097_0A_x0310_0A

> <ROCS_TanimotoCombo>
0.666 

> <ROCS_ShapeTanimoto>
0.231 

> <ROCS_ColorTanimoto>
0.434 

> <ROCS_RefTversky>
0.212 

> <ROCS_RefColorTversky>
0.606 

> <ROCS_RefTverskyCombo>
0.817 

> <ROCS_FitTversky>
1.676 

> <ROCS_FitColorTversky>
0.606 

> <ROCS_FitTverskyCombo>
2.282 

> <ROCS_ColorScore>
-4.846

> <ROCS_Overlap>
2172.194

> <ROCS_Rank>
62                  

$$$$
untitled-dbase-75915_18
  -OEChem-02092421083D

 31 32  0     0  0  0  0  0  0999 V2000
    8.4726   12.4262   24.2080 C   0  0  0  0  0  0  0  0  0  0  0  0
    7.4836   11.9709   25.0729 C   0  0  0  0  0  0  0  0  0  0  0  0
    8.9879   10.1630   23.6892 C   0  0  0  0  0  0  0  0  0  0  0  0
    9.2435   11.5115   23.4992 C   0  0  0  0  0  0  0  0  0  0  0  0
    7.3066   10.6019   25.1922 C   0  0  0  0  0  0  0  0  0  0  0  0
   10.2987   11.9634   22.5730 C   0  0  0  0  0  0  0  0  0  0  0  0
    4.8166   10.6265   28.1114 C   0  0  0  0  0  0  0  0  0  0  0  0
    5.9450   11.6166   28.1422 C   0  0  0  0  0  0  0  0  0  0  0  0
    5.4797   11.0492   26.8316 C   0  0  0  0  0  0  0  0  0  0  0  0
   12.4190   13.2395   22.2810 C   0  0  0  0  0  0  0  0  0  0  0  0
   11.4326   14.4912   24.5543 C   0  0  0  0  0  0  0  0  0  0  0  0
    8.0359    9.6829   24.5203 N   0  0  0  0  0  0  0  0  0  0  0  0
    6.2959   10.1538   26.0785 N   0  0  0  0  0  0  0  0  0  0  0  0
   11.3283   12.7190   23.0838 N   0  0  0  0  0  0  0  0  0  0  0  0
   10.1806   11.6430   21.3915 O   0  0  0  0  0  0  0  0  0  0  0  0
   11.4384   13.0710   24.4413 O   0  0  0  0  0  0  0  0  0  0  0  0
    8.6350   13.4946   24.0952 H   0  0  0  0  0  0  0  0  0  0  0  0
    6.8770   12.6777   25.6298 H   0  0  0  0  0  0  0  0  0  0  0  0
    9.5565    9.4010   23.1645 H   0  0  0  0  0  0  0  0  0  0  0  0
    5.0113    9.6302   28.4886 H   0  0  0  0  0  0  0  0  0  0  0  0
    3.8170   10.9945   28.3072 H   0  0  0  0  0  0  0  0  0  0  0  0
    5.7039   12.6498   28.3590 H   0  0  0  0  0  0  0  0  0  0  0  0
    6.8953   11.2832   28.5408 H   0  0  0  0  0  0  0  0  0  0  0  0
    4.9136   11.7109   26.1853 H   0  0  0  0  0  0  0  0  0  0  0  0
   12.1504   14.2351   21.8979 H   0  0  0  0  0  0  0  0  0  0  0  0
   13.3251   13.3172   22.8998 H   0  0  0  0  0  0  0  0  0  0  0  0
   12.6089   12.5608   21.4364 H   0  0  0  0  0  0  0  0  0  0  0  0
   11.5178   14.7741   25.6063 H   0  0  0  0  0  0  0  0  0  0  0  0
   10.5050   14.8873   24.1334 H   0  0  0  0  0  0  0  0  0  0  0  0
   12.2834   14.8953   24.0007 H   0  0  0  0  0  0  0  0  0  0  0  0
    6.1761    9.1646   26.1576 H   0  0  0  0  0  0  0  0  0  0  0  0
  1  2  2  0  0  0  0
  1  4  1  0  0  0  0
  2  5  1  0  0  0  0
  3  4  2  0  0  0  0
  3 12  1  0  0  0  0
  4  6  1  0  0  0  0
  5 12  2  0  0  0  0
  5 13  1  0  0  0  0
  6 14  1  0  0  0  0
  6 15  2  0  0  0  0
  7  8  1  0  0  0  0
  7  9  1  0  0  0  0
  8  9  1  0  0  0  0
  9 13  1  0  0  0  0
 10 14  1  0  0  0  0
 11 16  1  0  0  0  0
 14 16  1  0  0  0  0
  1 17  1  0  0  0  0
  2 18  1  0  0  0  0
  3 19  1  0  0  0  0
  7 20  1  0  0  0  0
  7 21  1  0  0  0  0
  8 22  1  0  0  0  0
  8 23  1  0  0  0  0
  9 24  1  0  0  0  0
 10 25  1  0  0  0  0
 10 26  1  0  0  0  0
 10 27  1  0  0  0  0
 11 28  1  0  0  0  0
 11 29  1  0  0  0  0
 11 30  1  0  0  0  0
 13 31  1  0  0  0  0
M  END
> <idnumber>
Z827387088

> <heavy_atoms>
16

> <LogS>
-1.76

> <LogP>
1.207

> <rotating_bonds>
4

> <PSA>
54.46

> <hb_acceptors>
4

> <hb_donors>
1

> <Collection>
Legacy

> <link>
https://www.enaminestore.com/catalog/Z827387088

> <ROCS_ShapeQuery>
_x1140_x0812_0A_x1140_0A_x1097_0A_x0365_0A_x1097_0A_x0310_0A

> <ROCS_TanimotoCombo>
0.665 

> <ROCS_ShapeTanimoto>
0.243 

> <ROCS_ColorTanimoto>
0.421 

> <ROCS_RefTversky>
0.219 

> <ROCS_RefColorTversky>
0.456 

> <ROCS_RefTverskyCombo>
0.675 

> <ROCS_FitTversky>
1.859 

> <ROCS_FitColorTversky>
0.847 

> <ROCS_FitTverskyCombo>
2.706 

> <ROCS_ColorScore>
-3.558

> <ROCS_Overlap>
2244.268

> <ROCS_Rank>
63                  

$$$$
untitled-dbase-658434_110
  -OEChem-02092421083D

 31 32  0     0  0  0  0  0  0999 V2000
    7.7472   12.2326   25.2139 C   0  0  0  0  0  0  0  0  0  0  0  0
    8.6576   12.6279   24.2401 C   0  0  0  0  0  0  0  0  0  0  0  0
    7.5908   10.8750   25.4425 C   0  0  0  0  0  0  0  0  0  0  0  0
   10.2758   15.6243   21.5780 C   0  0  0  0  0  0  0  0  0  0  0  0
    9.3735   11.6672   23.5346 C   0  0  0  0  0  0  0  0  0  0  0  0
   11.4767   15.2255   22.1266 C   0  0  0  0  0  0  0  0  0  0  0  0
    9.1444   10.3349   23.8385 C   0  0  0  0  0  0  0  0  0  0  0  0
   11.4736   17.3069   22.8177 C   0  0  0  0  0  0  0  0  0  0  0  0
   10.3381   12.0780   22.5020 C   0  0  0  0  0  0  0  0  0  0  0  0
   11.8950   18.5633   23.4746 C   0  0  0  0  0  0  0  0  0  0  0  0
   11.9341   12.7940   24.2381 C   0  0  0  0  0  0  0  0  0  0  0  0
   12.0805   13.8555   22.0131 C   0  0  0  0  0  0  0  0  0  0  0  0
    8.2683    9.9125   24.7775 N   0  0  0  0  0  0  0  0  0  0  0  0
   12.1651   16.1891   22.8375 N   0  0  0  0  0  0  0  0  0  0  0  0
   11.4120   12.8895   22.8821 N   0  0  0  0  0  0  0  0  0  0  0  0
   10.1296   11.6580   21.3644 O   0  0  0  0  0  0  0  0  0  0  0  0
    9.8294    9.3560   23.1662 O   0  0  0  0  0  0  0  0  0  0  0  0
    9.9859   17.2702   21.9631 S   0  0  0  0  0  0  0  0  0  0  0  0
    7.1787   12.9635   25.7775 H   0  0  0  0  0  0  0  0  0  0  0  0
    8.8009   13.6863   24.0392 H   0  0  0  0  0  0  0  0  0  0  0  0
    6.8939   10.5142   26.1918 H   0  0  0  0  0  0  0  0  0  0  0  0
    9.5753   15.0492   20.9891 H   0  0  0  0  0  0  0  0  0  0  0  0
   12.4942   19.1842   22.7905 H   0  0  0  0  0  0  0  0  0  0  0  0
   11.0316   19.1630   23.8062 H   0  0  0  0  0  0  0  0  0  0  0  0
   12.5007   18.3725   24.3757 H   0  0  0  0  0  0  0  0  0  0  0  0
   12.7298   12.0353   24.2726 H   0  0  0  0  0  0  0  0  0  0  0  0
   12.3435   13.7685   24.5427 H   0  0  0  0  0  0  0  0  0  0  0  0
   11.1234   12.5064   24.9236 H   0  0  0  0  0  0  0  0  0  0  0  0
   12.0116   13.4873   20.9837 H   0  0  0  0  0  0  0  0  0  0  0  0
   13.1417   13.8703   22.2829 H   0  0  0  0  0  0  0  0  0  0  0  0
    9.5590    8.4862   23.4914 H   0  0  0  0  0  0  0  0  0  0  0  0
  1  2  2  0  0  0  0
  1  3  1  0  0  0  0
  2  5  1  0  0  0  0
  3 13  2  0  0  0  0
  4  6  2  0  0  0  0
  4 18  1  0  0  0  0
  5  7  2  0  0  0  0
  5  9  1  0  0  0  0
  6 12  1  0  0  0  0
  6 14  1  0  0  0  0
  7 13  1  0  0  0  0
  7 17  1  0  0  0  0
  8 10  1  0  0  0  0
  8 14  2  0  0  0  0
  8 18  1  0  0  0  0
  9 15  1  0  0  0  0
  9 16  2  0  0  0  0
 11 15  1  0  0  0  0
 12 15  1  0  0  0  0
  1 19  1  0  0  0  0
  2 20  1  0  0  0  0
  3 21  1  0  0  0  0
  4 22  1  0  0  0  0
 10 23  1  0  0  0  0
 10 24  1  0  0  0  0
 10 25  1  0  0  0  0
 11 26  1  0  0  0  0
 11 27  1  0  0  0  0
 11 28  1  0  0  0  0
 12 29  1  0  0  0  0
 12 30  1  0  0  0  0
 17 31  1  0  0  0  0
M  END
> <idnumber>
Z901492242

> <heavy_atoms>
18

> <LogS>
-1.448

> <LogP>
0.906

> <rotating_bonds>
3

> <PSA>
66.32

> <hb_acceptors>
4

> <hb_donors>
1

> <Collection>
HTS

> <link>
https://www.enaminestore.com/catalog/Z901492242

> <ROCS_ShapeQuery>
_x1140_x0812_0A_x1140_0A_x1097_0A_x0365_0A_x1097_0A_x0310_0A

> <ROCS_TanimotoCombo>
0.665 

> <ROCS_ShapeTanimoto>
0.236 

> <ROCS_ColorTanimoto>
0.429 

> <ROCS_RefTversky>
0.215 

> <ROCS_RefColorTversky>
0.567 

> <ROCS_RefTverskyCombo>
0.782 

> <ROCS_FitTversky>
1.706 

> <ROCS_FitColorTversky>
0.638 

> <ROCS_FitTverskyCombo>
2.344 

> <ROCS_ColorScore>
-4.506

> <ROCS_Overlap>
2205.321

> <ROCS_Rank>
64                  

$$$$
untitled-dbase-147762_160
  -OEChem-02092421083D

 23 23  0     0  0  0  0  0  0999 V2000
   11.6083   16.1431   22.3493 C   0  0  0  0  0  0  0  0  0  0  0  0
    7.7776   11.7428   25.7125 C   0  0  0  0  0  0  0  0  0  0  0  0
    8.6643   12.4236   24.8857 C   0  0  0  0  0  0  0  0  0  0  0  0
    7.5542   10.3994   25.4574 C   0  0  0  0  0  0  0  0  0  0  0  0
    9.0006   10.4060   23.6724 C   0  0  0  0  0  0  0  0  0  0  0  0
    9.2917   11.7497   23.8438 C   0  0  0  0  0  0  0  0  0  0  0  0
   10.4599   12.1366   21.6491 C   0  0  0  0  0  0  0  0  0  0  0  0
   10.4006   15.4332   21.9233 C   0  0  0  0  0  0  0  0  0  0  0  0
   11.4980   13.0715   21.0665 C   0  0  0  0  0  0  0  0  0  0  0  0
   12.5628   16.7074   22.6919 N   0  0  0  0  0  0  0  0  0  0  0  0
    8.1449    9.7110   24.4550 N   0  0  0  0  0  0  0  0  0  0  0  0
   10.1843   12.4051   22.9992 N   0  0  0  0  0  0  0  0  0  0  0  0
    9.9649   11.2479   20.9604 O   0  0  0  0  0  0  0  0  0  0  0  0
   10.6593   14.5217   20.3831 S   0  0  0  0  0  0  0  0  0  0  0  0
    7.2773   12.2480   26.5308 H   0  0  0  0  0  0  0  0  0  0  0  0
    8.8591   13.4782   25.0621 H   0  0  0  0  0  0  0  0  0  0  0  0
    6.8708    9.8239   26.0730 H   0  0  0  0  0  0  0  0  0  0  0  0
    9.4590    9.8261   22.8768 H   0  0  0  0  0  0  0  0  0  0  0  0
    9.5784   16.1390   21.7722 H   0  0  0  0  0  0  0  0  0  0  0  0
   10.0895   14.7218   22.6943 H   0  0  0  0  0  0  0  0  0  0  0  0
   12.1823   13.3801   21.8628 H   0  0  0  0  0  0  0  0  0  0  0  0
   12.0880   12.5863   20.2838 H   0  0  0  0  0  0  0  0  0  0  0  0
   10.7078   13.1842   23.4174 H   0  0  0  0  0  0  0  0  0  0  0  0
  1  8  1  0  0  0  0
  1 10  3  0  0  0  0
  2  3  2  0  0  0  0
  2  4  1  0  0  0  0
  3  6  1  0  0  0  0
  4 11  2  0  0  0  0
  5  6  2  0  0  0  0
  5 11  1  0  0  0  0
  6 12  1  0  0  0  0
  7  9  1  0  0  0  0
  7 12  1  0  0  0  0
  7 13  2  0  0  0  0
  8 14  1  0  0  0  0
  9 14  1  0  0  0  0
  2 15  1  0  0  0  0
  3 16  1  0  0  0  0
  4 17  1  0  0  0  0
  5 18  1  0  0  0  0
  8 19  1  0  0  0  0
  8 20  1  0  0  0  0
  9 21  1  0  0  0  0
  9 22  1  0  0  0  0
 12 23  1  0  0  0  0
M  END
> <idnumber>
Z392517650

> <heavy_atoms>
14

> <LogS>
-1.64

> <LogP>
-0.111

> <rotating_bonds>
4

> <PSA>
65.78

> <hb_acceptors>
3

> <hb_donors>
1

> <Collection>
Legacy

> <link>
https://www.enaminestore.com/catalog/Z392517650

> <ROCS_ShapeQuery>
_x1140_x0812_0A_x1140_0A_x1097_0A_x0365_0A_x1097_0A_x0310_0A

> <ROCS_TanimotoCombo>
0.665 

> <ROCS_ShapeTanimoto>
0.194 

> <ROCS_ColorTanimoto>
0.471 

> <ROCS_RefTversky>
0.180 

> <ROCS_RefColorTversky>
0.530 

> <ROCS_RefTverskyCombo>
0.710 

> <ROCS_FitTversky>
1.689 

> <ROCS_FitColorTversky>
0.808 

> <ROCS_FitTverskyCombo>
2.497 

> <ROCS_ColorScore>
-4.162

> <ROCS_Overlap>
1840.891

> <ROCS_Rank>
65                  

$$$$
untitled-dbase-145070_110
  -OEChem-02092421083D

 35 36  0     0  0  0  0  0  0999 V2000
    8.0972   12.5145   23.7791 C   0  0  0  0  0  0  0  0  0  0  0  0
    7.1248   11.9382   24.5887 C   0  0  0  0  0  0  0  0  0  0  0  0
    9.3228   10.4794   23.8915 C   0  0  0  0  0  0  0  0  0  0  0  0
   12.2357   14.3542   21.8089 C   0  0  0  0  0  0  0  0  0  0  0  0
    9.2203   11.7779   23.4192 C   0  0  0  0  0  0  0  0  0  0  0  0
   12.6612   15.0676   22.9428 C   0  0  0  0  0  0  0  0  0  0  0  0
   11.7299   15.3242   20.9847 C   0  0  0  0  0  0  0  0  0  0  0  0
    7.3210   10.6324   25.0085 C   0  0  0  0  0  0  0  0  0  0  0  0
   11.5873   12.0390   22.5982 C   0  0  0  0  0  0  0  0  0  0  0  0
   13.2909   14.5390   24.1646 C   0  0  0  0  0  0  0  0  0  0  0  0
   11.1196   15.3107   19.6488 C   0  0  0  0  0  0  0  0  0  0  0  0
    5.5253   10.8343   26.7290 C   0  0  0  0  0  0  0  0  0  0  0  0
   12.3145   12.8717   21.5541 C   0  0  0  0  0  0  0  0  0  0  0  0
    8.3989    9.8855   24.6797 N   0  0  0  0  0  0  0  0  0  0  0  0
   12.4365   16.3797   22.8304 N   0  0  0  0  0  0  0  0  0  0  0  0
   10.2112   12.3292   22.6104 N   0  0  0  0  0  0  0  0  0  0  0  0
    6.3219   10.0598   25.8342 N   0  0  0  0  0  0  0  0  0  0  0  0
   12.1701   11.2321   23.3154 O   0  0  0  0  0  0  0  0  0  0  0  0
   11.8441   16.5374   21.5831 O   0  0  0  0  0  0  0  0  0  0  0  0
    7.9704   13.5377   23.4355 H   0  0  0  0  0  0  0  0  0  0  0  0
    6.2441   12.5053   24.8732 H   0  0  0  0  0  0  0  0  0  0  0  0
   10.1765    9.8549   23.6459 H   0  0  0  0  0  0  0  0  0  0  0  0
   14.3903   14.5177   24.0717 H   0  0  0  0  0  0  0  0  0  0  0  0
   13.0444   15.1433   25.0559 H   0  0  0  0  0  0  0  0  0  0  0  0
   12.9568   13.5114   24.3950 H   0  0  0  0  0  0  0  0  0  0  0  0
   10.0234   15.1844   19.7061 H   0  0  0  0  0  0  0  0  0  0  0  0
   11.3143   16.2437   19.0874 H   0  0  0  0  0  0  0  0  0  0  0  0
   11.5122   14.4936   19.0147 H   0  0  0  0  0  0  0  0  0  0  0  0
    5.8165   11.8927   26.6575 H   0  0  0  0  0  0  0  0  0  0  0  0
    4.4638   10.7273   26.4611 H   0  0  0  0  0  0  0  0  0  0  0  0
    5.6811   10.4801   27.7587 H   0  0  0  0  0  0  0  0  0  0  0  0
   11.8920   12.6447   20.5670 H   0  0  0  0  0  0  0  0  0  0  0  0
   13.3662   12.5599   21.5240 H   0  0  0  0  0  0  0  0  0  0  0  0
    9.8967   13.0385   21.9366 H   0  0  0  0  0  0  0  0  0  0  0  0
    6.1958    9.0707   25.7641 H   0  0  0  0  0  0  0  0  0  0  0  0
  1  2  2  0  0  0  0
  1  5  1  0  0  0  0
  2  8  1  0  0  0  0
  3  5  2  0  0  0  0
  3 14  1  0  0  0  0
  4  6  1  0  0  0  0
  4  7  2  0  0  0  0
  4 13  1  0  0  0  0
  5 16  1  0  0  0  0
  6 10  1  0  0  0  0
  6 15  2  0  0  0  0
  7 11  1  0  0  0  0
  7 19  1  0  0  0  0
  8 14  2  0  0  0  0
  8 17  1  0  0  0  0
  9 13  1  0  0  0  0
  9 16  1  0  0  0  0
  9 18  2  0  0  0  0
 12 17  1  0  0  0  0
 15 19  1  0  0  0  0
  1 20  1  0  0  0  0
  2 21  1  0  0  0  0
  3 22  1  0  0  0  0
 10 23  1  0  0  0  0
 10 24  1  0  0  0  0
 10 25  1  0  0  0  0
 11 26  1  0  0  0  0
 11 27  1  0  0  0  0
 11 28  1  0  0  0  0
 12 29  1  0  0  0  0
 12 30  1  0  0  0  0
 12 31  1  0  0  0  0
 13 32  1  0  0  0  0
 13 33  1  0  0  0  0
 16 34  1  0  0  0  0
 17 35  1  0  0  0  0
M  END
> <idnumber>
Z2394925055

> <heavy_atoms>
19

> <LogS>
-1.039

> <LogP>
0.918

> <rotating_bonds>
4

> <PSA>
80.05

> <hb_acceptors>
4

> <hb_donors>
2

> <Collection>
HTS

> <link>
https://www.enaminestore.com/catalog/Z2394925055

> <ROCS_ShapeQuery>
_x1140_x0812_0A_x1140_0A_x1097_0A_x0365_0A_x1097_0A_x0310_0A

> <ROCS_TanimotoCombo>
0.665 

> <ROCS_ShapeTanimoto>
0.232 

> <ROCS_ColorTanimoto>
0.432 

> <ROCS_RefTversky>
0.213 

> <ROCS_RefColorTversky>
0.569 

> <ROCS_RefTverskyCombo>
0.783 

> <ROCS_FitTversky>
1.627 

> <ROCS_FitColorTversky>
0.642 

> <ROCS_FitTverskyCombo>
2.269 

> <ROCS_ColorScore>
-4.527

> <ROCS_Overlap>
2189.118

> <ROCS_Rank>
66                  

$$$$
untitled-dbase-886022_13
  -OEChem-02092421083D

 32 34  0     0  0  0  0  0  0999 V2000
    8.4018   12.5613   24.7532 C   0  0  0  0  0  0  0  0  0  0  0  0
    9.2294   11.7963   23.9332 C   0  0  0  0  0  0  0  0  0  0  0  0
    6.3689   12.2785   26.3759 C   0  0  0  0  0  0  0  0  0  0  0  0
    5.6832   11.1378   26.7338 C   0  0  0  0  0  0  0  0  0  0  0  0
    7.3902   11.8975   25.4659 C   0  0  0  0  0  0  0  0  0  0  0  0
    7.2886   10.5193   25.3000 C   0  0  0  0  0  0  0  0  0  0  0  0
    9.0159   10.4264   23.8608 C   0  0  0  0  0  0  0  0  0  0  0  0
   10.5121   10.1417   21.8552 C   0  0  0  0  0  0  0  0  0  0  0  0
   10.2112    6.8396   22.0255 C   0  0  0  0  0  0  0  0  0  0  0  0
   11.2371    6.4530   20.9988 C   0  0  0  0  0  0  0  0  0  0  0  0
   10.5507    7.7957   20.9060 C   0  0  0  0  0  0  0  0  0  0  0  0
    9.5342    7.9942   19.8156 C   0  0  0  0  0  0  0  0  0  0  0  0
   11.3600    9.0339   21.2480 C   0  0  0  0  0  0  0  0  0  0  0  0
    8.0596    9.7350   24.5232 N   0  0  0  0  0  0  0  0  0  0  0  0
    6.2496   10.0770   26.0758 N   0  0  0  0  0  0  0  0  0  0  0  0
    9.8751    9.7024   23.0219 N   0  0  0  0  0  0  0  0  0  0  0  0
   10.4345   11.2548   21.3458 O   0  0  0  0  0  0  0  0  0  0  0  0
    8.5404   13.6345   24.8339 H   0  0  0  0  0  0  0  0  0  0  0  0
   10.0217   12.2787   23.3684 H   0  0  0  0  0  0  0  0  0  0  0  0
    6.1548   13.2765   26.7330 H   0  0  0  0  0  0  0  0  0  0  0  0
    4.8437   10.9869   27.3977 H   0  0  0  0  0  0  0  0  0  0  0  0
    9.2563    6.3281   21.9996 H   0  0  0  0  0  0  0  0  0  0  0  0
   10.5612    7.0660   23.0258 H   0  0  0  0  0  0  0  0  0  0  0  0
   12.2741    6.4204   21.3116 H   0  0  0  0  0  0  0  0  0  0  0  0
   10.9693    5.6825   20.2855 H   0  0  0  0  0  0  0  0  0  0  0  0
    9.8970    8.7081   19.0660 H   0  0  0  0  0  0  0  0  0  0  0  0
    8.5924    8.3817   20.2230 H   0  0  0  0  0  0  0  0  0  0  0  0
    9.3174    7.0483   19.3042 H   0  0  0  0  0  0  0  0  0  0  0  0
   11.8382    9.4200   20.3405 H   0  0  0  0  0  0  0  0  0  0  0  0
   12.1490    8.7694   21.9614 H   0  0  0  0  0  0  0  0  0  0  0  0
    5.9476    9.1155   26.1506 H   0  0  0  0  0  0  0  0  0  0  0  0
   10.0590    8.7339   23.2973 H   0  0  0  0  0  0  0  0  0  0  0  0
  1  2  2  0  0  0  0
  1  5  1  0  0  0  0
  2  7  1  0  0  0  0
  3  4  2  0  0  0  0
  3  5  1  0  0  0  0
  4 15  1  0  0  0  0
  5  6  2  0  0  0  0
  6 14  1  0  0  0  0
  6 15  1  0  0  0  0
  7 14  2  0  0  0  0
  7 16  1  0  0  0  0
  8 13  1  0  0  0  0
  8 16  1  0  0  0  0
  8 17  2  0  0  0  0
  9 10  1  0  0  0  0
  9 11  1  0  0  0  0
 10 11  1  0  0  0  0
 11 12  1  0  0  0  0
 11 13  1  0  0  0  0
  1 18  1  0  0  0  0
  2 19  1  0  0  0  0
  3 20  1  0  0  0  0
  4 21  1  0  0  0  0
  9 22  1  0  0  0  0
  9 23  1  0  0  0  0
 10 24  1  0  0  0  0
 10 25  1  0  0  0  0
 12 26  1  0  0  0  0
 12 27  1  0  0  0  0
 12 28  1  0  0  0  0
 13 29  1  0  0  0  0
 13 30  1  0  0  0  0
 15 31  1  0  0  0  0
 16 32  1  0  0  0  0
M  END
> <idnumber>
Z2299061732

> <heavy_atoms>
17

> <LogS>
-3.471

> <LogP>
2.514

> <rotating_bonds>
3

> <PSA>
57.78

> <hb_acceptors>
2

> <hb_donors>
2

> <Collection>
HTS

> <link>
https://www.enaminestore.com/catalog/Z2299061732

> <ROCS_ShapeQuery>
_x1140_x0812_0A_x1140_0A_x1097_0A_x0365_0A_x1097_0A_x0310_0A

> <ROCS_TanimotoCombo>
0.664 

> <ROCS_ShapeTanimoto>
0.228 

> <ROCS_ColorTanimoto>
0.437 

> <ROCS_RefTversky>
0.209 

> <ROCS_RefColorTversky>
0.539 

> <ROCS_RefTverskyCombo>
0.748 

> <ROCS_FitTversky>
1.679 

> <ROCS_FitColorTversky>
0.696 

> <ROCS_FitTverskyCombo>
2.375 

> <ROCS_ColorScore>
-4.261

> <ROCS_Overlap>
2140.250

> <ROCS_Rank>
67                  

$$$$
untitled-dbase-74295_10
  -OEChem-02092421083D

 22 22  0     0  0  0  0  0  0999 V2000
   11.9231   15.2959   22.2906 C   0  0  0  0  0  0  0  0  0  0  0  0
    8.5109   12.4420   24.4848 C   0  0  0  0  0  0  0  0  0  0  0  0
    7.7337   11.8920   25.4981 C   0  0  0  0  0  0  0  0  0  0  0  0
    8.8840   10.2463   23.6504 C   0  0  0  0  0  0  0  0  0  0  0  0
    9.1005   11.6104   23.5393 C   0  0  0  0  0  0  0  0  0  0  0  0
    7.5782   10.5154   25.5214 C   0  0  0  0  0  0  0  0  0  0  0  0
    9.9170   12.1536   22.4684 C   0  0  0  0  0  0  0  0  0  0  0  0
   11.3892   14.0507   21.7419 C   0  0  0  0  0  0  0  0  0  0  0  0
    6.7520    9.8909   26.5960 C   0  0  0  0  0  0  0  0  0  0  0  0
   12.3490   16.2849   22.7232 N   0  0  0  0  0  0  0  0  0  0  0  0
    8.1353    9.6754   24.6205 N   0  0  0  0  0  0  0  0  0  0  0  0
   10.5624   13.3723   22.7141 N   0  0  0  0  0  0  0  0  0  0  0  0
   10.0107   11.5585   21.3789 O   0  0  0  0  0  0  0  0  0  0  0  0
    6.2212   10.7942   27.4718 F   0  0  0  0  0  0  0  0  0  0  0  0
    5.6844    9.1836   26.1220 F   0  0  0  0  0  0  0  0  0  0  0  0
    7.4635    9.0129   27.3607 F   0  0  0  0  0  0  0  0  0  0  0  0
    8.6505   13.5188   24.4407 H   0  0  0  0  0  0  0  0  0  0  0  0
    7.2671   12.5292   26.2417 H   0  0  0  0  0  0  0  0  0  0  0  0
    9.3184    9.5465   22.9426 H   0  0  0  0  0  0  0  0  0  0  0  0
   10.7726   14.2414   20.8589 H   0  0  0  0  0  0  0  0  0  0  0  0
   12.1949   13.3674   21.4589 H   0  0  0  0  0  0  0  0  0  0  0  0
   10.4026   13.8478   23.5962 H   0  0  0  0  0  0  0  0  0  0  0  0
  1  8  1  0  0  0  0
  1 10  3  0  0  0  0
  2  3  2  0  0  0  0
  2  5  1  0  0  0  0
  3  6  1  0  0  0  0
  4  5  2  0  0  0  0
  4 11  1  0  0  0  0
  5  7  1  0  0  0  0
  6  9  1  0  0  0  0
  6 11  2  0  0  0  0
  7 12  1  0  0  0  0
  7 13  2  0  0  0  0
  8 12  1  0  0  0  0
  9 14  1  0  0  0  0
  9 15  1  0  0  0  0
  9 16  1  0  0  0  0
  2 17  1  0  0  0  0
  3 18  1  0  0  0  0
  4 19  1  0  0  0  0
  8 20  1  0  0  0  0
  8 21  1  0  0  0  0
 12 22  1  0  0  0  0
M  END
> <idnumber>
Z981021260

> <heavy_atoms>
16

> <LogS>
-2.189

> <LogP>
0.465

> <rotating_bonds>
3

> <PSA>
65.78

> <hb_acceptors>
3

> <hb_donors>
1

> <Collection>
Functional

> <link>
https://www.enaminestore.com/catalog/Z981021260

> <ROCS_ShapeQuery>
_x1140_x0812_0A_x1140_0A_x1097_0A_x0365_0A_x1097_0A_x0310_0A

> <ROCS_TanimotoCombo>
0.664 

> <ROCS_ShapeTanimoto>
0.224 

> <ROCS_ColorTanimoto>
0.440 

> <ROCS_RefTversky>
0.205 

> <ROCS_RefColorTversky>
0.506 

> <ROCS_RefTverskyCombo>
0.711 

> <ROCS_FitTversky>
1.729 

> <ROCS_FitColorTversky>
0.772 

> <ROCS_FitTverskyCombo>
2.500 

> <ROCS_ColorScore>
-3.974

> <ROCS_Overlap>
2098.826

> <ROCS_Rank>
68                  

$$$$
untitled-dbase-1133521_113
  -OEChem-02092421083D

 39 42  0     1  0  0  0  0  0999 V2000
   10.9350   17.7473   21.8128 C   0  0  0  0  0  0  0  0  0  0  0  0
   10.5744   16.4792   21.2982 C   0  0  0  0  0  0  0  0  0  0  0  0
    8.3227   12.4942   24.2343 C   0  0  0  0  0  0  0  0  0  0  0  0
    6.5233   12.4235   26.1325 C   0  0  0  0  0  0  0  0  0  0  0  0
    8.8594   10.2614   23.5573 C   0  0  0  0  0  0  0  0  0  0  0  0
   11.9378   17.5179   22.7260 C   0  0  0  0  0  0  0  0  0  0  0  0
    7.4257   11.9280   25.1544 C   0  0  0  0  0  0  0  0  0  0  0  0
    9.0525   11.6295   23.4205 C   0  0  0  0  0  0  0  0  0  0  0  0
    5.9131   11.3384   26.7239 C   0  0  0  0  0  0  0  0  0  0  0  0
   11.3826   15.5652   21.9333 C   0  0  0  0  0  0  0  0  0  0  0  0
    7.3315   10.5397   25.1858 C   0  0  0  0  0  0  0  0  0  0  0  0
    9.9971   12.1520   22.4479 C   0  0  0  0  0  0  0  0  0  0  0  0
    3.8671   12.5265   27.8527 C   0  0  0  0  0  0  0  0  0  0  0  0
    4.9530   12.4770   28.8816 C   0  0  0  0  0  0  0  0  0  0  0  0
    4.8651   11.3850   27.8332 C   0  0  0  0  0  0  0  0  0  0  0  0
   12.9296   13.5736   22.1310 C   0  0  0  0  0  0  0  0  0  0  0  0
   11.5100   14.0596   21.8461 C   0  0  1  0  0  0  0  0  0  0  0  0
    8.0112    9.6613   24.4245 N   0  0  0  0  0  0  0  0  0  0  0  0
    6.4110   10.2012   26.1424 N   0  0  0  0  0  0  0  0  0  0  0  0
   10.5727   13.3981   22.7251 N   0  0  0  0  0  0  0  0  0  0  0  0
   10.2542   11.5148   21.4103 O   0  0  0  0  0  0  0  0  0  0  0  0
   12.2166   16.1903   22.8053 O   0  0  0  0  0  0  0  0  0  0  0  0
   10.5163   18.7083   21.5514 H   0  0  0  0  0  0  0  0  0  0  0  0
    9.8186   16.2619   20.5569 H   0  0  0  0  0  0  0  0  0  0  0  0
    8.4412   13.5711   24.1620 H   0  0  0  0  0  0  0  0  0  0  0  0
    6.3399   13.4612   26.3772 H   0  0  0  0  0  0  0  0  0  0  0  0
    9.4158    9.5641   22.9350 H   0  0  0  0  0  0  0  0  0  0  0  0
   12.5250   18.1581   23.3678 H   0  0  0  0  0  0  0  0  0  0  0  0
    2.8557   12.3098   28.1743 H   0  0  0  0  0  0  0  0  0  0  0  0
    3.9370   13.2861   27.0834 H   0  0  0  0  0  0  0  0  0  0  0  0
    5.7543   13.2021   28.8043 H   0  0  0  0  0  0  0  0  0  0  0  0
    4.6752   12.2266   29.8984 H   0  0  0  0  0  0  0  0  0  0  0  0
    4.5004   10.4167   28.1710 H   0  0  0  0  0  0  0  0  0  0  0  0
   13.2544   13.8706   23.1342 H   0  0  0  0  0  0  0  0  0  0  0  0
   12.9813   12.4808   22.0673 H   0  0  0  0  0  0  0  0  0  0  0  0
   13.6520   13.9724   21.4101 H   0  0  0  0  0  0  0  0  0  0  0  0
   11.2417   13.7342   20.8334 H   0  0  0  0  0  0  0  0  0  0  0  0
    6.1414    9.2569   26.3809 H   0  0  0  0  0  0  0  0  0  0  0  0
   10.2811   13.9049   23.5544 H   0  0  0  0  0  0  0  0  0  0  0  0
  1  2  1  0  0  0  0
  1  6  2  0  0  0  0
  2 10  2  0  0  0  0
  3  7  1  0  0  0  0
  3  8  2  0  0  0  0
  4  7  1  0  0  0  0
  4  9  2  0  0  0  0
  5  8  1  0  0  0  0
  5 18  2  0  0  0  0
  6 22  1  0  0  0  0
  7 11  2  0  0  0  0
  8 12  1  0  0  0  0
  9 15  1  0  0  0  0
  9 19  1  0  0  0  0
 10 17  1  0  0  0  0
 10 22  1  0  0  0  0
 11 18  1  0  0  0  0
 11 19  1  0  0  0  0
 12 20  1  0  0  0  0
 12 21  2  0  0  0  0
 13 14  1  0  0  0  0
 13 15  1  0  0  0  0
 14 15  1  0  0  0  0
 16 17  1  6  0  0  0
 17 20  1  0  0  0  0
  1 23  1  0  0  0  0
  2 24  1  0  0  0  0
  3 25  1  0  0  0  0
  4 26  1  0  0  0  0
  5 27  1  0  0  0  0
  6 28  1  0  0  0  0
 13 29  1  0  0  0  0
 13 30  1  0  0  0  0
 14 31  1  0  0  0  0
 14 32  1  0  0  0  0
 15 33  1  0  0  0  0
 16 34  1  0  0  0  0
 16 35  1  0  0  0  0
 16 36  1  0  0  0  0
 17 37  1  0  0  0  0
 19 38  1  0  0  0  0
 20 39  1  0  0  0  0
M  END
> <idnumber>
Z5887682203

> <heavy_atoms>
22

> <LogS>
-4.642

> <LogP>
3.034

> <rotating_bonds>
4

> <PSA>
70.92

> <hb_acceptors>
2

> <hb_donors>
2

> <Collection>
Advanced

> <link>
https://www.enaminestore.com/catalog/Z5887682203

> <ROCS_ShapeQuery>
_x1140_x0812_0A_x1140_0A_x1097_0A_x0365_0A_x1097_0A_x0310_0A

> <ROCS_TanimotoCombo>
0.664 

> <ROCS_ShapeTanimoto>
0.258 

> <ROCS_ColorTanimoto>
0.406 

> <ROCS_RefTversky>
0.235 

> <ROCS_RefColorTversky>
0.578 

> <ROCS_RefTverskyCombo>
0.813 

> <ROCS_FitTversky>
1.608 

> <ROCS_FitColorTversky>
0.576 

> <ROCS_FitTverskyCombo>
2.184 

> <ROCS_ColorScore>
-4.623

> <ROCS_Overlap>
2416.953

> <ROCS_Rank>
69                  

$$$$
untitled-dbase-960825_34
  -OEChem-02092421083D

 28 29  0     0  0  0  0  0  0999 V2000
    7.6805   11.9464   25.4558 C   0  0  0  0  0  0  0  0  0  0  0  0
    8.8392   12.3713   24.8384 C   0  0  0  0  0  0  0  0  0  0  0  0
    7.3591   10.6171   25.2721 C   0  0  0  0  0  0  0  0  0  0  0  0
    9.2100   10.2941   23.9927 C   0  0  0  0  0  0  0  0  0  0  0  0
    9.0576   13.4265   20.0319 C   0  0  0  0  0  0  0  0  0  0  0  0
   10.4635   13.1961   19.5601 C   0  0  0  0  0  0  0  0  0  0  0  0
    9.6339   12.0395   20.0392 C   0  0  0  0  0  0  0  0  0  0  0  0
   11.2305    9.9046   22.5816 C   0  0  0  0  0  0  0  0  0  0  0  0
   10.9032   10.4370   21.1984 C   0  0  0  0  0  0  0  0  0  0  0  0
    9.6309   11.5691   24.0967 N   0  0  0  0  0  0  0  0  0  0  0  0
    8.1037    9.7594   24.5440 N   0  0  0  0  0  0  0  0  0  0  0  0
    6.1755   10.1417   25.8880 N   0  0  0  0  0  0  0  0  0  0  0  0
    9.9870    9.4542   23.2475 N   0  0  0  0  0  0  0  0  0  0  0  0
    9.9771   11.5100   21.3124 O   0  0  0  0  0  0  0  0  0  0  0  0
    7.0719   12.6238   26.0420 H   0  0  0  0  0  0  0  0  0  0  0  0
    9.1734   13.3999   24.9245 H   0  0  0  0  0  0  0  0  0  0  0  0
    8.9194   13.9311   20.9801 H   0  0  0  0  0  0  0  0  0  0  0  0
    8.3067   13.6567   19.2862 H   0  0  0  0  0  0  0  0  0  0  0  0
   10.6578   13.2711   18.4974 H   0  0  0  0  0  0  0  0  0  0  0  0
   11.2711   13.5459   20.1912 H   0  0  0  0  0  0  0  0  0  0  0  0
    9.2671   11.3440   19.2938 H   0  0  0  0  0  0  0  0  0  0  0  0
   11.9178    9.0544   22.5272 H   0  0  0  0  0  0  0  0  0  0  0  0
   11.6808   10.6906   23.1954 H   0  0  0  0  0  0  0  0  0  0  0  0
   10.4375    9.6515   20.5951 H   0  0  0  0  0  0  0  0  0  0  0  0
   11.7994   10.7984   20.6837 H   0  0  0  0  0  0  0  0  0  0  0  0
    5.6489   10.7627   26.4636 H   0  0  0  0  0  0  0  0  0  0  0  0
    5.9466    9.1745   25.8093 H   0  0  0  0  0  0  0  0  0  0  0  0
    9.7424    8.4958   23.1218 H   0  0  0  0  0  0  0  0  0  0  0  0
  1  2  2  0  0  0  0
  1  3  1  0  0  0  0
  2 10  1  0  0  0  0
  3 11  2  0  0  0  0
  3 12  1  0  0  0  0
  4 10  2  0  0  0  0
  4 11  1  0  0  0  0
  4 13  1  0  0  0  0
  5  6  1  0  0  0  0
  5  7  1  0  0  0  0
  6  7  1  0  0  0  0
  7 14  1  0  0  0  0
  8  9  1  0  0  0  0
  8 13  1  0  0  0  0
  9 14  1  0  0  0  0
  1 15  1  0  0  0  0
  2 16  1  0  0  0  0
  5 17  1  0  0  0  0
  5 18  1  0  0  0  0
  6 19  1  0  0  0  0
  6 20  1  0  0  0  0
  7 21  1  0  0  0  0
  8 22  1  0  0  0  0
  8 23  1  0  0  0  0
  9 24  1  0  0  0  0
  9 25  1  0  0  0  0
 12 26  1  0  0  0  0
 12 27  1  0  0  0  0
 13 28  1  0  0  0  0
M  END
> <idnumber>
Z2824370156

> <heavy_atoms>
14

> <LogS>
-1.739

> <LogP>
0.93

> <rotating_bonds>
5

> <PSA>
73.06

> <hb_acceptors>
5

> <hb_donors>
2

> <Collection>
Advanced

> <link>
https://www.enaminestore.com/catalog/Z2824370156

> <ROCS_ShapeQuery>
_x1140_x0812_0A_x1140_0A_x1097_0A_x0365_0A_x1097_0A_x0310_0A

> <ROCS_TanimotoCombo>
0.664 

> <ROCS_ShapeTanimoto>
0.200 

> <ROCS_ColorTanimoto>
0.464 

> <ROCS_RefTversky>
0.185 

> <ROCS_RefColorTversky>
0.598 

> <ROCS_RefTverskyCombo>
0.783 

> <ROCS_FitTversky>
1.694 

> <ROCS_FitColorTversky>
0.674 

> <ROCS_FitTverskyCombo>
2.367 

> <ROCS_ColorScore>
-4.758

> <ROCS_Overlap>
1893.209

> <ROCS_Rank>
70                  

$$$$
untitled-dbase-711912_87
  -OEChem-02092421083D

 37 39  0     1  0  0  0  0  0999 V2000
    8.1736   12.3878   24.1790 C   0  0  0  0  0  0  0  0  0  0  0  0
    9.1005   11.5900   23.5396 C   0  0  0  0  0  0  0  0  0  0  0  0
    9.0590   10.2494   23.8637 C   0  0  0  0  0  0  0  0  0  0  0  0
    7.3316   10.5982   25.2995 C   0  0  0  0  0  0  0  0  0  0  0  0
   10.0519   12.1727   22.5796 C   0  0  0  0  0  0  0  0  0  0  0  0
    5.7804   10.9561   27.3341 C   0  0  0  0  0  0  0  0  0  0  0  0
    6.7567    9.8882   27.7169 C   0  0  0  0  0  0  0  0  0  0  0  0
   11.9518   14.7265   24.4521 C   0  0  0  0  0  0  0  0  0  0  0  0
   11.4584   13.2903   24.3943 C   0  0  0  0  0  0  0  0  0  0  0  0
   11.3422   14.2556   22.1960 C   0  0  0  0  0  0  0  0  0  0  0  0
    6.3479   10.0470   26.2761 C   0  0  0  0  0  0  0  0  0  0  0  0
   12.3902   14.9954   23.0163 C   0  0  1  0  0  0  0  0  0  0  0  0
   13.2003   16.6952   21.6226 C   0  0  0  0  0  0  0  0  0  0  0  0
    7.2711   11.9234   25.0679 N   0  0  0  0  0  0  0  0  0  0  0  0
    8.1847    9.7173   24.7428 N   0  0  0  0  0  0  0  0  0  0  0  0
   10.9143   13.1533   23.0447 N   0  0  0  0  0  0  0  0  0  0  0  0
    9.9868    9.3782   23.2408 N   0  0  0  0  0  0  0  0  0  0  0  0
   10.0132   11.7574   21.4229 O   0  0  0  0  0  0  0  0  0  0  0  0
   12.3885   16.3824   22.7460 O   0  0  0  0  0  0  0  0  0  0  0  0
    8.1214   13.4567   23.9952 H   0  0  0  0  0  0  0  0  0  0  0  0
    4.7421   10.8124   27.6093 H   0  0  0  0  0  0  0  0  0  0  0  0
    6.1154   11.9851   27.3834 H   0  0  0  0  0  0  0  0  0  0  0  0
    7.7489   10.1995   28.0216 H   0  0  0  0  0  0  0  0  0  0  0  0
    6.3776    9.0252   28.2512 H   0  0  0  0  0  0  0  0  0  0  0  0
   11.1655   15.4070   24.7921 H   0  0  0  0  0  0  0  0  0  0  0  0
   12.8105   14.7992   25.1296 H   0  0  0  0  0  0  0  0  0  0  0  0
   12.2457   12.5550   24.5692 H   0  0  0  0  0  0  0  0  0  0  0  0
   10.6410   13.1128   25.0985 H   0  0  0  0  0  0  0  0  0  0  0  0
   10.4829   14.8796   21.9206 H   0  0  0  0  0  0  0  0  0  0  0  0
   11.7805   13.8187   21.2890 H   0  0  0  0  0  0  0  0  0  0  0  0
    5.6801    9.2933   25.8795 H   0  0  0  0  0  0  0  0  0  0  0  0
   13.4118   14.6069   22.8318 H   0  0  0  0  0  0  0  0  0  0  0  0
   13.1757   17.7728   21.4431 H   0  0  0  0  0  0  0  0  0  0  0  0
   12.8304   16.1602   20.7444 H   0  0  0  0  0  0  0  0  0  0  0  0
   14.2276   16.3859   21.8293 H   0  0  0  0  0  0  0  0  0  0  0  0
   10.6083    9.7478   22.5547 H   0  0  0  0  0  0  0  0  0  0  0  0
    9.9335    8.4016   23.4330 H   0  0  0  0  0  0  0  0  0  0  0  0
  1  2  1  0  0  0  0
  1 14  2  0  0  0  0
  2  3  2  0  0  0  0
  2  5  1  0  0  0  0
  3 15  1  0  0  0  0
  3 17  1  0  0  0  0
  4 11  1  0  0  0  0
  4 14  1  0  0  0  0
  4 15  2  0  0  0  0
  5 16  1  0  0  0  0
  5 18  2  0  0  0  0
  6  7  1  0  0  0  0
  6 11  1  0  0  0  0
  7 11  1  0  0  0  0
  8  9  1  0  0  0  0
  8 12  1  0  0  0  0
  9 16  1  0  0  0  0
 10 12  1  0  0  0  0
 10 16  1  0  0  0  0
 12 19  1  1  0  0  0
 13 19  1  0  0  0  0
  1 20  1  0  0  0  0
  6 21  1  0  0  0  0
  6 22  1  0  0  0  0
  7 23  1  0  0  0  0
  7 24  1  0  0  0  0
  8 25  1  0  0  0  0
  8 26  1  0  0  0  0
  9 27  1  0  0  0  0
  9 28  1  0  0  0  0
 10 29  1  0  0  0  0
 10 30  1  0  0  0  0
 11 31  1  0  0  0  0
 12 32  1  0  0  0  0
 13 33  1  0  0  0  0
 13 34  1  0  0  0  0
 13 35  1  0  0  0  0
 17 36  1  0  0  0  0
 17 37  1  0  0  0  0
M  END
> <idnumber>
Z2118085153

> <heavy_atoms>
19

> <LogS>
-1.555

> <LogP>
-0.174

> <rotating_bonds>
3

> <PSA>
81.34

> <hb_acceptors>
5

> <hb_donors>
1

> <Collection>
HTS

> <link>
https://www.enaminestore.com/catalog/Z2118085153

> <ROCS_ShapeQuery>
_x1140_x0812_0A_x1140_0A_x1097_0A_x0365_0A_x1097_0A_x0310_0A

> <ROCS_TanimotoCombo>
0.664 

> <ROCS_ShapeTanimoto>
0.270 

> <ROCS_ColorTanimoto>
0.394 

> <ROCS_RefTversky>
0.240 

> <ROCS_RefColorTversky>
0.566 

> <ROCS_RefTverskyCombo>
0.806 

> <ROCS_FitTversky>
1.826 

> <ROCS_FitColorTversky>
0.565 

> <ROCS_FitTverskyCombo>
2.390 

> <ROCS_ColorScore>
-4.525

> <ROCS_Overlap>
2467.691

> <ROCS_Rank>
71                  

$$$$
untitled-dbase-1096692_73
  -OEChem-02092421083D

 38 40  0     0  0  0  0  0  0999 V2000
    5.3362   12.1037   26.5793 C   0  0  0  0  0  0  0  0  0  0  0  0
    5.4332   10.7543   26.8956 C   0  0  0  0  0  0  0  0  0  0  0  0
   11.0549   18.0249   21.9503 C   0  0  0  0  0  0  0  0  0  0  0  0
    6.2071   12.6544   25.6436 C   0  0  0  0  0  0  0  0  0  0  0  0
   10.1973   17.1942   21.2377 C   0  0  0  0  0  0  0  0  0  0  0  0
    6.4004    9.9591   26.2759 C   0  0  0  0  0  0  0  0  0  0  0  0
    8.0692   12.3828   24.0750 C   0  0  0  0  0  0  0  0  0  0  0  0
   12.0840   17.4343   22.6657 C   0  0  0  0  0  0  0  0  0  0  0  0
    7.1798   11.8543   25.0204 C   0  0  0  0  0  0  0  0  0  0  0  0
    9.0185   11.5665   23.4773 C   0  0  0  0  0  0  0  0  0  0  0  0
   10.3924   15.8177   21.2619 C   0  0  0  0  0  0  0  0  0  0  0  0
    7.2840   10.4835   25.3365 C   0  0  0  0  0  0  0  0  0  0  0  0
   11.4514   15.3260   22.0080 C   0  0  0  0  0  0  0  0  0  0  0  0
    9.0438   10.2380   23.8506 C   0  0  0  0  0  0  0  0  0  0  0  0
    9.9351   12.1312   22.4967 C   0  0  0  0  0  0  0  0  0  0  0  0
   11.7092   13.8482   22.0712 C   0  0  0  0  0  0  0  0  0  0  0  0
    9.4773   14.9226   20.5003 C   0  0  0  0  0  0  0  0  0  0  0  0
   12.3052   16.1015   22.7131 N   0  0  0  0  0  0  0  0  0  0  0  0
    8.2043    9.6889   24.7581 N   0  0  0  0  0  0  0  0  0  0  0  0
   10.0078    9.3900   23.2497 N   0  0  0  0  0  0  0  0  0  0  0  0
   10.7648   13.1707   22.9301 N   0  0  0  0  0  0  0  0  0  0  0  0
    9.9468   11.7070   21.3286 O   0  0  0  0  0  0  0  0  0  0  0  0
    8.4934   15.5888   19.8250 F   0  0  0  0  0  0  0  0  0  0  0  0
   10.1104   14.1695   19.5518 F   0  0  0  0  0  0  0  0  0  0  0  0
    8.8275   14.0281   21.3018 F   0  0  0  0  0  0  0  0  0  0  0  0
    4.5859   12.7249   27.0587 H   0  0  0  0  0  0  0  0  0  0  0  0
    4.7578   10.3162   27.6247 H   0  0  0  0  0  0  0  0  0  0  0  0
   10.9236   19.1009   21.9462 H   0  0  0  0  0  0  0  0  0  0  0  0
    6.1226   13.7119   25.4033 H   0  0  0  0  0  0  0  0  0  0  0  0
    9.3813   17.6285   20.6666 H   0  0  0  0  0  0  0  0  0  0  0  0
    6.4558    8.9048   26.5411 H   0  0  0  0  0  0  0  0  0  0  0  0
    8.0171   13.4367   23.8072 H   0  0  0  0  0  0  0  0  0  0  0  0
   12.7801   18.0382   23.2384 H   0  0  0  0  0  0  0  0  0  0  0  0
   11.6390   13.4010   21.0737 H   0  0  0  0  0  0  0  0  0  0  0  0
   12.7154   13.6408   22.4505 H   0  0  0  0  0  0  0  0  0  0  0  0
   10.6044    9.7642   22.5447 H   0  0  0  0  0  0  0  0  0  0  0  0
   10.0031    8.4199   23.4777 H   0  0  0  0  0  0  0  0  0  0  0  0
   10.6695   13.5206   23.8779 H   0  0  0  0  0  0  0  0  0  0  0  0
  1  2  1  0  0  0  0
  1  4  2  0  0  0  0
  2  6  2  0  0  0  0
  3  5  2  0  0  0  0
  3  8  1  0  0  0  0
  4  9  1  0  0  0  0
  5 11  1  0  0  0  0
  6 12  1  0  0  0  0
  7  9  2  0  0  0  0
  7 10  1  0  0  0  0
  8 18  2  0  0  0  0
  9 12  1  0  0  0  0
 10 14  2  0  0  0  0
 10 15  1  0  0  0  0
 11 13  2  0  0  0  0
 11 17  1  0  0  0  0
 12 19  2  0  0  0  0
 13 16  1  0  0  0  0
 13 18  1  0  0  0  0
 14 19  1  0  0  0  0
 14 20  1  0  0  0  0
 15 21  1  0  0  0  0
 15 22  2  0  0  0  0
 16 21  1  0  0  0  0
 17 23  1  0  0  0  0
 17 24  1  0  0  0  0
 17 25  1  0  0  0  0
  1 26  1  0  0  0  0
  2 27  1  0  0  0  0
  3 28  1  0  0  0  0
  4 29  1  0  0  0  0
  5 30  1  0  0  0  0
  6 31  1  0  0  0  0
  7 32  1  0  0  0  0
  8 33  1  0  0  0  0
 16 34  1  0  0  0  0
 16 35  1  0  0  0  0
 20 36  1  0  0  0  0
 20 37  1  0  0  0  0
 21 38  1  0  0  0  0
M  END
> <idnumber>
Z4655554101

> <heavy_atoms>
25

> <LogS>
-4.44

> <LogP>
3.311

> <rotating_bonds>
4

> <PSA>
80.9

> <hb_acceptors>
4

> <hb_donors>
2

> <Collection>
Advanced

> <link>
https://www.enaminestore.com/catalog/Z4655554101

> <ROCS_ShapeQuery>
_x1140_x0812_0A_x1140_0A_x1097_0A_x0365_0A_x1097_0A_x0310_0A

> <ROCS_TanimotoCombo>
0.664 

> <ROCS_ShapeTanimoto>
0.285 

> <ROCS_ColorTanimoto>
0.379 

> <ROCS_RefTversky>
0.257 

> <ROCS_RefColorTversky>
0.581 

> <ROCS_RefTverskyCombo>
0.838 

> <ROCS_FitTversky>
1.605 

> <ROCS_FitColorTversky>
0.522 

> <ROCS_FitTverskyCombo>
2.127 

> <ROCS_ColorScore>
-4.677

> <ROCS_Overlap>
2641.499

> <ROCS_Rank>
72                  

$$$$
untitled-dbase-968961_4
  -OEChem-02092421083D

 35 36  0     0  0  0  0  0  0999 V2000
    6.3873   12.4024   25.9291 C   0  0  0  0  0  0  0  0  0  0  0  0
    8.4375   12.6355   24.3201 C   0  0  0  0  0  0  0  0  0  0  0  0
    9.1956   10.4598   23.6700 C   0  0  0  0  0  0  0  0  0  0  0  0
    5.7612   11.2661   26.3944 C   0  0  0  0  0  0  0  0  0  0  0  0
    7.4500   11.9903   25.0821 C   0  0  0  0  0  0  0  0  0  0  0  0
    9.3271   11.8402   23.6001 C   0  0  0  0  0  0  0  0  0  0  0  0
    7.4328   10.5988   25.0617 C   0  0  0  0  0  0  0  0  0  0  0  0
   10.6125   13.7861   22.6420 C   0  0  0  0  0  0  0  0  0  0  0  0
   11.5320   13.4475   20.3188 C   0  0  0  0  0  0  0  0  0  0  0  0
   13.1009   13.4464   22.2925 C   0  0  0  0  0  0  0  0  0  0  0  0
   12.4248   17.6204   22.6116 C   0  0  0  0  0  0  0  0  0  0  0  0
   12.0092   15.5822   21.5181 C   0  0  0  0  0  0  0  0  0  0  0  0
   11.8178   14.0578   21.7023 C   0  0  0  0  0  0  0  0  0  0  0  0
    8.2661    9.7852   24.3858 N   0  0  0  0  0  0  0  0  0  0  0  0
    6.4037   10.1783   25.8624 N   0  0  0  0  0  0  0  0  0  0  0  0
   10.3470   12.4306   22.8146 N   0  0  0  0  0  0  0  0  0  0  0  0
    9.9828   14.7123   23.1496 O   0  0  0  0  0  0  0  0  0  0  0  0
   12.2733   16.2164   22.7646 O   0  0  0  0  0  0  0  0  0  0  0  0
    6.1064   13.4174   26.1742 H   0  0  0  0  0  0  0  0  0  0  0  0
    8.5010   13.7192   24.2955 H   0  0  0  0  0  0  0  0  0  0  0  0
    9.8754    9.8147   23.1174 H   0  0  0  0  0  0  0  0  0  0  0  0
    4.9174   11.1356   27.0572 H   0  0  0  0  0  0  0  0  0  0  0  0
   12.3558   13.6127   19.6163 H   0  0  0  0  0  0  0  0  0  0  0  0
   11.3807   12.3644   20.3925 H   0  0  0  0  0  0  0  0  0  0  0  0
   10.6319   13.8848   19.8719 H   0  0  0  0  0  0  0  0  0  0  0  0
   13.9718   13.6212   21.6516 H   0  0  0  0  0  0  0  0  0  0  0  0
   13.3295   13.8817   23.2718 H   0  0  0  0  0  0  0  0  0  0  0  0
   13.0054   12.3619   22.4165 H   0  0  0  0  0  0  0  0  0  0  0  0
   12.6259   18.0741   23.5852 H   0  0  0  0  0  0  0  0  0  0  0  0
   11.5120   18.0417   22.1829 H   0  0  0  0  0  0  0  0  0  0  0  0
   13.2643   17.8164   21.9405 H   0  0  0  0  0  0  0  0  0  0  0  0
   12.8580   15.7880   20.8560 H   0  0  0  0  0  0  0  0  0  0  0  0
   11.1172   16.0445   21.0802 H   0  0  0  0  0  0  0  0  0  0  0  0
    6.1570    9.2136   26.0343 H   0  0  0  0  0  0  0  0  0  0  0  0
   10.9579   11.7880   22.3176 H   0  0  0  0  0  0  0  0  0  0  0  0
  1  4  2  0  0  0  0
  1  5  1  0  0  0  0
  2  5  1  0  0  0  0
  2  6  2  0  0  0  0
  3  6  1  0  0  0  0
  3 14  2  0  0  0  0
  4 15  1  0  0  0  0
  5  7  2  0  0  0  0
  6 16  1  0  0  0  0
  7 14  1  0  0  0  0
  7 15  1  0  0  0  0
  8 13  1  0  0  0  0
  8 16  1  0  0  0  0
  8 17  2  0  0  0  0
  9 13  1  0  0  0  0
 10 13  1  0  0  0  0
 11 18  1  0  0  0  0
 12 13  1  0  0  0  0
 12 18  1  0  0  0  0
  1 19  1  0  0  0  0
  2 20  1  0  0  0  0
  3 21  1  0  0  0  0
  4 22  1  0  0  0  0
  9 23  1  0  0  0  0
  9 24  1  0  0  0  0
  9 25  1  0  0  0  0
 10 26  1  0  0  0  0
 10 27  1  0  0  0  0
 10 28  1  0  0  0  0
 11 29  1  0  0  0  0
 11 30  1  0  0  0  0
 11 31  1  0  0  0  0
 12 32  1  0  0  0  0
 12 33  1  0  0  0  0
 15 34  1  0  0  0  0
 16 35  1  0  0  0  0
M  END
> <idnumber>
Z2900718543

> <heavy_atoms>
18

> <LogS>
-2.827

> <LogP>
1.854

> <rotating_bonds>
4

> <PSA>
67.01

> <hb_acceptors>
3

> <hb_donors>
2

> <Collection>
HTS

> <link>
https://www.enaminestore.com/catalog/Z2900718543

> <ROCS_ShapeQuery>
_x1140_x0812_0A_x1140_0A_x1097_0A_x0365_0A_x1097_0A_x0310_0A

> <ROCS_TanimotoCombo>
0.663 

> <ROCS_ShapeTanimoto>
0.254 

> <ROCS_ColorTanimoto>
0.409 

> <ROCS_RefTversky>
0.228 

> <ROCS_RefColorTversky>
0.582 

> <ROCS_RefTverskyCombo>
0.810 

> <ROCS_FitTversky>
1.795 

> <ROCS_FitColorTversky>
0.580 

> <ROCS_FitTverskyCombo>
2.375 

> <ROCS_ColorScore>
-4.654

> <ROCS_Overlap>
2341.931

> <ROCS_Rank>
73                  

$$$$
untitled-dbase-1156789_62
  -OEChem-02092421083D

 41 44  0     1  0  0  0  0  0999 V2000
   10.3643   17.5986   21.2561 C   0  0  0  0  0  0  0  0  0  0  0  0
   11.1998   18.2781   22.1356 C   0  0  0  0  0  0  0  0  0  0  0  0
   10.4536   16.2151   21.1498 C   0  0  0  0  0  0  0  0  0  0  0  0
    8.3250   12.4930   24.2369 C   0  0  0  0  0  0  0  0  0  0  0  0
    6.5269   12.4220   26.1363 C   0  0  0  0  0  0  0  0  0  0  0  0
   12.1004   17.5338   22.8804 C   0  0  0  0  0  0  0  0  0  0  0  0
    8.8579   10.2605   23.5560 C   0  0  0  0  0  0  0  0  0  0  0  0
    7.4278   11.9267   25.1568 C   0  0  0  0  0  0  0  0  0  0  0  0
    9.0529   11.6285   23.4212 C   0  0  0  0  0  0  0  0  0  0  0  0
    5.9155   11.3368   26.7264 C   0  0  0  0  0  0  0  0  0  0  0  0
   11.3878   15.5632   21.9386 C   0  0  0  0  0  0  0  0  0  0  0  0
    7.3316   10.5384   25.1860 C   0  0  0  0  0  0  0  0  0  0  0  0
    9.9976   12.1512   22.4488 C   0  0  0  0  0  0  0  0  0  0  0  0
    3.8720   12.5261   27.8585 C   0  0  0  0  0  0  0  0  0  0  0  0
    4.9586   12.4734   28.8866 C   0  0  0  0  0  0  0  0  0  0  0  0
    4.8683   11.3832   27.8365 C   0  0  0  0  0  0  0  0  0  0  0  0
   12.9320   13.5689   22.1321 C   0  0  0  0  0  0  0  0  0  0  0  0
   11.5129   14.0575   21.8489 C   0  0  1  0  0  0  0  0  0  0  0  0
   12.2163   16.1890   22.8043 N   0  0  0  0  0  0  0  0  0  0  0  0
    8.0094    9.6603   24.4228 N   0  0  0  0  0  0  0  0  0  0  0  0
    6.4113   10.1999   26.1427 N   0  0  0  0  0  0  0  0  0  0  0  0
   10.5753   13.3960   22.7275 N   0  0  0  0  0  0  0  0  0  0  0  0
   10.2530   11.5153   21.4100 O   0  0  0  0  0  0  0  0  0  0  0  0
    9.6449   18.1463   20.6548 H   0  0  0  0  0  0  0  0  0  0  0  0
   11.1476   19.3562   22.2350 H   0  0  0  0  0  0  0  0  0  0  0  0
    9.8076   15.6732   20.4675 H   0  0  0  0  0  0  0  0  0  0  0  0
    8.4450   13.5698   24.1663 H   0  0  0  0  0  0  0  0  0  0  0  0
    6.3451   13.4595   26.3828 H   0  0  0  0  0  0  0  0  0  0  0  0
   12.7742   18.0163   23.5808 H   0  0  0  0  0  0  0  0  0  0  0  0
    9.4128    9.5634   22.9322 H   0  0  0  0  0  0  0  0  0  0  0  0
    2.8605   12.3105   28.1806 H   0  0  0  0  0  0  0  0  0  0  0  0
    3.9424   13.2868   27.0904 H   0  0  0  0  0  0  0  0  0  0  0  0
    5.7609   13.1974   28.8099 H   0  0  0  0  0  0  0  0  0  0  0  0
    4.6812   12.2218   29.9031 H   0  0  0  0  0  0  0  0  0  0  0  0
    4.5024   10.4149   28.1730 H   0  0  0  0  0  0  0  0  0  0  0  0
   13.2579   13.8639   23.1355 H   0  0  0  0  0  0  0  0  0  0  0  0
   12.9820   12.4762   22.0665 H   0  0  0  0  0  0  0  0  0  0  0  0
   13.6545   13.9679   21.4112 H   0  0  0  0  0  0  0  0  0  0  0  0
   11.2434   13.7341   20.8359 H   0  0  0  0  0  0  0  0  0  0  0  0
    6.1405    9.2555   26.3799 H   0  0  0  0  0  0  0  0  0  0  0  0
   10.2850   13.9019   23.5579 H   0  0  0  0  0  0  0  0  0  0  0  0
  1  2  1  0  0  0  0
  1  3  2  0  0  0  0
  2  6  2  0  0  0  0
  3 11  1  0  0  0  0
  4  8  1  0  0  0  0
  4  9  2  0  0  0  0
  5  8  1  0  0  0  0
  5 10  2  0  0  0  0
  6 19  1  0  0  0  0
  7  9  1  0  0  0  0
  7 20  2  0  0  0  0
  8 12  2  0  0  0  0
  9 13  1  0  0  0  0
 10 16  1  0  0  0  0
 10 21  1  0  0  0  0
 11 18  1  0  0  0  0
 11 19  2  0  0  0  0
 12 20  1  0  0  0  0
 12 21  1  0  0  0  0
 13 22  1  0  0  0  0
 13 23  2  0  0  0  0
 14 15  1  0  0  0  0
 14 16  1  0  0  0  0
 15 16  1  0  0  0  0
 17 18  1  6  0  0  0
 18 22  1  0  0  0  0
  1 24  1  0  0  0  0
  2 25  1  0  0  0  0
  3 26  1  0  0  0  0
  4 27  1  0  0  0  0
  5 28  1  0  0  0  0
  6 29  1  0  0  0  0
  7 30  1  0  0  0  0
 14 31  1  0  0  0  0
 14 32  1  0  0  0  0
 15 33  1  0  0  0  0
 15 34  1  0  0  0  0
 16 35  1  0  0  0  0
 17 36  1  0  0  0  0
 17 37  1  0  0  0  0
 17 38  1  0  0  0  0
 18 39  1  0  0  0  0
 21 40  1  0  0  0  0
 22 41  1  0  0  0  0
M  END
> <idnumber>
Z7626832826

> <heavy_atoms>
23

> <LogS>
-4.26

> <LogP>
2.361

> <rotating_bonds>
4

> <PSA>
70.67

> <hb_acceptors>
3

> <hb_donors>
2

> <Collection>
Advanced

> <link>
https://www.enaminestore.com/catalog/Z7626832826

> <ROCS_ShapeQuery>
_x1140_x0812_0A_x1140_0A_x1097_0A_x0365_0A_x1097_0A_x0310_0A

> <ROCS_TanimotoCombo>
0.663 

> <ROCS_ShapeTanimoto>
0.258 

> <ROCS_ColorTanimoto>
0.406 

> <ROCS_RefTversky>
0.236 

> <ROCS_RefColorTversky>
0.578 

> <ROCS_RefTverskyCombo>
0.813 

> <ROCS_FitTversky>
1.569 

> <ROCS_FitColorTversky>
0.576 

> <ROCS_FitTverskyCombo>
2.146 

> <ROCS_ColorScore>
-4.624

> <ROCS_Overlap>
2420.979

> <ROCS_Rank>
74                  

$$$$
untitled-dbase-850036_24
  -OEChem-02092421083D

 32 33  0     0  0  0  0  0  0999 V2000
    8.3517   12.6634   24.1261 C   0  0  0  0  0  0  0  0  0  0  0  0
    7.3627   12.0703   24.9029 C   0  0  0  0  0  0  0  0  0  0  0  0
   12.2906   13.7522   22.3272 C   0  0  0  0  0  0  0  0  0  0  0  0
    9.2696   10.5038   23.7386 C   0  0  0  0  0  0  0  0  0  0  0  0
    9.3270   11.8723   23.5294 C   0  0  0  0  0  0  0  0  0  0  0  0
   12.8843   14.9972   22.3685 C   0  0  0  0  0  0  0  0  0  0  0  0
    7.3931   10.6930   25.0505 C   0  0  0  0  0  0  0  0  0  0  0  0
   10.9836   13.6991   22.7665 C   0  0  0  0  0  0  0  0  0  0  0  0
   10.9875   15.9296   23.2050 C   0  0  0  0  0  0  0  0  0  0  0  0
   14.2965   15.1540   21.9138 C   0  0  0  0  0  0  0  0  0  0  0  0
   10.2637   17.1387   23.6923 C   0  0  0  0  0  0  0  0  0  0  0  0
    5.7683   10.7833   26.9420 C   0  0  0  0  0  0  0  0  0  0  0  0
    8.3244    9.8916   24.4865 N   0  0  0  0  0  0  0  0  0  0  0  0
   12.2598   16.1114   22.8032 N   0  0  0  0  0  0  0  0  0  0  0  0
   10.2989   14.7722   23.2139 N   0  0  0  0  0  0  0  0  0  0  0  0
   10.3392   12.4425   22.7402 N   0  0  0  0  0  0  0  0  0  0  0  0
    6.3791   10.1039   25.8465 N   0  0  0  0  0  0  0  0  0  0  0  0
    8.3533   13.7418   23.9919 H   0  0  0  0  0  0  0  0  0  0  0  0
    6.5981   12.6801   25.3727 H   0  0  0  0  0  0  0  0  0  0  0  0
   12.8199   12.8759   21.9721 H   0  0  0  0  0  0  0  0  0  0  0  0
   10.0031    9.8345   23.2991 H   0  0  0  0  0  0  0  0  0  0  0  0
   14.3289   15.3826   20.8417 H   0  0  0  0  0  0  0  0  0  0  0  0
   14.8024   15.9621   22.4577 H   0  0  0  0  0  0  0  0  0  0  0  0
   14.8760   14.2391   22.0926 H   0  0  0  0  0  0  0  0  0  0  0  0
    9.7494   17.6371   22.8614 H   0  0  0  0  0  0  0  0  0  0  0  0
    9.5190   16.8772   24.4554 H   0  0  0  0  0  0  0  0  0  0  0  0
   10.9535   17.8568   24.1551 H   0  0  0  0  0  0  0  0  0  0  0  0
    6.2066   11.7873   27.0418 H   0  0  0  0  0  0  0  0  0  0  0  0
    4.6869   10.8718   26.7615 H   0  0  0  0  0  0  0  0  0  0  0  0
    5.9402   10.2147   27.8678 H   0  0  0  0  0  0  0  0  0  0  0  0
   10.6785   11.8316   21.9997 H   0  0  0  0  0  0  0  0  0  0  0  0
    6.1045    9.1738   25.6051 H   0  0  0  0  0  0  0  0  0  0  0  0
  1  2  2  0  0  0  0
  1  5  1  0  0  0  0
  2  7  1  0  0  0  0
  3  6  2  0  0  0  0
  3  8  1  0  0  0  0
  4  5  2  0  0  0  0
  4 13  1  0  0  0  0
  5 16  1  0  0  0  0
  6 10  1  0  0  0  0
  6 14  1  0  0  0  0
  7 13  2  0  0  0  0
  7 17  1  0  0  0  0
  8 15  2  0  0  0  0
  8 16  1  0  0  0  0
  9 11  1  0  0  0  0
  9 14  2  0  0  0  0
  9 15  1  0  0  0  0
 12 17  1  0  0  0  0
  1 18  1  0  0  0  0
  2 19  1  0  0  0  0
  3 20  1  0  0  0  0
  4 21  1  0  0  0  0
 10 22  1  0  0  0  0
 10 23  1  0  0  0  0
 10 24  1  0  0  0  0
 11 25  1  0  0  0  0
 11 26  1  0  0  0  0
 11 27  1  0  0  0  0
 12 28  1  0  0  0  0
 12 29  1  0  0  0  0
 12 30  1  0  0  0  0
 16 31  1  0  0  0  0
 17 32  1  0  0  0  0
M  END
> <idnumber>
Z1764946926

> <heavy_atoms>
17

> <LogS>
-1.653

> <LogP>
2.569

> <rotating_bonds>
3

> <PSA>
62.73

> <hb_acceptors>
5

> <hb_donors>
2

> <Collection>
HTS

> <link>
https://www.enaminestore.com/catalog/Z1764946926

> <ROCS_ShapeQuery>
_x1140_x0812_0A_x1140_0A_x1097_0A_x0365_0A_x1097_0A_x0310_0A

> <ROCS_TanimotoCombo>
0.663 

> <ROCS_ShapeTanimoto>
0.227 

> <ROCS_ColorTanimoto>
0.437 

> <ROCS_RefTversky>
0.208 

> <ROCS_RefColorTversky>
0.574 

> <ROCS_RefTverskyCombo>
0.781 

> <ROCS_FitTversky>
1.682 

> <ROCS_FitColorTversky>
0.646 

> <ROCS_FitTverskyCombo>
2.329 

> <ROCS_ColorScore>
-4.560

> <ROCS_Overlap>
2129.607

> <ROCS_Rank>
75                  

$$$$
untitled-dbase-103510_74
  -OEChem-02092421083D

 29 30  0     0  0  0  0  0  0999 V2000
   10.2606   15.0879   20.2643 C   0  0  0  0  0  0  0  0  0  0  0  0
   10.0025   13.8226   20.7915 C   0  0  0  0  0  0  0  0  0  0  0  0
    8.2709   12.5192   23.8765 C   0  0  0  0  0  0  0  0  0  0  0  0
   11.0663   15.9848   20.9659 C   0  0  0  0  0  0  0  0  0  0  0  0
    7.2848   12.0056   24.7114 C   0  0  0  0  0  0  0  0  0  0  0  0
   11.3558   14.3510   22.7220 C   0  0  0  0  0  0  0  0  0  0  0  0
    9.2487   10.3530   23.7851 C   0  0  0  0  0  0  0  0  0  0  0  0
   10.5501   13.4541   22.0203 C   0  0  0  0  0  0  0  0  0  0  0  0
    9.2752   11.6838   23.4002 C   0  0  0  0  0  0  0  0  0  0  0  0
   11.6139   15.6163   22.1947 C   0  0  0  0  0  0  0  0  0  0  0  0
    7.3472   10.6604   25.0374 C   0  0  0  0  0  0  0  0  0  0  0  0
   11.8377   17.7391   23.2698 C   0  0  0  0  0  0  0  0  0  0  0  0
    8.3072    9.8179   24.5943 N   0  0  0  0  0  0  0  0  0  0  0  0
    6.3357   10.1526   25.8904 N   0  0  0  0  0  0  0  0  0  0  0  0
   10.2882   12.1751   22.5539 N   0  0  0  0  0  0  0  0  0  0  0  0
   12.4001   16.4916   22.8790 O   0  0  0  0  0  0  0  0  0  0  0  0
   10.5098   17.6271   23.4853 F   0  0  0  0  0  0  0  0  0  0  0  0
   12.0236   18.6326   22.2717 F   0  0  0  0  0  0  0  0  0  0  0  0
   12.4434   18.2201   24.3762 F   0  0  0  0  0  0  0  0  0  0  0  0
    9.8341   15.3750   19.3076 H   0  0  0  0  0  0  0  0  0  0  0  0
    9.3721   13.1321   20.2370 H   0  0  0  0  0  0  0  0  0  0  0  0
    8.2478   13.5707   23.6030 H   0  0  0  0  0  0  0  0  0  0  0  0
   11.2643   16.9688   20.5497 H   0  0  0  0  0  0  0  0  0  0  0  0
    6.4977   12.6504   25.0881 H   0  0  0  0  0  0  0  0  0  0  0  0
   11.7848   14.0684   23.6805 H   0  0  0  0  0  0  0  0  0  0  0  0
   10.0056    9.6523   23.4458 H   0  0  0  0  0  0  0  0  0  0  0  0
    5.6551   10.7816   26.2570 H   0  0  0  0  0  0  0  0  0  0  0  0
    6.3835    9.1997   26.1786 H   0  0  0  0  0  0  0  0  0  0  0  0
   10.9639   11.4709   22.2724 H   0  0  0  0  0  0  0  0  0  0  0  0
  1  2  2  0  0  0  0
  1  4  1  0  0  0  0
  2  8  1  0  0  0  0
  3  5  2  0  0  0  0
  3  9  1  0  0  0  0
  4 10  2  0  0  0  0
  5 11  1  0  0  0  0
  6  8  2  0  0  0  0
  6 10  1  0  0  0  0
  7  9  2  0  0  0  0
  7 13  1  0  0  0  0
  8 15  1  0  0  0  0
  9 15  1  0  0  0  0
 10 16  1  0  0  0  0
 11 13  2  0  0  0  0
 11 14  1  0  0  0  0
 12 16  1  0  0  0  0
 12 17  1  0  0  0  0
 12 18  1  0  0  0  0
 12 19  1  0  0  0  0
  1 20  1  0  0  0  0
  2 21  1  0  0  0  0
  3 22  1  0  0  0  0
  4 23  1  0  0  0  0
  5 24  1  0  0  0  0
  6 25  1  0  0  0  0
  7 26  1  0  0  0  0
 14 27  1  0  0  0  0
 14 28  1  0  0  0  0
 15 29  1  0  0  0  0
M  END
> <idnumber>
Z2507795673

> <heavy_atoms>
20

> <LogS>
-4.467

> <LogP>
3.86

> <rotating_bonds>
4

> <PSA>
60.17

> <hb_acceptors>
4

> <hb_donors>
2

> <SaltType>
Cl

> <Collection>
Legacy

> <link>
https://www.enaminestore.com/catalog/Z2507795673

> <ROCS_ShapeQuery>
_x1140_x0812_0A_x1140_0A_x1097_0A_x0365_0A_x1097_0A_x0310_0A

> <ROCS_TanimotoCombo>
0.663 

> <ROCS_ShapeTanimoto>
0.213 

> <ROCS_ColorTanimoto>
0.450 

> <ROCS_RefTversky>
0.199 

> <ROCS_RefColorTversky>
0.586 

> <ROCS_RefTverskyCombo>
0.785 

> <ROCS_FitTversky>
1.498 

> <ROCS_FitColorTversky>
0.660 

> <ROCS_FitTverskyCombo>
2.157 

> <ROCS_ColorScore>
-4.657

> <ROCS_Overlap>
2041.312

> <ROCS_Rank>
76                  

$$$$
untitled-dbase-57190_11
  -OEChem-02092421083D

 30 31  0     0  0  0  0  0  0999 V2000
    8.4749   12.4336   24.2193 C   0  0  0  0  0  0  0  0  0  0  0  0
    7.4870   11.9733   25.0826 C   0  0  0  0  0  0  0  0  0  0  0  0
    8.9873   10.1736   23.6841 C   0  0  0  0  0  0  0  0  0  0  0  0
    9.2438   11.5231   23.5030 C   0  0  0  0  0  0  0  0  0  0  0  0
    7.3089   10.6036   25.1928 C   0  0  0  0  0  0  0  0  0  0  0  0
   10.2954   11.9794   22.5803 C   0  0  0  0  0  0  0  0  0  0  0  0
    4.8237   10.6105   28.1163 C   0  0  0  0  0  0  0  0  0  0  0  0
    5.9530   11.5994   28.1519 C   0  0  0  0  0  0  0  0  0  0  0  0
    5.4851   11.0413   26.8383 C   0  0  0  0  0  0  0  0  0  0  0  0
   12.4079   13.1928   22.2077 C   0  0  0  0  0  0  0  0  0  0  0  0
   11.4800   13.1466   24.4958 C   0  0  0  0  0  0  0  0  0  0  0  0
    8.0363    9.6887   24.5135 N   0  0  0  0  0  0  0  0  0  0  0  0
    6.2993   10.1504   26.0778 N   0  0  0  0  0  0  0  0  0  0  0  0
   11.3465   12.7436   23.0976 N   0  0  0  0  0  0  0  0  0  0  0  0
   10.1745   11.6366   21.4047 O   0  0  0  0  0  0  0  0  0  0  0  0
    8.6381   13.5027   24.1135 H   0  0  0  0  0  0  0  0  0  0  0  0
    6.8818   12.6768   25.6454 H   0  0  0  0  0  0  0  0  0  0  0  0
    9.5545    9.4147   23.1533 H   0  0  0  0  0  0  0  0  0  0  0  0
    5.0182    9.6115   28.4863 H   0  0  0  0  0  0  0  0  0  0  0  0
    3.8247   10.9780   28.3162 H   0  0  0  0  0  0  0  0  0  0  0  0
    5.7132   12.6313   28.3763 H   0  0  0  0  0  0  0  0  0  0  0  0
    6.9037   11.2624   28.5467 H   0  0  0  0  0  0  0  0  0  0  0  0
    4.9185   11.7079   26.1975 H   0  0  0  0  0  0  0  0  0  0  0  0
   12.1426   14.1732   21.7853 H   0  0  0  0  0  0  0  0  0  0  0  0
   13.3478   13.2794   22.7727 H   0  0  0  0  0  0  0  0  0  0  0  0
   12.5356   12.4650   21.3928 H   0  0  0  0  0  0  0  0  0  0  0  0
   12.0461   12.3806   25.0462 H   0  0  0  0  0  0  0  0  0  0  0  0
   12.0134   14.1070   24.5512 H   0  0  0  0  0  0  0  0  0  0  0  0
   10.4809   13.2557   24.9428 H   0  0  0  0  0  0  0  0  0  0  0  0
    6.1787    9.1608   26.1503 H   0  0  0  0  0  0  0  0  0  0  0  0
  1  2  2  0  0  0  0
  1  4  1  0  0  0  0
  2  5  1  0  0  0  0
  3  4  2  0  0  0  0
  3 12  1  0  0  0  0
  4  6  1  0  0  0  0
  5 12  2  0  0  0  0
  5 13  1  0  0  0  0
  6 14  1  0  0  0  0
  6 15  2  0  0  0  0
  7  8  1  0  0  0  0
  7  9  1  0  0  0  0
  8  9  1  0  0  0  0
  9 13  1  0  0  0  0
 10 14  1  0  0  0  0
 11 14  1  0  0  0  0
  1 16  1  0  0  0  0
  2 17  1  0  0  0  0
  3 18  1  0  0  0  0
  7 19  1  0  0  0  0
  7 20  1  0  0  0  0
  8 21  1  0  0  0  0
  8 22  1  0  0  0  0
  9 23  1  0  0  0  0
 10 24  1  0  0  0  0
 10 25  1  0  0  0  0
 10 26  1  0  0  0  0
 11 27  1  0  0  0  0
 11 28  1  0  0  0  0
 11 29  1  0  0  0  0
 13 30  1  0  0  0  0
M  END
> <idnumber>
Z816284138

> <heavy_atoms>
15

> <LogS>
-1.47

> <LogP>
0.647

> <rotating_bonds>
3

> <PSA>
45.23

> <hb_acceptors>
3

> <hb_donors>
1

> <Collection>
HTS

> <link>
https://www.enaminestore.com/catalog/Z816284138

> <ROCS_ShapeQuery>
_x1140_x0812_0A_x1140_0A_x1097_0A_x0365_0A_x1097_0A_x0310_0A

> <ROCS_TanimotoCombo>
0.663 

> <ROCS_ShapeTanimoto>
0.239 

> <ROCS_ColorTanimoto>
0.424 

> <ROCS_RefTversky>
0.215 

> <ROCS_RefColorTversky>
0.458 

> <ROCS_RefTverskyCombo>
0.673 

> <ROCS_FitTversky>
1.892 

> <ROCS_FitColorTversky>
0.851 

> <ROCS_FitTverskyCombo>
2.743 

> <ROCS_ColorScore>
-3.573

> <ROCS_Overlap>
2200.486

> <ROCS_Rank>
77                  

$$$$
untitled-dbase-301685_66
  -OEChem-02092421083D

 36 38  0     0  0  0  0  0  0999 V2000
    7.3743   11.9263   25.1970 C   0  0  0  0  0  0  0  0  0  0  0  0
    8.3243   12.4887   24.3517 C   0  0  0  0  0  0  0  0  0  0  0  0
   10.9883   16.9361   20.9972 C   0  0  0  0  0  0  0  0  0  0  0  0
   10.9924   15.5209   20.9843 C   0  0  0  0  0  0  0  0  0  0  0  0
    7.3474   10.5460   25.3152 C   0  0  0  0  0  0  0  0  0  0  0  0
    9.2059   11.6654   23.6603 C   0  0  0  0  0  0  0  0  0  0  0  0
   11.7935   17.3109   22.0474 C   0  0  0  0  0  0  0  0  0  0  0  0
   11.8001   15.1317   22.0275 C   0  0  0  0  0  0  0  0  0  0  0  0
    9.0972   10.2968   23.8474 C   0  0  0  0  0  0  0  0  0  0  0  0
   10.2134   12.2534   22.7633 C   0  0  0  0  0  0  0  0  0  0  0  0
   11.0929   12.3802   25.7694 C   0  0  0  0  0  0  0  0  0  0  0  0
   12.2834   13.2827   25.6186 C   0  0  0  0  0  0  0  0  0  0  0  0
   11.0889   13.4604   24.7256 C   0  0  0  0  0  0  0  0  0  0  0  0
   12.1976   18.6160   22.5894 C   0  0  0  0  0  0  0  0  0  0  0  0
   12.2205   13.7906   22.5556 C   0  0  0  0  0  0  0  0  0  0  0  0
    8.1873    9.7138   24.6598 N   0  0  0  0  0  0  0  0  0  0  0  0
   11.1500   13.1387   23.3068 N   0  0  0  0  0  0  0  0  0  0  0  0
   10.1622   11.9051   21.5843 O   0  0  0  0  0  0  0  0  0  0  0  0
   12.2924   16.2169   22.6805 O   0  0  0  0  0  0  0  0  0  0  0  0
    9.9470    9.4496   23.1843 O   0  0  0  0  0  0  0  0  0  0  0  0
    6.6774   12.5482   25.7472 H   0  0  0  0  0  0  0  0  0  0  0  0
    8.3685   13.5688   24.2393 H   0  0  0  0  0  0  0  0  0  0  0  0
   10.4630   17.5982   20.3238 H   0  0  0  0  0  0  0  0  0  0  0  0
   10.4707   14.8688   20.2984 H   0  0  0  0  0  0  0  0  0  0  0  0
    6.6262   10.0575   25.9621 H   0  0  0  0  0  0  0  0  0  0  0  0
   11.1993   11.3510   25.4490 H   0  0  0  0  0  0  0  0  0  0  0  0
   10.4620   12.5167   26.6393 H   0  0  0  0  0  0  0  0  0  0  0  0
   12.4532   14.0266   26.3870 H   0  0  0  0  0  0  0  0  0  0  0  0
   13.1860   12.8585   25.1959 H   0  0  0  0  0  0  0  0  0  0  0  0
   10.4593   14.3219   24.9209 H   0  0  0  0  0  0  0  0  0  0  0  0
   11.4940   18.9660   23.3656 H   0  0  0  0  0  0  0  0  0  0  0  0
   13.2045   18.5880   23.0454 H   0  0  0  0  0  0  0  0  0  0  0  0
   12.2441   19.3986   21.8093 H   0  0  0  0  0  0  0  0  0  0  0  0
   12.5097   13.1257   21.7345 H   0  0  0  0  0  0  0  0  0  0  0  0
   13.0866   13.8836   23.2193 H   0  0  0  0  0  0  0  0  0  0  0  0
    9.7444    8.5338   23.4199 H   0  0  0  0  0  0  0  0  0  0  0  0
  1  2  2  0  0  0  0
  1  5  1  0  0  0  0
  2  6  1  0  0  0  0
  3  4  1  0  0  0  0
  3  7  2  0  0  0  0
  4  8  2  0  0  0  0
  5 16  2  0  0  0  0
  6  9  2  0  0  0  0
  6 10  1  0  0  0  0
  7 14  1  0  0  0  0
  7 19  1  0  0  0  0
  8 15  1  0  0  0  0
  8 19  1  0  0  0  0
  9 16  1  0  0  0  0
  9 20  1  0  0  0  0
 10 17  1  0  0  0  0
 10 18  2  0  0  0  0
 11 12  1  0  0  0  0
 11 13  1  0  0  0  0
 12 13  1  0  0  0  0
 13 17  1  0  0  0  0
 15 17  1  0  0  0  0
  1 21  1  0  0  0  0
  2 22  1  0  0  0  0
  3 23  1  0  0  0  0
  4 24  1  0  0  0  0
  5 25  1  0  0  0  0
 11 26  1  0  0  0  0
 11 27  1  0  0  0  0
 12 28  1  0  0  0  0
 12 29  1  0  0  0  0
 13 30  1  0  0  0  0
 14 31  1  0  0  0  0
 14 32  1  0  0  0  0
 14 33  1  0  0  0  0
 15 34  1  0  0  0  0
 15 35  1  0  0  0  0
 20 36  1  0  0  0  0
M  END
> <idnumber>
Z667569564

> <heavy_atoms>
20

> <LogS>
-2.43

> <LogP>
2.322

> <rotating_bonds>
4

> <PSA>
66.57

> <hb_acceptors>
3

> <hb_donors>
1

> <Collection>
HTS

> <link>
https://www.enaminestore.com/catalog/Z667569564

> <ROCS_ShapeQuery>
_x1140_x0812_0A_x1140_0A_x1097_0A_x0365_0A_x1097_0A_x0310_0A

> <ROCS_TanimotoCombo>
0.663 

> <ROCS_ShapeTanimoto>
0.244 

> <ROCS_ColorTanimoto>
0.419 

> <ROCS_RefTversky>
0.223 

> <ROCS_RefColorTversky>
0.557 

> <ROCS_RefTverskyCombo>
0.780 

> <ROCS_FitTversky>
1.631 

> <ROCS_FitColorTversky>
0.628 

> <ROCS_FitTverskyCombo>
2.259 

> <ROCS_ColorScore>
-4.432

> <ROCS_Overlap>
2285.824

> <ROCS_Rank>
78                  

$$$$
untitled-dbase-184660_150
  -OEChem-02092421083D

 29 30  0     0  0  0  0  0  0999 V2000
    7.9582   11.9603   25.4172 C   0  0  0  0  0  0  0  0  0  0  0  0
    8.7353   12.3582   24.3350 C   0  0  0  0  0  0  0  0  0  0  0  0
    7.6514   10.6143   25.5353 C   0  0  0  0  0  0  0  0  0  0  0  0
    9.1756   11.4113   23.4169 C   0  0  0  0  0  0  0  0  0  0  0  0
    8.8144   10.0898   23.6246 C   0  0  0  0  0  0  0  0  0  0  0  0
   10.0048   11.8640   22.2704 C   0  0  0  0  0  0  0  0  0  0  0  0
   10.3657   14.8748   21.1540 C   0  0  0  0  0  0  0  0  0  0  0  0
   11.2059   15.3240   22.3168 C   0  0  0  0  0  0  0  0  0  0  0  0
   11.7940   14.4193   21.2697 C   0  0  0  0  0  0  0  0  0  0  0  0
   11.1240    8.9769   22.6551 C   0  0  0  0  0  0  0  0  0  0  0  0
   12.1050   12.9994   21.5947 C   0  0  0  0  0  0  0  0  0  0  0  0
    8.0609    9.6654   24.6638 N   0  0  0  0  0  0  0  0  0  0  0  0
   11.2061   12.4854   22.5917 N   0  0  0  0  0  0  0  0  0  0  0  0
    9.5924   11.6916   21.1265 O   0  0  0  0  0  0  0  0  0  0  0  0
    9.3346    8.8012   22.4974 S   0  0  0  0  0  0  0  0  0  0  0  0
    7.6036   12.6807   26.1451 H   0  0  0  0  0  0  0  0  0  0  0  0
    8.9903   13.4085   24.2196 H   0  0  0  0  0  0  0  0  0  0  0  0
    7.0476   10.2530   26.3611 H   0  0  0  0  0  0  0  0  0  0  0  0
    9.5757   14.1603   21.3498 H   0  0  0  0  0  0  0  0  0  0  0  0
   10.1304   15.6057   20.3901 H   0  0  0  0  0  0  0  0  0  0  0  0
   11.5343   16.3560   22.3327 H   0  0  0  0  0  0  0  0  0  0  0  0
   10.9785   14.9105   23.2916 H   0  0  0  0  0  0  0  0  0  0  0  0
   12.5148   14.8466   20.5831 H   0  0  0  0  0  0  0  0  0  0  0  0
   11.6270    8.2465   22.0166 H   0  0  0  0  0  0  0  0  0  0  0  0
   11.4233    8.8092   23.6927 H   0  0  0  0  0  0  0  0  0  0  0  0
   11.4262    9.9829   22.3541 H   0  0  0  0  0  0  0  0  0  0  0  0
   12.0122   12.3920   20.6818 H   0  0  0  0  0  0  0  0  0  0  0  0
   13.1358   12.9339   21.9743 H   0  0  0  0  0  0  0  0  0  0  0  0
   11.4464   12.6462   23.5681 H   0  0  0  0  0  0  0  0  0  0  0  0
  1  2  2  0  0  0  0
  1  3  1  0  0  0  0
  2  4  1  0  0  0  0
  3 12  2  0  0  0  0
  4  5  2  0  0  0  0
  4  6  1  0  0  0  0
  5 12  1  0  0  0  0
  5 15  1  0  0  0  0
  6 13  1  0  0  0  0
  6 14  2  0  0  0  0
  7  8  1  0  0  0  0
  7  9  1  0  0  0  0
  8  9  1  0  0  0  0
  9 11  1  0  0  0  0
 10 15  1  0  0  0  0
 11 13  1  0  0  0  0
  1 16  1  0  0  0  0
  2 17  1  0  0  0  0
  3 18  1  0  0  0  0
  7 19  1  0  0  0  0
  7 20  1  0  0  0  0
  8 21  1  0  0  0  0
  8 22  1  0  0  0  0
  9 23  1  0  0  0  0
 10 24  1  0  0  0  0
 10 25  1  0  0  0  0
 10 26  1  0  0  0  0
 11 27  1  0  0  0  0
 11 28  1  0  0  0  0
 13 29  1  0  0  0  0
M  END
> <idnumber>
Z275845792

> <heavy_atoms>
15

> <LogS>
-2.52

> <LogP>
1.527

> <rotating_bonds>
4

> <PSA>
41.99

> <hb_acceptors>
2

> <hb_donors>
1

> <Collection>
Functional

> <link>
https://www.enaminestore.com/catalog/Z275845792

> <ROCS_ShapeQuery>
_x1140_x0812_0A_x1140_0A_x1097_0A_x0365_0A_x1097_0A_x0310_0A

> <ROCS_TanimotoCombo>
0.662 

> <ROCS_ShapeTanimoto>
0.224 

> <ROCS_ColorTanimoto>
0.438 

> <ROCS_RefTversky>
0.204 

> <ROCS_RefColorTversky>
0.504 

> <ROCS_RefTverskyCombo>
0.708 

> <ROCS_FitTversky>
1.830 

> <ROCS_FitColorTversky>
0.769 

> <ROCS_FitTverskyCombo>
2.599 

> <ROCS_ColorScore>
-3.958

> <ROCS_Overlap>
2088.005

> <ROCS_Rank>
79                  

$$$$
untitled-dbase-378767_37
  -OEChem-02092421083D

 30 31  0     0  0  0  0  0  0999 V2000
   13.1206   14.8477   21.0247 C   0  0  0  0  0  0  0  0  0  0  0  0
   12.3066   13.8790   21.6010 C   0  0  0  0  0  0  0  0  0  0  0  0
   13.0927   16.1234   21.5648 C   0  0  0  0  0  0  0  0  0  0  0  0
   11.5457   15.5148   23.1505 C   0  0  0  0  0  0  0  0  0  0  0  0
    9.1993   11.3503   23.5959 C   0  0  0  0  0  0  0  0  0  0  0  0
   11.5010   14.2107   22.6846 C   0  0  0  0  0  0  0  0  0  0  0  0
    8.8990    9.9773   23.5806 C   0  0  0  0  0  0  0  0  0  0  0  0
    8.5027   11.8241   24.6759 C   0  0  0  0  0  0  0  0  0  0  0  0
   10.0512   12.1422   22.6921 C   0  0  0  0  0  0  0  0  0  0  0  0
    8.3460   13.1505   25.2877 C   0  0  0  0  0  0  0  0  0  0  0  0
   10.9009    8.8441   22.5831 C   0  0  0  0  0  0  0  0  0  0  0  0
    9.3719    8.9543   22.6329 C   0  0  0  0  0  0  0  0  0  0  0  0
   12.3235   16.4832   22.6167 N   0  0  0  0  0  0  0  0  0  0  0  0
    8.0789    9.6263   24.5750 N   0  0  0  0  0  0  0  0  0  0  0  0
   10.6751   13.2619   23.2824 N   0  0  0  0  0  0  0  0  0  0  0  0
   10.1632   11.8436   21.5050 O   0  0  0  0  0  0  0  0  0  0  0  0
    7.8300   10.8046   25.2685 O   0  0  0  0  0  0  0  0  0  0  0  0
   13.7568   14.6116   20.1793 H   0  0  0  0  0  0  0  0  0  0  0  0
   12.3078   12.8695   21.1982 H   0  0  0  0  0  0  0  0  0  0  0  0
   13.7085   16.9149   21.1507 H   0  0  0  0  0  0  0  0  0  0  0  0
   10.9399   15.8342   23.9934 H   0  0  0  0  0  0  0  0  0  0  0  0
    7.4909   13.6980   24.8522 H   0  0  0  0  0  0  0  0  0  0  0  0
    8.1787   13.0932   26.3794 H   0  0  0  0  0  0  0  0  0  0  0  0
    9.2437   13.7832   25.1560 H   0  0  0  0  0  0  0  0  0  0  0  0
   11.3510    9.8127   22.3407 H   0  0  0  0  0  0  0  0  0  0  0  0
   11.2246    8.1212   21.8277 H   0  0  0  0  0  0  0  0  0  0  0  0
   11.2973    8.5225   23.5522 H   0  0  0  0  0  0  0  0  0  0  0  0
    8.9608    7.9549   22.8804 H   0  0  0  0  0  0  0  0  0  0  0  0
    9.0059    9.1564   21.6060 H   0  0  0  0  0  0  0  0  0  0  0  0
   10.4966   13.3946   24.2856 H   0  0  0  0  0  0  0  0  0  0  0  0
  1  2  2  0  0  0  0
  1  3  1  0  0  0  0
  2  6  1  0  0  0  0
  3 13  2  0  0  0  0
  4  6  2  0  0  0  0
  4 13  1  0  0  0  0
  5  7  1  0  0  0  0
  5  8  2  0  0  0  0
  5  9  1  0  0  0  0
  6 15  1  0  0  0  0
  7 12  1  0  0  0  0
  7 14  2  0  0  0  0
  8 10  1  0  0  0  0
  8 17  1  0  0  0  0
  9 15  1  0  0  0  0
  9 16  2  0  0  0  0
 11 12  1  0  0  0  0
 14 17  1  0  0  0  0
  1 18  1  0  0  0  0
  2 19  1  0  0  0  0
  3 20  1  0  0  0  0
  4 21  1  0  0  0  0
 10 22  1  0  0  0  0
 10 23  1  0  0  0  0
 10 24  1  0  0  0  0
 11 25  1  0  0  0  0
 11 26  1  0  0  0  0
 11 27  1  0  0  0  0
 12 28  1  0  0  0  0
 12 29  1  0  0  0  0
 15 30  1  0  0  0  0
M  END
> <idnumber>
Z102264744

> <heavy_atoms>
17

> <LogS>
-1.5

> <LogP>
0.744

> <rotating_bonds>
3

> <PSA>
68.02

> <hb_acceptors>
3

> <hb_donors>
1

> <Collection>
HTS

> <link>
https://www.enaminestore.com/catalog/Z102264744

> <ROCS_ShapeQuery>
_x1140_x0812_0A_x1140_0A_x1097_0A_x0365_0A_x1097_0A_x0310_0A

> <ROCS_TanimotoCombo>
0.662 

> <ROCS_ShapeTanimoto>
0.236 

> <ROCS_ColorTanimoto>
0.426 

> <ROCS_RefTversky>
0.214 

> <ROCS_RefColorTversky>
0.564 

> <ROCS_RefTverskyCombo>
0.778 

> <ROCS_FitTversky>
1.735 

> <ROCS_FitColorTversky>
0.636 

> <ROCS_FitTverskyCombo>
2.371 

> <ROCS_ColorScore>
-4.485

> <ROCS_Overlap>
2197.168

> <ROCS_Rank>
80                  

$$$$
untitled-dbase-1084149_23
  -OEChem-02092421083D

 33 34  0     0  0  0  0  0  0999 V2000
    7.8822   12.0199   25.4626 C   0  0  0  0  0  0  0  0  0  0  0  0
    8.7387   12.6054   24.5369 C   0  0  0  0  0  0  0  0  0  0  0  0
    7.7069   10.6467   25.4060 C   0  0  0  0  0  0  0  0  0  0  0  0
    9.3846   11.8110   23.5962 C   0  0  0  0  0  0  0  0  0  0  0  0
    9.1422   10.4470   23.6232 C   0  0  0  0  0  0  0  0  0  0  0  0
   10.5738   13.7537   22.5304 C   0  0  0  0  0  0  0  0  0  0  0  0
   11.9068   15.3817   21.0619 C   0  0  0  0  0  0  0  0  0  0  0  0
   12.9000   14.4803   21.7313 C   0  0  0  0  0  0  0  0  0  0  0  0
   11.5419   13.9817   21.3967 C   0  0  0  0  0  0  0  0  0  0  0  0
   11.7466    8.6913   21.6289 C   0  0  0  0  0  0  0  0  0  0  0  0
   10.9132    7.8220   23.8416 C   0  0  0  0  0  0  0  0  0  0  0  0
   11.0981    9.0475   22.9587 C   0  0  0  0  0  0  0  0  0  0  0  0
    8.3170    9.8423   24.5069 N   0  0  0  0  0  0  0  0  0  0  0  0
   10.2436   12.3993   22.6660 N   0  0  0  0  0  0  0  0  0  0  0  0
    9.7716    9.6601   22.7036 N   0  0  0  0  0  0  0  0  0  0  0  0
   10.1708   14.6918   23.2104 O   0  0  0  0  0  0  0  0  0  0  0  0
    7.3684   12.6194   26.2053 H   0  0  0  0  0  0  0  0  0  0  0  0
    8.8944   13.6807   24.5594 H   0  0  0  0  0  0  0  0  0  0  0  0
    7.0492   10.1406   26.1050 H   0  0  0  0  0  0  0  0  0  0  0  0
   11.4995   16.2011   21.6416 H   0  0  0  0  0  0  0  0  0  0  0  0
   12.0558   15.6063   20.0128 H   0  0  0  0  0  0  0  0  0  0  0  0
   13.7182   14.0984   21.1329 H   0  0  0  0  0  0  0  0  0  0  0  0
   13.1612   14.6963   22.7602 H   0  0  0  0  0  0  0  0  0  0  0  0
   11.4263   13.2684   20.6096 H   0  0  0  0  0  0  0  0  0  0  0  0
   11.1451    7.9544   21.0868 H   0  0  0  0  0  0  0  0  0  0  0  0
   11.8613    9.5745   20.9905 H   0  0  0  0  0  0  0  0  0  0  0  0
   12.7442    8.2662   21.7847 H   0  0  0  0  0  0  0  0  0  0  0  0
   10.2971    7.0695   23.3372 H   0  0  0  0  0  0  0  0  0  0  0  0
   10.4196    8.0895   24.7816 H   0  0  0  0  0  0  0  0  0  0  0  0
   11.8740    7.3531   24.0820 H   0  0  0  0  0  0  0  0  0  0  0  0
   11.7161    9.7848   23.4828 H   0  0  0  0  0  0  0  0  0  0  0  0
   10.6924   11.7644   21.9963 H   0  0  0  0  0  0  0  0  0  0  0  0
    9.3625    9.4653   21.8167 H   0  0  0  0  0  0  0  0  0  0  0  0
  1  2  2  0  0  0  0
  1  3  1  0  0  0  0
  2  4  1  0  0  0  0
  3 13  2  0  0  0  0
  4  5  2  0  0  0  0
  4 14  1  0  0  0  0
  5 13  1  0  0  0  0
  5 15  1  0  0  0  0
  6  9  1  0  0  0  0
  6 14  1  0  0  0  0
  6 16  2  0  0  0  0
  7  8  1  0  0  0  0
  7  9  1  0  0  0  0
  8  9  1  0  0  0  0
 10 12  1  0  0  0  0
 11 12  1  0  0  0  0
 12 15  1  0  0  0  0
  1 17  1  0  0  0  0
  2 18  1  0  0  0  0
  3 19  1  0  0  0  0
  7 20  1  0  0  0  0
  7 21  1  0  0  0  0
  8 22  1  0  0  0  0
  8 23  1  0  0  0  0
  9 24  1  0  0  0  0
 10 25  1  0  0  0  0
 10 26  1  0  0  0  0
 10 27  1  0  0  0  0
 11 28  1  0  0  0  0
 11 29  1  0  0  0  0
 11 30  1  0  0  0  0
 12 31  1  0  0  0  0
 14 32  1  0  0  0  0
 15 33  1  0  0  0  0
M  END
> <idnumber>
Z4351154733

> <heavy_atoms>
16

> <LogS>
-2.135

> <LogP>
2.385

> <rotating_bonds>
4

> <PSA>
54.02

> <hb_acceptors>
3

> <hb_donors>
2

> <Collection>
Advanced

> <link>
https://www.enaminestore.com/catalog/Z4351154733

> <ROCS_ShapeQuery>
_x1140_x0812_0A_x1140_0A_x1097_0A_x0365_0A_x1097_0A_x0310_0A

> <ROCS_TanimotoCombo>
0.662 

> <ROCS_ShapeTanimoto>
0.229 

> <ROCS_ColorTanimoto>
0.433 

> <ROCS_RefTversky>
0.208 

> <ROCS_RefColorTversky>
0.535 

> <ROCS_RefTverskyCombo>
0.744 

> <ROCS_FitTversky>
1.775 

> <ROCS_FitColorTversky>
0.693 

> <ROCS_FitTverskyCombo>
2.468 

> <ROCS_ColorScore>
-4.230

> <ROCS_Overlap>
2134.939

> <ROCS_Rank>
81                  

$$$$
untitled-dbase-1140153_46
  -OEChem-02092421083D

 29 29  0     0  0  0  0  0  0999 V2000
    9.6086   11.6110   24.1318 C   0  0  0  0  0  0  0  0  0  0  0  0
    7.3081   10.6815   25.2672 C   0  0  0  0  0  0  0  0  0  0  0  0
    8.8187   12.4772   24.8795 C   0  0  0  0  0  0  0  0  0  0  0  0
    7.6449   12.0114   25.4614 C   0  0  0  0  0  0  0  0  0  0  0  0
    9.1840   10.2990   23.9973 C   0  0  0  0  0  0  0  0  0  0  0  0
    9.2304   13.8993   25.0554 C   0  0  0  0  0  0  0  0  0  0  0  0
    8.7020   13.1650   20.2341 C   0  0  0  0  0  0  0  0  0  0  0  0
   11.2105    9.8549   22.6110 C   0  0  0  0  0  0  0  0  0  0  0  0
    9.6794   12.0227   20.0564 C   0  0  0  0  0  0  0  0  0  0  0  0
   10.9103   10.3980   21.2259 C   0  0  0  0  0  0  0  0  0  0  0  0
    8.0501    9.8101   24.5476 N   0  0  0  0  0  0  0  0  0  0  0  0
    9.9986    9.4285   23.2309 N   0  0  0  0  0  0  0  0  0  0  0  0
    9.9925   11.4789   21.3313 O   0  0  0  0  0  0  0  0  0  0  0  0
    6.8599   12.8151   26.1889 F   0  0  0  0  0  0  0  0  0  0  0  0
   10.5286   11.9575   23.6708 H   0  0  0  0  0  0  0  0  0  0  0  0
    6.4026   10.2694   25.7001 H   0  0  0  0  0  0  0  0  0  0  0  0
    8.8140   14.5200   24.2524 H   0  0  0  0  0  0  0  0  0  0  0  0
    8.8849   14.2985   26.0180 H   0  0  0  0  0  0  0  0  0  0  0  0
   10.3235   14.0024   25.0433 H   0  0  0  0  0  0  0  0  0  0  0  0
    7.7767   12.8177   20.7021 H   0  0  0  0  0  0  0  0  0  0  0  0
    9.1385   13.9533   20.8562 H   0  0  0  0  0  0  0  0  0  0  0  0
    8.4600   13.6196   19.2677 H   0  0  0  0  0  0  0  0  0  0  0  0
   11.8907    8.9986   22.5627 H   0  0  0  0  0  0  0  0  0  0  0  0
   11.6582   10.6331   23.2365 H   0  0  0  0  0  0  0  0  0  0  0  0
   10.6025   12.3769   19.5879 H   0  0  0  0  0  0  0  0  0  0  0  0
    9.2414   11.2357   19.4354 H   0  0  0  0  0  0  0  0  0  0  0  0
   10.4472    9.6203   20.6108 H   0  0  0  0  0  0  0  0  0  0  0  0
   11.8179   10.7540   20.7277 H   0  0  0  0  0  0  0  0  0  0  0  0
    9.6825    8.4848   23.1392 H   0  0  0  0  0  0  0  0  0  0  0  0
  1  3  2  0  0  0  0
  1  5  1  0  0  0  0
  2  4  2  0  0  0  0
  2 11  1  0  0  0  0
  3  4  1  0  0  0  0
  3  6  1  0  0  0  0
  4 14  1  0  0  0  0
  5 11  2  0  0  0  0
  5 12  1  0  0  0  0
  7  9  1  0  0  0  0
  8 10  1  0  0  0  0
  8 12  1  0  0  0  0
  9 13  1  0  0  0  0
 10 13  1  0  0  0  0
  1 15  1  0  0  0  0
  2 16  1  0  0  0  0
  6 17  1  0  0  0  0
  6 18  1  0  0  0  0
  6 19  1  0  0  0  0
  7 20  1  0  0  0  0
  7 21  1  0  0  0  0
  7 22  1  0  0  0  0
  8 23  1  0  0  0  0
  8 24  1  0  0  0  0
  9 25  1  0  0  0  0
  9 26  1  0  0  0  0
 10 27  1  0  0  0  0
 10 28  1  0  0  0  0
 12 29  1  0  0  0  0
M  END
> <idnumber>
Z6443640677

> <heavy_atoms>
14

> <LogS>
-1.668

> <LogP>
2.277

> <rotating_bonds>
5

> <PSA>
34.15

> <hb_acceptors>
3

> <hb_donors>
1

> <Collection>
Advanced

> <link>
https://www.enaminestore.com/catalog/Z6443640677

> <ROCS_ShapeQuery>
_x1140_x0812_0A_x1140_0A_x1097_0A_x0365_0A_x1097_0A_x0310_0A

> <ROCS_TanimotoCombo>
0.662 

> <ROCS_ShapeTanimoto>
0.206 

> <ROCS_ColorTanimoto>
0.456 

> <ROCS_RefTversky>
0.189 

> <ROCS_RefColorTversky>
0.482 

> <ROCS_RefTverskyCombo>
0.671 

> <ROCS_FitTversky>
1.756 

> <ROCS_FitColorTversky>
0.895 

> <ROCS_FitTverskyCombo>
2.651 

> <ROCS_ColorScore>
-3.758

> <ROCS_Overlap>
1938.476

> <ROCS_Rank>
82                  

$$$$
untitled-dbase-1139574_194
  -OEChem-02092421083D

 39 40  0     1  0  0  0  0  0999 V2000
    8.6275   12.5863   23.8005 C   0  0  0  0  0  0  0  0  0  0  0  0
    9.3720   11.5212   23.3059 C   0  0  0  0  0  0  0  0  0  0  0  0
    7.7330   12.3766   24.8441 C   0  0  0  0  0  0  0  0  0  0  0  0
    9.1866   10.2761   23.8847 C   0  0  0  0  0  0  0  0  0  0  0  0
    7.6208   11.0932   25.3540 C   0  0  0  0  0  0  0  0  0  0  0  0
   10.3161   11.7527   22.2058 C   0  0  0  0  0  0  0  0  0  0  0  0
   12.0406   15.1510   22.8174 C   0  0  0  0  0  0  0  0  0  0  0  0
   13.5075   12.9311   21.1770 C   0  0  0  0  0  0  0  0  0  0  0  0
   14.0186   13.7333   22.3747 C   0  0  0  0  0  0  0  0  0  0  0  0
   12.7176   11.7102   21.6306 C   0  0  0  0  0  0  0  0  0  0  0  0
   12.0494   12.8402   23.7282 C   0  0  0  0  0  0  0  0  0  0  0  0
   12.9195   14.0479   23.3871 C   0  0  2  0  0  0  0  0  0  0  0  0
    9.4732   14.9049   20.3145 C   0  0  0  0  0  0  0  0  0  0  0  0
   10.0795   15.5275   21.5540 C   0  0  0  0  0  0  0  0  0  0  0  0
    8.3271   10.0337   24.8997 N   0  0  0  0  0  0  0  0  0  0  0  0
   11.6311   12.1004   22.5274 N   0  0  0  0  0  0  0  0  0  0  0  0
    9.9428    9.1856   23.3867 N   0  0  0  0  0  0  0  0  0  0  0  0
    9.8674   11.6165   21.0686 O   0  0  0  0  0  0  0  0  0  0  0  0
   12.2636   16.3459   22.9574 O   0  0  0  0  0  0  0  0  0  0  0  0
   10.9923   14.5968   22.1443 O   0  0  0  0  0  0  0  0  0  0  0  0
    6.8203   13.7076   25.4443 Cl  0  0  0  0  0  0  0  0  0  0  0  0
    6.5553   10.6849   26.6442 Cl  0  0  0  0  0  0  0  0  0  0  0  0
    8.7481   13.5782   23.3705 H   0  0  0  0  0  0  0  0  0  0  0  0
   12.8749   13.5658   20.5446 H   0  0  0  0  0  0  0  0  0  0  0  0
   14.3564   12.6140   20.5607 H   0  0  0  0  0  0  0  0  0  0  0  0
   14.8000   13.1485   22.8770 H   0  0  0  0  0  0  0  0  0  0  0  0
   14.4939   14.6549   22.0176 H   0  0  0  0  0  0  0  0  0  0  0  0
   12.3259   11.1774   20.7581 H   0  0  0  0  0  0  0  0  0  0  0  0
   13.3634   11.0134   22.1779 H   0  0  0  0  0  0  0  0  0  0  0  0
   12.6237   12.1337   24.3402 H   0  0  0  0  0  0  0  0  0  0  0  0
   11.1861   13.1510   24.3232 H   0  0  0  0  0  0  0  0  0  0  0  0
   13.3598   14.4526   24.2875 H   0  0  0  0  0  0  0  0  0  0  0  0
   10.2472   14.6624   19.5811 H   0  0  0  0  0  0  0  0  0  0  0  0
    8.9283   13.9899   20.5691 H   0  0  0  0  0  0  0  0  0  0  0  0
    8.7513   15.5873   19.8536 H   0  0  0  0  0  0  0  0  0  0  0  0
    9.3001   15.7676   22.2833 H   0  0  0  0  0  0  0  0  0  0  0  0
   10.6241   16.4411   21.2976 H   0  0  0  0  0  0  0  0  0  0  0  0
   10.5470    9.3350   22.6085 H   0  0  0  0  0  0  0  0  0  0  0  0
    9.7825    8.2773   23.7643 H   0  0  0  0  0  0  0  0  0  0  0  0
  1  2  1  0  0  0  0
  1  3  2  0  0  0  0
  2  4  2  0  0  0  0
  2  6  1  0  0  0  0
  3  5  1  0  0  0  0
  3 21  1  0  0  0  0
  4 15  1  0  0  0  0
  4 17  1  0  0  0  0
  5 15  2  0  0  0  0
  5 22  1  0  0  0  0
  6 16  1  0  0  0  0
  6 18  2  0  0  0  0
  7 12  1  6  0  0  0
  7 19  2  0  0  0  0
  7 20  1  0  0  0  0
  8  9  1  0  0  0  0
  8 10  1  0  0  0  0
  9 12  1  0  0  0  0
 10 16  1  0  0  0  0
 11 12  1  0  0  0  0
 11 16  1  0  0  0  0
 13 14  1  0  0  0  0
 14 20  1  0  0  0  0
  1 23  1  0  0  0  0
  8 24  1  0  0  0  0
  8 25  1  0  0  0  0
  9 26  1  0  0  0  0
  9 27  1  0  0  0  0
 10 28  1  0  0  0  0
 10 29  1  0  0  0  0
 11 30  1  0  0  0  0
 11 31  1  0  0  0  0
 12 32  1  0  0  0  0
 13 33  1  0  0  0  0
 13 34  1  0  0  0  0
 13 35  1  0  0  0  0
 14 36  1  0  0  0  0
 14 37  1  0  0  0  0
 17 38  1  0  0  0  0
 17 39  1  0  0  0  0
M  END
> <idnumber>
Z6375138534

> <heavy_atoms>
22

> <LogS>
-4.335

> <LogP>
2.181

> <rotating_bonds>
4

> <PSA>
85.52

> <hb_acceptors>
4

> <hb_donors>
1

> <Collection>
Advanced

> <link>
https://www.enaminestore.com/catalog/Z6375138534

> <ROCS_ShapeQuery>
_x1140_x0812_0A_x1140_0A_x1097_0A_x0365_0A_x1097_0A_x0310_0A

> <ROCS_TanimotoCombo>
0.661 

> <ROCS_ShapeTanimoto>
0.265 

> <ROCS_ColorTanimoto>
0.397 

> <ROCS_RefTversky>
0.239 

> <ROCS_RefColorTversky>
0.536 

> <ROCS_RefTverskyCombo>
0.775 

> <ROCS_FitTversky>
1.694 

> <ROCS_FitColorTversky>
0.604 

> <ROCS_FitTverskyCombo>
2.298 

> <ROCS_ColorScore>
-4.261

> <ROCS_Overlap>
2453.889

> <ROCS_Rank>
83                  

$$$$
untitled-dbase-61477_16
  -OEChem-02092421083D

 32 32  0     0  0  0  0  0  0999 V2000
    7.7125   12.0183   25.3297 C   0  0  0  0  0  0  0  0  0  0  0  0
    8.5504   12.5257   24.3430 C   0  0  0  0  0  0  0  0  0  0  0  0
    7.6246   10.6418   25.4610 C   0  0  0  0  0  0  0  0  0  0  0  0
    9.2648   11.6535   23.5292 C   0  0  0  0  0  0  0  0  0  0  0  0
    9.1076   10.2933   23.7413 C   0  0  0  0  0  0  0  0  0  0  0  0
   10.1360   12.1948   22.4952 C   0  0  0  0  0  0  0  0  0  0  0  0
   12.0868    9.1801   23.7921 C   0  0  0  0  0  0  0  0  0  0  0  0
   10.9755    7.3357   22.4847 C   0  0  0  0  0  0  0  0  0  0  0  0
   11.7077   14.0812   21.9971 C   0  0  0  0  0  0  0  0  0  0  0  0
   11.8579   12.9196   24.1712 C   0  0  0  0  0  0  0  0  0  0  0  0
   10.7806    8.4589   23.4926 C   0  0  0  0  0  0  0  0  0  0  0  0
    8.3030    9.7631   24.6895 N   0  0  0  0  0  0  0  0  0  0  0  0
    9.8034    9.4312   22.9452 N   0  0  0  0  0  0  0  0  0  0  0  0
   11.1967   13.0365   22.8733 N   0  0  0  0  0  0  0  0  0  0  0  0
    9.8918   11.8639   21.3283 O   0  0  0  0  0  0  0  0  0  0  0  0
    7.1448   12.6795   25.9743 H   0  0  0  0  0  0  0  0  0  0  0  0
    8.6382   13.6017   24.2175 H   0  0  0  0  0  0  0  0  0  0  0  0
    6.9848   10.1958   26.2155 H   0  0  0  0  0  0  0  0  0  0  0  0
   12.5196    9.5988   22.8778 H   0  0  0  0  0  0  0  0  0  0  0  0
   11.9373    9.9987   24.5050 H   0  0  0  0  0  0  0  0  0  0  0  0
   12.8188    8.4924   24.2297 H   0  0  0  0  0  0  0  0  0  0  0  0
   11.3896    7.7228   21.5473 H   0  0  0  0  0  0  0  0  0  0  0  0
   10.0229    6.8458   22.2577 H   0  0  0  0  0  0  0  0  0  0  0  0
   11.6689    6.5755   22.8615 H   0  0  0  0  0  0  0  0  0  0  0  0
   11.1588   15.0164   22.1818 H   0  0  0  0  0  0  0  0  0  0  0  0
   12.7775   14.2381   22.1989 H   0  0  0  0  0  0  0  0  0  0  0  0
   11.5730   13.7782   20.9482 H   0  0  0  0  0  0  0  0  0  0  0  0
   12.7017   12.2185   24.0916 H   0  0  0  0  0  0  0  0  0  0  0  0
   12.2297   13.9067   24.4834 H   0  0  0  0  0  0  0  0  0  0  0  0
   11.1398   12.5460   24.9160 H   0  0  0  0  0  0  0  0  0  0  0  0
   10.3664    8.0489   24.4202 H   0  0  0  0  0  0  0  0  0  0  0  0
    9.6827    9.4214   21.9566 H   0  0  0  0  0  0  0  0  0  0  0  0
  1  2  2  0  0  0  0
  1  3  1  0  0  0  0
  2  4  1  0  0  0  0
  3 12  2  0  0  0  0
  4  5  2  0  0  0  0
  4  6  1  0  0  0  0
  5 12  1  0  0  0  0
  5 13  1  0  0  0  0
  6 14  1  0  0  0  0
  6 15  2  0  0  0  0
  7 11  1  0  0  0  0
  8 11  1  0  0  0  0
  9 14  1  0  0  0  0
 10 14  1  0  0  0  0
 11 13  1  0  0  0  0
  1 16  1  0  0  0  0
  2 17  1  0  0  0  0
  3 18  1  0  0  0  0
  7 19  1  0  0  0  0
  7 20  1  0  0  0  0
  7 21  1  0  0  0  0
  8 22  1  0  0  0  0
  8 23  1  0  0  0  0
  8 24  1  0  0  0  0
  9 25  1  0  0  0  0
  9 26  1  0  0  0  0
  9 27  1  0  0  0  0
 10 28  1  0  0  0  0
 10 29  1  0  0  0  0
 10 30  1  0  0  0  0
 11 31  1  0  0  0  0
 13 32  1  0  0  0  0
M  END
> <idnumber>
Z1230130478

> <heavy_atoms>
15

> <LogS>
-1.495

> <LogP>
0.901

> <rotating_bonds>
3

> <PSA>
45.23

> <hb_acceptors>
3

> <hb_donors>
1

> <Collection>
HTS

> <link>
https://www.enaminestore.com/catalog/Z1230130478

> <ROCS_ShapeQuery>
_x1140_x0812_0A_x1140_0A_x1097_0A_x0365_0A_x1097_0A_x0310_0A

> <ROCS_TanimotoCombo>
0.661 

> <ROCS_ShapeTanimoto>
0.240 

> <ROCS_ColorTanimoto>
0.421 

> <ROCS_RefTversky>
0.216 

> <ROCS_RefColorTversky>
0.491 

> <ROCS_RefTverskyCombo>
0.706 

> <ROCS_FitTversky>
1.914 

> <ROCS_FitColorTversky>
0.748 

> <ROCS_FitTverskyCombo>
2.662 

> <ROCS_ColorScore>
-3.852

> <ROCS_Overlap>
2210.136

> <ROCS_Rank>
84                  

$$$$
untitled-dbase-318047_11
  -OEChem-02092421083D

 27 27  0     0  0  0  0  0  0999 V2000
   11.9221   15.2956   22.2914 C   0  0  0  0  0  0  0  0  0  0  0  0
    8.5110   12.4408   24.4833 C   0  0  0  0  0  0  0  0  0  0  0  0
    7.7331   11.8916   25.4965 C   0  0  0  0  0  0  0  0  0  0  0  0
    8.8842   10.2445   23.6505 C   0  0  0  0  0  0  0  0  0  0  0  0
    9.1011   11.6084   23.5388 C   0  0  0  0  0  0  0  0  0  0  0  0
    7.5772   10.5150   25.5205 C   0  0  0  0  0  0  0  0  0  0  0  0
    9.9174   12.1525   22.4678 C   0  0  0  0  0  0  0  0  0  0  0  0
    6.1728   10.8406   27.5408 C   0  0  0  0  0  0  0  0  0  0  0  0
    6.5660    8.5430   26.6380 C   0  0  0  0  0  0  0  0  0  0  0  0
   11.3886   14.0504   21.7422 C   0  0  0  0  0  0  0  0  0  0  0  0
   12.3477   16.2845   22.7244 N   0  0  0  0  0  0  0  0  0  0  0  0
    8.1347    9.6743   24.6205 N   0  0  0  0  0  0  0  0  0  0  0  0
   10.5622   13.3713   22.7141 N   0  0  0  0  0  0  0  0  0  0  0  0
    6.7828    9.9707   26.5600 N   0  0  0  0  0  0  0  0  0  0  0  0
   10.0111   11.5579   21.3782 O   0  0  0  0  0  0  0  0  0  0  0  0
    8.6520   13.5173   24.4402 H   0  0  0  0  0  0  0  0  0  0  0  0
    7.2684   12.5338   26.2378 H   0  0  0  0  0  0  0  0  0  0  0  0
    9.3184    9.5438   22.9436 H   0  0  0  0  0  0  0  0  0  0  0  0
    5.5999   10.2376   28.2607 H   0  0  0  0  0  0  0  0  0  0  0  0
    6.9566   11.3996   28.0728 H   0  0  0  0  0  0  0  0  0  0  0  0
    5.4978   11.5467   27.0351 H   0  0  0  0  0  0  0  0  0  0  0  0
    5.9289    8.3152   27.5053 H   0  0  0  0  0  0  0  0  0  0  0  0
    6.0712    8.1966   25.7187 H   0  0  0  0  0  0  0  0  0  0  0  0
    7.5332    8.0309   26.7491 H   0  0  0  0  0  0  0  0  0  0  0  0
   10.7719   14.2413   20.8593 H   0  0  0  0  0  0  0  0  0  0  0  0
   12.1946   13.3676   21.4588 H   0  0  0  0  0  0  0  0  0  0  0  0
   10.4024   13.8463   23.5965 H   0  0  0  0  0  0  0  0  0  0  0  0
  1 10  1  0  0  0  0
  1 11  3  0  0  0  0
  2  3  2  0  0  0  0
  2  5  1  0  0  0  0
  3  6  1  0  0  0  0
  4  5  2  0  0  0  0
  4 12  1  0  0  0  0
  5  7  1  0  0  0  0
  6 12  2  0  0  0  0
  6 14  1  0  0  0  0
  7 13  1  0  0  0  0
  7 15  2  0  0  0  0
  8 14  1  0  0  0  0
  9 14  1  0  0  0  0
 10 13  1  0  0  0  0
  2 16  1  0  0  0  0
  3 17  1  0  0  0  0
  4 18  1  0  0  0  0
  8 19  1  0  0  0  0
  8 20  1  0  0  0  0
  8 21  1  0  0  0  0
  9 22  1  0  0  0  0
  9 23  1  0  0  0  0
  9 24  1  0  0  0  0
 10 25  1  0  0  0  0
 10 26  1  0  0  0  0
 13 27  1  0  0  0  0
M  END
> <idnumber>
Z979002168

> <heavy_atoms>
15

> <LogS>
-1.316

> <LogP>
0.192

> <rotating_bonds>
3

> <PSA>
69.02

> <hb_acceptors>
4

> <hb_donors>
1

> <Collection>
Functional

> <link>
https://www.enaminestore.com/catalog/Z979002168

> <ROCS_ShapeQuery>
_x1140_x0812_0A_x1140_0A_x1097_0A_x0365_0A_x1097_0A_x0310_0A

> <ROCS_TanimotoCombo>
0.661 

> <ROCS_ShapeTanimoto>
0.221 

> <ROCS_ColorTanimoto>
0.440 

> <ROCS_RefTversky>
0.201 

> <ROCS_RefColorTversky>
0.506 

> <ROCS_RefTverskyCombo>
0.708 

> <ROCS_FitTversky>
1.784 

> <ROCS_FitColorTversky>
0.772 

> <ROCS_FitTverskyCombo>
2.556 

> <ROCS_ColorScore>
-3.974

> <ROCS_Overlap>
2064.781

> <ROCS_Rank>
85                  

$$$$
untitled-dbase-461457_126
  -OEChem-02092421083D

 31 32  0     0  0  0  0  0  0999 V2000
    7.2051   11.8729   24.9569 C   0  0  0  0  0  0  0  0  0  0  0  0
    8.0336   12.3152   23.9316 C   0  0  0  0  0  0  0  0  0  0  0  0
    7.3396   10.5600   25.3788 C   0  0  0  0  0  0  0  0  0  0  0  0
   12.3152   15.0065   24.6197 C   0  0  0  0  0  0  0  0  0  0  0  0
    8.9582   11.4434   23.3675 C   0  0  0  0  0  0  0  0  0  0  0  0
   12.5340   15.2086   23.2730 C   0  0  0  0  0  0  0  0  0  0  0  0
    9.0144   10.1497   23.8606 C   0  0  0  0  0  0  0  0  0  0  0  0
   12.1894   17.2914   23.8673 C   0  0  0  0  0  0  0  0  0  0  0  0
    9.8277   11.8988   22.2939 C   0  0  0  0  0  0  0  0  0  0  0  0
   12.0351   18.7605   23.7915 C   0  0  0  0  0  0  0  0  0  0  0  0
   12.8387   14.1337   22.2587 C   0  0  0  0  0  0  0  0  0  0  0  0
   11.5839   13.5522   21.6119 C   0  0  0  0  0  0  0  0  0  0  0  0
    8.2260    9.6839   24.8552 N   0  0  0  0  0  0  0  0  0  0  0  0
   12.4619   16.5181   22.8397 N   0  0  0  0  0  0  0  0  0  0  0  0
   10.6797   12.9720   22.5787 N   0  0  0  0  0  0  0  0  0  0  0  0
    9.7846   11.3581   21.1747 O   0  0  0  0  0  0  0  0  0  0  0  0
    9.9118    9.2583   23.3320 O   0  0  0  0  0  0  0  0  0  0  0  0
   12.0076   16.5104   25.3845 S   0  0  0  0  0  0  0  0  0  0  0  0
    6.4777   12.5349   25.4129 H   0  0  0  0  0  0  0  0  0  0  0  0
    7.9502   13.3402   23.5802 H   0  0  0  0  0  0  0  0  0  0  0  0
    6.7178   10.1658   26.1759 H   0  0  0  0  0  0  0  0  0  0  0  0
   12.3211   14.0797   25.1758 H   0  0  0  0  0  0  0  0  0  0  0  0
   10.9882   19.0370   23.5911 H   0  0  0  0  0  0  0  0  0  0  0  0
   12.3417   19.2546   24.7279 H   0  0  0  0  0  0  0  0  0  0  0  0
   12.6585   19.1983   22.9947 H   0  0  0  0  0  0  0  0  0  0  0  0
   13.3942   13.3304   22.7591 H   0  0  0  0  0  0  0  0  0  0  0  0
   13.5115   14.5309   21.4879 H   0  0  0  0  0  0  0  0  0  0  0  0
   11.0297   14.3427   21.0962 H   0  0  0  0  0  0  0  0  0  0  0  0
   11.8294   12.7747   20.8810 H   0  0  0  0  0  0  0  0  0  0  0  0
   10.6297   13.4173   23.4891 H   0  0  0  0  0  0  0  0  0  0  0  0
   10.4238    9.6866   22.6322 H   0  0  0  0  0  0  0  0  0  0  0  0
  1  2  2  0  0  0  0
  1  3  1  0  0  0  0
  2  5  1  0  0  0  0
  3 13  2  0  0  0  0
  4  6  2  0  0  0  0
  4 18  1  0  0  0  0
  5  7  2  0  0  0  0
  5  9  1  0  0  0  0
  6 11  1  0  0  0  0
  6 14  1  0  0  0  0
  7 13  1  0  0  0  0
  7 17  1  0  0  0  0
  8 10  1  0  0  0  0
  8 14  2  0  0  0  0
  8 18  1  0  0  0  0
  9 15  1  0  0  0  0
  9 16  2  0  0  0  0
 11 12  1  0  0  0  0
 12 15  1  0  0  0  0
  1 19  1  0  0  0  0
  2 20  1  0  0  0  0
  3 21  1  0  0  0  0
  4 22  1  0  0  0  0
 10 23  1  0  0  0  0
 10 24  1  0  0  0  0
 10 25  1  0  0  0  0
 11 26  1  0  0  0  0
 11 27  1  0  0  0  0
 12 28  1  0  0  0  0
 12 29  1  0  0  0  0
 15 30  1  0  0  0  0
 17 31  1  0  0  0  0
M  END
> <idnumber>
Z243543248

> <heavy_atoms>
18

> <LogS>
-1.479

> <LogP>
2.337

> <rotating_bonds>
4

> <PSA>
75.11

> <hb_acceptors>
4

> <hb_donors>
2

> <Collection>
Legacy

> <link>
https://www.enaminestore.com/catalog/Z243543248

> <ROCS_ShapeQuery>
_x1140_x0812_0A_x1140_0A_x1097_0A_x0365_0A_x1097_0A_x0310_0A

> <ROCS_TanimotoCombo>
0.660 

> <ROCS_ShapeTanimoto>
0.224 

> <ROCS_ColorTanimoto>
0.436 

> <ROCS_RefTversky>
0.206 

> <ROCS_RefColorTversky>
0.608 

> <ROCS_RefTverskyCombo>
0.814 

> <ROCS_FitTversky>
1.643 

> <ROCS_FitColorTversky>
0.607 

> <ROCS_FitTverskyCombo>
2.250 

> <ROCS_ColorScore>
-4.861

> <ROCS_Overlap>
2115.797

> <ROCS_Rank>
86                  

$$$$
untitled-dbase-1079944_25
  -OEChem-02092421083D

 31 32  0     0  0  0  0  0  0999 V2000
    8.4780   12.4869   24.3668 C   0  0  0  0  0  0  0  0  0  0  0  0
    9.0355   10.2571   23.6970 C   0  0  0  0  0  0  0  0  0  0  0  0
    5.7962   11.3353   26.5627 C   0  0  0  0  0  0  0  0  0  0  0  0
    7.4775   11.9225   25.1744 C   0  0  0  0  0  0  0  0  0  0  0  0
    9.2707   11.6229   23.6135 C   0  0  0  0  0  0  0  0  0  0  0  0
    6.4880   12.4182   26.0642 C   0  0  0  0  0  0  0  0  0  0  0  0
    7.3512   10.5365   25.1629 C   0  0  0  0  0  0  0  0  0  0  0  0
   10.3230   12.1438   22.7579 C   0  0  0  0  0  0  0  0  0  0  0  0
   11.3651   15.2389   22.8167 C   0  0  0  0  0  0  0  0  0  0  0  0
    6.2374   13.8339   26.4008 C   0  0  0  0  0  0  0  0  0  0  0  0
   11.8078   12.6741   24.7069 C   0  0  0  0  0  0  0  0  0  0  0  0
   12.0743   13.9370   22.6015 C   0  0  0  0  0  0  0  0  0  0  0  0
    8.0883    9.6588   24.4562 N   0  0  0  0  0  0  0  0  0  0  0  0
    6.3283   10.1995   26.0097 N   0  0  0  0  0  0  0  0  0  0  0  0
   11.3656   12.8918   23.3367 N   0  0  0  0  0  0  0  0  0  0  0  0
   10.2465   11.8833   21.5492 O   0  0  0  0  0  0  0  0  0  0  0  0
   10.1726   15.3885   23.0373 O   0  0  0  0  0  0  0  0  0  0  0  0
   12.2488   16.2669   22.7328 O   0  0  0  0  0  0  0  0  0  0  0  0
    8.6275   13.5617   24.3309 H   0  0  0  0  0  0  0  0  0  0  0  0
    9.6392    9.5602   23.1200 H   0  0  0  0  0  0  0  0  0  0  0  0
    4.9730   11.2701   27.2610 H   0  0  0  0  0  0  0  0  0  0  0  0
    6.8371   14.1470   27.2709 H   0  0  0  0  0  0  0  0  0  0  0  0
    6.4842   14.5078   25.5630 H   0  0  0  0  0  0  0  0  0  0  0  0
    5.1765   14.0202   26.6398 H   0  0  0  0  0  0  0  0  0  0  0  0
   12.6071   11.9185   24.7192 H   0  0  0  0  0  0  0  0  0  0  0  0
   12.1894   13.6181   25.1233 H   0  0  0  0  0  0  0  0  0  0  0  0
   10.9608   12.3216   25.3138 H   0  0  0  0  0  0  0  0  0  0  0  0
   12.0699   13.6877   21.5371 H   0  0  0  0  0  0  0  0  0  0  0  0
   13.0990   14.0055   22.9758 H   0  0  0  0  0  0  0  0  0  0  0  0
    6.0141    9.2573   26.1965 H   0  0  0  0  0  0  0  0  0  0  0  0
   11.8136   17.1353   22.8701 H   0  0  0  0  0  0  0  0  0  0  0  0
  1  4  1  0  0  0  0
  1  5  2  0  0  0  0
  2  5  1  0  0  0  0
  2 13  2  0  0  0  0
  3  6  2  0  0  0  0
  3 14  1  0  0  0  0
  4  6  1  0  0  0  0
  4  7  2  0  0  0  0
  5  8  1  0  0  0  0
  6 10  1  0  0  0  0
  7 13  1  0  0  0  0
  7 14  1  0  0  0  0
  8 15  1  0  0  0  0
  8 16  2  0  0  0  0
  9 12  1  0  0  0  0
  9 17  2  0  0  0  0
  9 18  1  0  0  0  0
 11 15  1  0  0  0  0
 12 15  1  0  0  0  0
  1 19  1  0  0  0  0
  2 20  1  0  0  0  0
  3 21  1  0  0  0  0
 10 22  1  0  0  0  0
 10 23  1  0  0  0  0
 10 24  1  0  0  0  0
 11 25  1  0  0  0  0
 11 26  1  0  0  0  0
 11 27  1  0  0  0  0
 12 28  1  0  0  0  0
 12 29  1  0  0  0  0
 14 30  1  0  0  0  0
 18 31  1  0  0  0  0
M  END
> <idnumber>
Z4249644996

> <heavy_atoms>
18

> <LogS>
-2.522

> <LogP>
0.752

> <rotating_bonds>
3

> <PSA>
86.29

> <hb_acceptors>
4

> <hb_donors>
2

> <Collection>
Advanced

> <link>
https://www.enaminestore.com/catalog/Z4249644996

> <ROCS_ShapeQuery>
_x1140_x0812_0A_x1140_0A_x1097_0A_x0365_0A_x1097_0A_x0310_0A

> <ROCS_TanimotoCombo>
0.660 

> <ROCS_ShapeTanimoto>
0.276 

> <ROCS_ColorTanimoto>
0.385 

> <ROCS_RefTversky>
0.244 

> <ROCS_RefColorTversky>
0.557 

> <ROCS_RefTverskyCombo>
0.800 

> <ROCS_FitTversky>
1.901 

> <ROCS_FitColorTversky>
0.554 

> <ROCS_FitTverskyCombo>
2.455 

> <ROCS_ColorScore>
-4.454

> <ROCS_Overlap>
2502.031

> <ROCS_Rank>
87                  

$$$$
untitled-dbase-61534_59
  -OEChem-02092421083D

 30 31  0     0  0  0  0  0  0999 V2000
    7.4257   12.0124   25.0924 C   0  0  0  0  0  0  0  0  0  0  0  0
    8.2890   12.4273   24.0846 C   0  0  0  0  0  0  0  0  0  0  0  0
    7.4188   10.6680   25.4278 C   0  0  0  0  0  0  0  0  0  0  0  0
    9.1075   11.4983   23.4518 C   0  0  0  0  0  0  0  0  0  0  0  0
    9.0255   10.1770   23.8607 C   0  0  0  0  0  0  0  0  0  0  0  0
   10.0047   11.9421   22.3938 C   0  0  0  0  0  0  0  0  0  0  0  0
    7.0998    7.6453   22.5254 C   0  0  0  0  0  0  0  0  0  0  0  0
    7.7803    8.5249   21.5139 C   0  0  0  0  0  0  0  0  0  0  0  0
    8.5612    7.4558   22.2267 C   0  0  0  0  0  0  0  0  0  0  0  0
   11.9070   13.4580   21.7947 C   0  0  0  0  0  0  0  0  0  0  0  0
    9.5885    7.8271   23.2392 C   0  0  0  0  0  0  0  0  0  0  0  0
    8.1992    9.7363   24.8358 N   0  0  0  0  0  0  0  0  0  0  0  0
    9.8384    9.2425   23.2314 N   0  0  0  0  0  0  0  0  0  0  0  0
   10.9625   12.9020   22.7368 N   0  0  0  0  0  0  0  0  0  0  0  0
    9.8915   11.4896   21.2419 O   0  0  0  0  0  0  0  0  0  0  0  0
    6.7775   12.7188   25.5982 H   0  0  0  0  0  0  0  0  0  0  0  0
    8.3148   13.4761   23.8009 H   0  0  0  0  0  0  0  0  0  0  0  0
    6.7634   10.2936   26.2072 H   0  0  0  0  0  0  0  0  0  0  0  0
    6.8170    8.0910   23.4711 H   0  0  0  0  0  0  0  0  0  0  0  0
    6.4092    6.8960   22.1583 H   0  0  0  0  0  0  0  0  0  0  0  0
    7.5464    8.3652   20.4685 H   0  0  0  0  0  0  0  0  0  0  0  0
    7.9531    9.5598   21.7820 H   0  0  0  0  0  0  0  0  0  0  0  0
    8.8483    6.5793   21.6585 H   0  0  0  0  0  0  0  0  0  0  0  0
   12.8474   12.8889   21.8382 H   0  0  0  0  0  0  0  0  0  0  0  0
   11.4895   13.3988   20.7787 H   0  0  0  0  0  0  0  0  0  0  0  0
   12.1031   14.5099   22.0497 H   0  0  0  0  0  0  0  0  0  0  0  0
    9.2334    7.5317   24.2380 H   0  0  0  0  0  0  0  0  0  0  0  0
   10.5258    7.2968   23.0128 H   0  0  0  0  0  0  0  0  0  0  0  0
   10.6587    9.5863   22.7383 H   0  0  0  0  0  0  0  0  0  0  0  0
   10.9696   13.2835   23.6771 H   0  0  0  0  0  0  0  0  0  0  0  0
  1  2  2  0  0  0  0
  1  3  1  0  0  0  0
  2  4  1  0  0  0  0
  3 12  2  0  0  0  0
  4  5  2  0  0  0  0
  4  6  1  0  0  0  0
  5 12  1  0  0  0  0
  5 13  1  0  0  0  0
  6 14  1  0  0  0  0
  6 15  2  0  0  0  0
  7  8  1  0  0  0  0
  7  9  1  0  0  0  0
  8  9  1  0  0  0  0
  9 11  1  0  0  0  0
 10 14  1  0  0  0  0
 11 13  1  0  0  0  0
  1 16  1  0  0  0  0
  2 17  1  0  0  0  0
  3 18  1  0  0  0  0
  7 19  1  0  0  0  0
  7 20  1  0  0  0  0
  8 21  1  0  0  0  0
  8 22  1  0  0  0  0
  9 23  1  0  0  0  0
 10 24  1  0  0  0  0
 10 25  1  0  0  0  0
 10 26  1  0  0  0  0
 11 27  1  0  0  0  0
 11 28  1  0  0  0  0
 13 29  1  0  0  0  0
 14 30  1  0  0  0  0
M  END
> <idnumber>
Z1343189418

> <heavy_atoms>
15

> <LogS>
-1.614

> <LogP>
2.006

> <rotating_bonds>
4

> <PSA>
54.02

> <hb_acceptors>
3

> <hb_donors>
2

> <Collection>
HTS

> <link>
https://www.enaminestore.com/catalog/Z1343189418

> <ROCS_ShapeQuery>
_x1140_x0812_0A_x1140_0A_x1097_0A_x0365_0A_x1097_0A_x0310_0A

> <ROCS_TanimotoCombo>
0.660 

> <ROCS_ShapeTanimoto>
0.224 

> <ROCS_ColorTanimoto>
0.437 

> <ROCS_RefTversky>
0.203 

> <ROCS_RefColorTversky>
0.503 

> <ROCS_RefTverskyCombo>
0.707 

> <ROCS_FitTversky>
1.798 

> <ROCS_FitColorTversky>
0.767 

> <ROCS_FitTverskyCombo>
2.565 

> <ROCS_ColorScore>
-3.951

> <ROCS_Overlap>
2086.476

> <ROCS_Rank>
88                  

$$$$
untitled-dbase-1133387_48
  -OEChem-02092421083D

 37 40  0     0  0  0  0  0  0999 V2000
   14.5187   15.5963   23.4042 C   0  0  0  0  0  0  0  0  0  0  0  0
   13.8755   14.5059   22.8454 C   0  0  0  0  0  0  0  0  0  0  0  0
    8.5919   12.3443   24.3292 C   0  0  0  0  0  0  0  0  0  0  0  0
    6.9402   12.4365   26.3564 C   0  0  0  0  0  0  0  0  0  0  0  0
   13.8209   16.7843   23.4892 C   0  0  0  0  0  0  0  0  0  0  0  0
    8.6864   10.1097   23.4754 C   0  0  0  0  0  0  0  0  0  0  0  0
    7.6747   11.8703   25.2810 C   0  0  0  0  0  0  0  0  0  0  0  0
    9.1040   11.4321   23.4083 C   0  0  0  0  0  0  0  0  0  0  0  0
    6.1927   11.4286   26.9264 C   0  0  0  0  0  0  0  0  0  0  0  0
   12.5770   14.6756   22.4089 C   0  0  0  0  0  0  0  0  0  0  0  0
    7.3437   10.5192   25.2341 C   0  0  0  0  0  0  0  0  0  0  0  0
   10.0567   11.8590   22.3978 C   0  0  0  0  0  0  0  0  0  0  0  0
    3.8025   11.1315   27.9610 C   0  0  0  0  0  0  0  0  0  0  0  0
    4.1274   12.5899   28.0491 C   0  0  0  0  0  0  0  0  0  0  0  0
    5.2462   11.5684   28.1161 C   0  0  0  0  0  0  0  0  0  0  0  0
   11.8331   13.5243   21.7963 C   0  0  0  0  0  0  0  0  0  0  0  0
    7.8077    9.5981   24.3685 N   0  0  0  0  0  0  0  0  0  0  0  0
   12.5506   16.9217   23.0538 N   0  0  0  0  0  0  0  0  0  0  0  0
   11.9183   15.8499   22.5049 N   0  0  0  0  0  0  0  0  0  0  0  0
    6.4454   10.2704   26.2382 N   0  0  0  0  0  0  0  0  0  0  0  0
   10.8571   12.9664   22.7046 N   0  0  0  0  0  0  0  0  0  0  0  0
   10.1287   11.2666   21.3057 O   0  0  0  0  0  0  0  0  0  0  0  0
   15.5383   15.5195   23.7638 H   0  0  0  0  0  0  0  0  0  0  0  0
   14.3844   13.5520   22.7570 H   0  0  0  0  0  0  0  0  0  0  0  0
    8.8900   13.3883   24.3143 H   0  0  0  0  0  0  0  0  0  0  0  0
    6.9564   13.4692   26.6784 H   0  0  0  0  0  0  0  0  0  0  0  0
   14.2689   17.6739   23.9163 H   0  0  0  0  0  0  0  0  0  0  0  0
    9.0701    9.3769   22.7691 H   0  0  0  0  0  0  0  0  0  0  0  0
    3.3187   10.6690   28.8128 H   0  0  0  0  0  0  0  0  0  0  0  0
    3.4808   10.7446   27.0016 H   0  0  0  0  0  0  0  0  0  0  0  0
    4.0260   13.1843   27.1491 H   0  0  0  0  0  0  0  0  0  0  0  0
    3.8635   13.1126   28.9605 H   0  0  0  0  0  0  0  0  0  0  0  0
    5.6986   11.4082   29.0931 H   0  0  0  0  0  0  0  0  0  0  0  0
   11.3069   13.8430   20.8899 H   0  0  0  0  0  0  0  0  0  0  0  0
   12.5198   12.7213   21.5084 H   0  0  0  0  0  0  0  0  0  0  0  0
    6.0330    9.3698   26.4387 H   0  0  0  0  0  0  0  0  0  0  0  0
   10.7146   13.4520   23.5841 H   0  0  0  0  0  0  0  0  0  0  0  0
  1  2  2  0  0  0  0
  1  5  1  0  0  0  0
  2 10  1  0  0  0  0
  3  7  1  0  0  0  0
  3  8  2  0  0  0  0
  4  7  1  0  0  0  0
  4  9  2  0  0  0  0
  5 18  2  0  0  0  0
  6  8  1  0  0  0  0
  6 17  2  0  0  0  0
  7 11  2  0  0  0  0
  8 12  1  0  0  0  0
  9 15  1  0  0  0  0
  9 20  1  0  0  0  0
 10 16  1  0  0  0  0
 10 19  2  0  0  0  0
 11 17  1  0  0  0  0
 11 20  1  0  0  0  0
 12 21  1  0  0  0  0
 12 22  2  0  0  0  0
 13 14  1  0  0  0  0
 13 15  1  0  0  0  0
 14 15  1  0  0  0  0
 16 21  1  0  0  0  0
 18 19  1  0  0  0  0
  1 23  1  0  0  0  0
  2 24  1  0  0  0  0
  3 25  1  0  0  0  0
  4 26  1  0  0  0  0
  5 27  1  0  0  0  0
  6 28  1  0  0  0  0
 13 29  1  0  0  0  0
 13 30  1  0  0  0  0
 14 31  1  0  0  0  0
 14 32  1  0  0  0  0
 15 33  1  0  0  0  0
 16 34  1  0  0  0  0
 16 35  1  0  0  0  0
 20 36  1  0  0  0  0
 21 37  1  0  0  0  0
M  END
> <idnumber>
Z5870316324

> <heavy_atoms>
22

> <LogS>
-3.8

> <LogP>
0.825

> <rotating_bonds>
4

> <PSA>
83.56

> <hb_acceptors>
4

> <hb_donors>
2

> <Collection>
Advanced

> <link>
https://www.enaminestore.com/catalog/Z5870316324

> <ROCS_ShapeQuery>
_x1140_x0812_0A_x1140_0A_x1097_0A_x0365_0A_x1097_0A_x0310_0A

> <ROCS_TanimotoCombo>
0.660 

> <ROCS_ShapeTanimoto>
0.256 

> <ROCS_ColorTanimoto>
0.405 

> <ROCS_RefTversky>
0.233 

> <ROCS_RefColorTversky>
0.619 

> <ROCS_RefTverskyCombo>
0.852 

> <ROCS_FitTversky>
1.594 

> <ROCS_FitColorTversky>
0.539 

> <ROCS_FitTverskyCombo>
2.132 

> <ROCS_ColorScore>
-4.994

> <ROCS_Overlap>
2397.565

> <ROCS_Rank>
89                  

$$$$
untitled-dbase-791920_31
  -OEChem-02092421083D

 36 37  0     0  0  0  0  0  0999 V2000
    8.3699   12.3710   24.0490 C   0  0  0  0  0  0  0  0  0  0  0  0
    9.1182   10.1215   23.8579 C   0  0  0  0  0  0  0  0  0  0  0  0
   12.0800   15.1368   23.0789 C   0  0  0  0  0  0  0  0  0  0  0  0
    9.2806   11.4577   23.5294 C   0  0  0  0  0  0  0  0  0  0  0  0
   12.8427   14.1797   22.3831 C   0  0  0  0  0  0  0  0  0  0  0  0
    7.3393   11.9263   24.8696 C   0  0  0  0  0  0  0  0  0  0  0  0
   13.6425   14.9198   21.5471 C   0  0  0  0  0  0  0  0  0  0  0  0
    7.2637   10.5691   25.1379 C   0  0  0  0  0  0  0  0  0  0  0  0
   10.3824   11.8960   22.6580 C   0  0  0  0  0  0  0  0  0  0  0  0
   14.6624   14.5121   20.5623 C   0  0  0  0  0  0  0  0  0  0  0  0
   13.8949   17.3878   21.1467 C   0  0  0  0  0  0  0  0  0  0  0  0
   11.7292   12.1883   24.7013 C   0  0  0  0  0  0  0  0  0  0  0  0
   12.7894   12.6862   22.5271 C   0  0  0  0  0  0  0  0  0  0  0  0
    8.1297    9.6519   24.6516 N   0  0  0  0  0  0  0  0  0  0  0  0
   12.3695   16.3893   22.7165 N   0  0  0  0  0  0  0  0  0  0  0  0
   13.3230   16.2244   21.7839 N   0  0  0  0  0  0  0  0  0  0  0  0
    6.2199   10.0970   25.9721 N   0  0  0  0  0  0  0  0  0  0  0  0
   11.5984   12.2489   23.2523 N   0  0  0  0  0  0  0  0  0  0  0  0
   10.1499   11.9063   21.4498 O   0  0  0  0  0  0  0  0  0  0  0  0
    6.2192   13.0709   25.5053 Cl  0  0  0  0  0  0  0  0  0  0  0  0
    8.4683   13.4278   23.8111 H   0  0  0  0  0  0  0  0  0  0  0  0
    9.7974    9.3618   23.4828 H   0  0  0  0  0  0  0  0  0  0  0  0
   11.3251   14.9765   23.8353 H   0  0  0  0  0  0  0  0  0  0  0  0
   14.2150   14.3581   19.5663 H   0  0  0  0  0  0  0  0  0  0  0  0
   15.4618   15.2658   20.4569 H   0  0  0  0  0  0  0  0  0  0  0  0
   15.1661   13.5734   20.8515 H   0  0  0  0  0  0  0  0  0  0  0  0
   13.2974   17.6145   20.2597 H   0  0  0  0  0  0  0  0  0  0  0  0
   13.8785   18.2300   21.8441 H   0  0  0  0  0  0  0  0  0  0  0  0
   14.9304   17.1744   20.8673 H   0  0  0  0  0  0  0  0  0  0  0  0
   12.0819   11.1891   24.9967 H   0  0  0  0  0  0  0  0  0  0  0  0
   12.4527   12.9462   25.0360 H   0  0  0  0  0  0  0  0  0  0  0  0
   10.7516   12.3841   25.1660 H   0  0  0  0  0  0  0  0  0  0  0  0
   12.7816   12.2035   21.5438 H   0  0  0  0  0  0  0  0  0  0  0  0
   13.6659   12.3118   23.0663 H   0  0  0  0  0  0  0  0  0  0  0  0
    5.5959   10.7572   26.3822 H   0  0  0  0  0  0  0  0  0  0  0  0
    6.1910    9.1283   26.2048 H   0  0  0  0  0  0  0  0  0  0  0  0
  1  4  2  0  0  0  0
  1  6  1  0  0  0  0
  2  4  1  0  0  0  0
  2 14  2  0  0  0  0
  3  5  1  0  0  0  0
  3 15  2  0  0  0  0
  4  9  1  0  0  0  0
  5  7  2  0  0  0  0
  5 13  1  0  0  0  0
  6  8  2  0  0  0  0
  6 20  1  0  0  0  0
  7 10  1  0  0  0  0
  7 16  1  0  0  0  0
  8 14  1  0  0  0  0
  8 17  1  0  0  0  0
  9 18  1  0  0  0  0
  9 19  2  0  0  0  0
 11 16  1  0  0  0  0
 12 18  1  0  0  0  0
 13 18  1  0  0  0  0
 15 16  1  0  0  0  0
  1 21  1  0  0  0  0
  2 22  1  0  0  0  0
  3 23  1  0  0  0  0
 10 24  1  0  0  0  0
 10 25  1  0  0  0  0
 10 26  1  0  0  0  0
 11 27  1  0  0  0  0
 11 28  1  0  0  0  0
 11 29  1  0  0  0  0
 12 30  1  0  0  0  0
 12 31  1  0  0  0  0
 12 32  1  0  0  0  0
 13 33  1  0  0  0  0
 13 34  1  0  0  0  0
 17 35  1  0  0  0  0
 17 36  1  0  0  0  0
M  END
> <idnumber>
Z1934772376

> <heavy_atoms>
20

> <LogS>
-1.7

> <LogP>
0.531

> <rotating_bonds>
3

> <PSA>
77.04

> <hb_acceptors>
4

> <hb_donors>
1

> <Collection>
Advanced

> <link>
https://www.enaminestore.com/catalog/Z1934772376

> <ROCS_ShapeQuery>
_x1140_x0812_0A_x1140_0A_x1097_0A_x0365_0A_x1097_0A_x0310_0A

> <ROCS_TanimotoCombo>
0.660 

> <ROCS_ShapeTanimoto>
0.241 

> <ROCS_ColorTanimoto>
0.418 

> <ROCS_RefTversky>
0.221 

> <ROCS_RefColorTversky>
0.557 

> <ROCS_RefTverskyCombo>
0.777 

> <ROCS_FitTversky>
1.636 

> <ROCS_FitColorTversky>
0.627 

> <ROCS_FitTverskyCombo>
2.263 

> <ROCS_ColorScore>
-4.425

> <ROCS_Overlap>
2266.148

> <ROCS_Rank>
90                  

$$$$
untitled-dbase-296541_17
  -OEChem-02092421083D

 28 29  0     0  0  0  0  0  0999 V2000
   11.7114   14.8175   22.0189 C   0  0  0  0  0  0  0  0  0  0  0  0
   11.1396   12.7444   18.9963 C   0  0  0  0  0  0  0  0  0  0  0  0
   11.5444   13.7921   19.8159 C   0  0  0  0  0  0  0  0  0  0  0  0
    8.5093   12.6818   24.6250 C   0  0  0  0  0  0  0  0  0  0  0  0
    7.5037   12.0464   25.3449 C   0  0  0  0  0  0  0  0  0  0  0  0
   10.4910   11.6721   19.5871 C   0  0  0  0  0  0  0  0  0  0  0  0
    9.1392   10.5667   23.7384 C   0  0  0  0  0  0  0  0  0  0  0  0
   11.2918   13.7363   21.1820 C   0  0  0  0  0  0  0  0  0  0  0  0
    9.3470   11.9350   23.8041 C   0  0  0  0  0  0  0  0  0  0  0  0
    7.3783   10.6731   25.2101 C   0  0  0  0  0  0  0  0  0  0  0  0
   10.6362   12.6196   21.6750 C   0  0  0  0  0  0  0  0  0  0  0  0
    5.6924    8.8570   25.5014 C   0  0  0  0  0  0  0  0  0  0  0  0
   12.0519   15.6948   22.6981 N   0  0  0  0  0  0  0  0  0  0  0  0
   10.2279   11.5824   20.9101 N   0  0  0  0  0  0  0  0  0  0  0  0
    8.1730    9.9142   24.4227 N   0  0  0  0  0  0  0  0  0  0  0  0
   10.3713   12.5478   23.0662 N   0  0  0  0  0  0  0  0  0  0  0  0
    6.3495   10.0404   25.9515 N   0  0  0  0  0  0  0  0  0  0  0  0
   11.3257   12.7665   17.9287 H   0  0  0  0  0  0  0  0  0  0  0  0
   12.0551   14.6445   19.3744 H   0  0  0  0  0  0  0  0  0  0  0  0
    8.6316   13.7583   24.7103 H   0  0  0  0  0  0  0  0  0  0  0  0
    6.8458   12.6214   25.9883 H   0  0  0  0  0  0  0  0  0  0  0  0
   10.1549   10.8295   18.9915 H   0  0  0  0  0  0  0  0  0  0  0  0
    9.7609    9.9309   23.1151 H   0  0  0  0  0  0  0  0  0  0  0  0
    6.1122    8.5500   24.5321 H   0  0  0  0  0  0  0  0  0  0  0  0
    5.8415    8.0526   26.2367 H   0  0  0  0  0  0  0  0  0  0  0  0
    4.6164    9.0556   25.3884 H   0  0  0  0  0  0  0  0  0  0  0  0
   11.0585   13.0342   23.6291 H   0  0  0  0  0  0  0  0  0  0  0  0
    6.0968   10.4661   26.8197 H   0  0  0  0  0  0  0  0  0  0  0  0
  1  8  1  0  0  0  0
  1 13  3  0  0  0  0
  2  3  2  0  0  0  0
  2  6  1  0  0  0  0
  3  8  1  0  0  0  0
  4  5  2  0  0  0  0
  4  9  1  0  0  0  0
  5 10  1  0  0  0  0
  6 14  2  0  0  0  0
  7  9  2  0  0  0  0
  7 15  1  0  0  0  0
  8 11  2  0  0  0  0
  9 16  1  0  0  0  0
 10 15  2  0  0  0  0
 10 17  1  0  0  0  0
 11 14  1  0  0  0  0
 11 16  1  0  0  0  0
 12 17  1  0  0  0  0
  2 18  1  0  0  0  0
  3 19  1  0  0  0  0
  4 20  1  0  0  0  0
  5 21  1  0  0  0  0
  6 22  1  0  0  0  0
  7 23  1  0  0  0  0
 12 24  1  0  0  0  0
 12 25  1  0  0  0  0
 12 26  1  0  0  0  0
 16 27  1  0  0  0  0
 17 28  1  0  0  0  0
M  END
> <idnumber>
Z729056186

> <heavy_atoms>
17

> <LogS>
-2.171

> <LogP>
1.987

> <rotating_bonds>
3

> <PSA>
73.63

> <hb_acceptors>
5

> <hb_donors>
2

> <Collection>
HTS

> <link>
https://www.enaminestore.com/catalog/Z729056186

> <ROCS_ShapeQuery>
_x1140_x0812_0A_x1140_0A_x1097_0A_x0365_0A_x1097_0A_x0310_0A

> <ROCS_TanimotoCombo>
0.659 

> <ROCS_ShapeTanimoto>
0.217 

> <ROCS_ColorTanimoto>
0.442 

> <ROCS_RefTversky>
0.200 

> <ROCS_RefColorTversky>
0.579 

> <ROCS_RefTverskyCombo>
0.779 

> <ROCS_FitTversky>
1.621 

> <ROCS_FitColorTversky>
0.653 

> <ROCS_FitTverskyCombo>
2.274 

> <ROCS_ColorScore>
-4.601

> <ROCS_Overlap>
2053.985

> <ROCS_Rank>
91                  

$$$$
untitled-dbase-1182849_11
  -OEChem-02092421083D

 32 34  0     0  0  0  0  0  0999 V2000
    6.9790   12.0363   26.8762 C   0  0  0  0  0  0  0  0  0  0  0  0
   11.2095   16.4715   21.7913 C   0  0  0  0  0  0  0  0  0  0  0  0
    8.9164   10.5272   23.6002 C   0  0  0  0  0  0  0  0  0  0  0  0
    6.0972   10.9871   27.0219 C   0  0  0  0  0  0  0  0  0  0  0  0
   10.9438   15.2299   21.2637 C   0  0  0  0  0  0  0  0  0  0  0  0
   12.6732   15.1725   22.6283 C   0  0  0  0  0  0  0  0  0  0  0  0
    7.8047   11.7505   25.7569 C   0  0  0  0  0  0  0  0  0  0  0  0
    8.8667   12.3927   25.0998 C   0  0  0  0  0  0  0  0  0  0  0  0
    9.4288   11.7557   23.9950 C   0  0  0  0  0  0  0  0  0  0  0  0
    7.3906   10.5205   25.2541 C   0  0  0  0  0  0  0  0  0  0  0  0
   10.7946   12.1846   21.9230 C   0  0  0  0  0  0  0  0  0  0  0  0
    9.3924   13.7169   25.5557 C   0  0  0  0  0  0  0  0  0  0  0  0
   12.0376   12.9768   21.5622 C   0  0  0  0  0  0  0  0  0  0  0  0
   12.2874   16.4291   22.6398 N   0  0  0  0  0  0  0  0  0  0  0  0
    7.8975    9.8633   24.1939 N   0  0  0  0  0  0  0  0  0  0  0  0
    6.3561   10.0735   26.0332 N   0  0  0  0  0  0  0  0  0  0  0  0
   11.8899   14.4084   21.8087 N   0  0  0  0  0  0  0  0  0  0  0  0
   10.4879   12.3248   23.2859 N   0  0  0  0  0  0  0  0  0  0  0  0
   10.1741   11.5256   21.0952 O   0  0  0  0  0  0  0  0  0  0  0  0
    7.0190   12.9113   27.5103 H   0  0  0  0  0  0  0  0  0  0  0  0
   10.6794   17.3938   21.6033 H   0  0  0  0  0  0  0  0  0  0  0  0
    9.3356   10.0074   22.7413 H   0  0  0  0  0  0  0  0  0  0  0  0
    5.3088   10.8103   27.7395 H   0  0  0  0  0  0  0  0  0  0  0  0
   10.1916   14.8740   20.5735 H   0  0  0  0  0  0  0  0  0  0  0  0
   13.5036   14.7618   23.1864 H   0  0  0  0  0  0  0  0  0  0  0  0
   10.1954   13.5728   26.2866 H   0  0  0  0  0  0  0  0  0  0  0  0
    9.7847   14.2966   24.7122 H   0  0  0  0  0  0  0  0  0  0  0  0
    8.6001   14.3175   26.0174 H   0  0  0  0  0  0  0  0  0  0  0  0
   12.8900   12.6181   22.1504 H   0  0  0  0  0  0  0  0  0  0  0  0
   12.2719   12.8382   20.5006 H   0  0  0  0  0  0  0  0  0  0  0  0
    5.8598    9.2036   25.8983 H   0  0  0  0  0  0  0  0  0  0  0  0
   11.1254   12.9229   23.8238 H   0  0  0  0  0  0  0  0  0  0  0  0
  1  4  2  0  0  0  0
  1  7  1  0  0  0  0
  2  5  2  0  0  0  0
  2 14  1  0  0  0  0
  3  9  2  0  0  0  0
  3 15  1  0  0  0  0
  4 16  1  0  0  0  0
  5 17  1  0  0  0  0
  6 14  2  0  0  0  0
  6 17  1  0  0  0  0
  7  8  2  0  0  0  0
  7 10  1  0  0  0  0
  8  9  1  0  0  0  0
  8 12  1  0  0  0  0
  9 18  1  0  0  0  0
 10 15  2  0  0  0  0
 10 16  1  0  0  0  0
 11 13  1  0  0  0  0
 11 18  1  0  0  0  0
 11 19  2  0  0  0  0
 13 17  1  0  0  0  0
  1 20  1  0  0  0  0
  2 21  1  0  0  0  0
  3 22  1  0  0  0  0
  4 23  1  0  0  0  0
  5 24  1  0  0  0  0
  6 25  1  0  0  0  0
 12 26  1  0  0  0  0
 12 27  1  0  0  0  0
 12 28  1  0  0  0  0
 13 29  1  0  0  0  0
 13 30  1  0  0  0  0
 16 31  1  0  0  0  0
 18 32  1  0  0  0  0
M  END
> <idnumber>
Z8820654355

> <heavy_atoms>
19

> <LogS>
-2.701

> <LogP>
0.467

> <rotating_bonds>
3

> <PSA>
75.6

> <hb_acceptors>
3

> <hb_donors>
2

> <Collection>
Advanced

> <link>
https://www.enaminestore.com/catalog/Z8820654355

> <ROCS_ShapeQuery>
_x1140_x0812_0A_x1140_0A_x1097_0A_x0365_0A_x1097_0A_x0310_0A

> <ROCS_TanimotoCombo>
0.659 

> <ROCS_ShapeTanimoto>
0.246 

> <ROCS_ColorTanimoto>
0.413 

> <ROCS_RefTversky>
0.224 

> <ROCS_RefColorTversky>
0.618 

> <ROCS_RefTverskyCombo>
0.842 

> <ROCS_FitTversky>
1.662 

> <ROCS_FitColorTversky>
0.555 

> <ROCS_FitTverskyCombo>
2.216 

> <ROCS_ColorScore>
-4.975

> <ROCS_Overlap>
2298.179

> <ROCS_Rank>
92                  

$$$$
untitled-dbase-806224_92
  -OEChem-02092421083D

 36 38  0     0  0  0  0  0  0999 V2000
    5.6528   12.3940   26.7563 C   0  0  0  0  0  0  0  0  0  0  0  0
    5.6733   11.0571   27.1339 C   0  0  0  0  0  0  0  0  0  0  0  0
    6.4848   12.8308   25.7296 C   0  0  0  0  0  0  0  0  0  0  0  0
    6.5253   10.1605   26.4842 C   0  0  0  0  0  0  0  0  0  0  0  0
   10.5259   16.6843   23.7033 C   0  0  0  0  0  0  0  0  0  0  0  0
    7.3416   11.9288   25.0762 C   0  0  0  0  0  0  0  0  0  0  0  0
    9.0239   11.4264   23.4142 C   0  0  0  0  0  0  0  0  0  0  0  0
    8.1895   12.3416   24.0396 C   0  0  0  0  0  0  0  0  0  0  0  0
    7.3677   10.5700   25.4542 C   0  0  0  0  0  0  0  0  0  0  0  0
    8.9794   10.1186   23.8529 C   0  0  0  0  0  0  0  0  0  0  0  0
   12.0086   15.5541   22.8069 C   0  0  0  0  0  0  0  0  0  0  0  0
    9.9162   11.8217   22.3315 C   0  0  0  0  0  0  0  0  0  0  0  0
    8.2169   13.7700   23.5838 C   0  0  0  0  0  0  0  0  0  0  0  0
   12.7466   14.3651   22.2421 C   0  0  0  0  0  0  0  0  0  0  0  0
   11.8134   13.3093   21.6544 C   0  0  0  0  0  0  0  0  0  0  0  0
   10.7651   15.4445   23.3578 N   0  0  0  0  0  0  0  0  0  0  0  0
    8.1764    9.6796   24.8491 N   0  0  0  0  0  0  0  0  0  0  0  0
   12.5344   16.7826   22.7991 N   0  0  0  0  0  0  0  0  0  0  0  0
   10.8741   12.7968   22.6258 N   0  0  0  0  0  0  0  0  0  0  0  0
    9.7970   11.3160   21.2032 O   0  0  0  0  0  0  0  0  0  0  0  0
   11.5312   17.5487   23.4057 O   0  0  0  0  0  0  0  0  0  0  0  0
    9.7811    9.1737   23.2663 O   0  0  0  0  0  0  0  0  0  0  0  0
    4.9924   13.0934   27.2600 H   0  0  0  0  0  0  0  0  0  0  0  0
    5.0272   10.7071   27.9338 H   0  0  0  0  0  0  0  0  0  0  0  0
    6.4486   13.8825   25.4560 H   0  0  0  0  0  0  0  0  0  0  0  0
    6.5244    9.1189   26.8005 H   0  0  0  0  0  0  0  0  0  0  0  0
    9.6517   17.0964   24.1831 H   0  0  0  0  0  0  0  0  0  0  0  0
    8.9623   14.3306   24.1558 H   0  0  0  0  0  0  0  0  0  0  0  0
    8.4641   13.8354   22.5193 H   0  0  0  0  0  0  0  0  0  0  0  0
    7.2380   14.2415   23.7190 H   0  0  0  0  0  0  0  0  0  0  0  0
   13.3451   13.9142   23.0437 H   0  0  0  0  0  0  0  0  0  0  0  0
   13.4638   14.7004   21.4820 H   0  0  0  0  0  0  0  0  0  0  0  0
   11.2220   13.7446   20.8426 H   0  0  0  0  0  0  0  0  0  0  0  0
   12.3704   12.4569   21.2518 H   0  0  0  0  0  0  0  0  0  0  0  0
   10.8855   13.2213   23.5475 H   0  0  0  0  0  0  0  0  0  0  0  0
   10.3117    9.5832   22.5691 H   0  0  0  0  0  0  0  0  0  0  0  0
  1  2  1  0  0  0  0
  1  3  2  0  0  0  0
  2  4  2  0  0  0  0
  3  6  1  0  0  0  0
  4  9  1  0  0  0  0
  5 16  2  0  0  0  0
  5 21  1  0  0  0  0
  6  8  2  0  0  0  0
  6  9  1  0  0  0  0
  7  8  1  0  0  0  0
  7 10  2  0  0  0  0
  7 12  1  0  0  0  0
  8 13  1  0  0  0  0
  9 17  2  0  0  0  0
 10 17  1  0  0  0  0
 10 22  1  0  0  0  0
 11 14  1  0  0  0  0
 11 16  1  0  0  0  0
 11 18  2  0  0  0  0
 12 19  1  0  0  0  0
 12 20  2  0  0  0  0
 14 15  1  0  0  0  0
 15 19  1  0  0  0  0
 18 21  1  0  0  0  0
  1 23  1  0  0  0  0
  2 24  1  0  0  0  0
  3 25  1  0  0  0  0
  4 26  1  0  0  0  0
  5 27  1  0  0  0  0
 13 28  1  0  0  0  0
 13 29  1  0  0  0  0
 13 30  1  0  0  0  0
 14 31  1  0  0  0  0
 14 32  1  0  0  0  0
 15 33  1  0  0  0  0
 15 34  1  0  0  0  0
 19 35  1  0  0  0  0
 22 36  1  0  0  0  0
M  END
> <idnumber>
Z1344137110

> <heavy_atoms>
22

> <LogS>
-3.37

> <LogP>
2.159

> <rotating_bonds>
4

> <PSA>
101.14

> <hb_acceptors>
5

> <hb_donors>
2

> <Collection>
HTS

> <link>
https://www.enaminestore.com/catalog/Z1344137110

> <ROCS_ShapeQuery>
_x1140_x0812_0A_x1140_0A_x1097_0A_x0365_0A_x1097_0A_x0310_0A

> <ROCS_TanimotoCombo>
0.658 

> <ROCS_ShapeTanimoto>
0.293 

> <ROCS_ColorTanimoto>
0.365 

> <ROCS_RefTversky>
0.260 

> <ROCS_RefColorTversky>
0.595 

> <ROCS_RefTverskyCombo>
0.855 

> <ROCS_FitTversky>
1.772 

> <ROCS_FitColorTversky>
0.486 

> <ROCS_FitTverskyCombo>
2.258 

> <ROCS_ColorScore>
-4.823

> <ROCS_Overlap>
2667.124

> <ROCS_Rank>
93                  

$$$$
untitled-dbase-43187_23
  -OEChem-02092421083D

 26 26  0     0  0  0  0  0  0999 V2000
    8.1818   12.0095   25.4720 C   0  0  0  0  0  0  0  0  0  0  0  0
    9.0362   12.3831   24.4406 C   0  0  0  0  0  0  0  0  0  0  0  0
    7.7365   10.6978   25.5023 C   0  0  0  0  0  0  0  0  0  0  0  0
    9.4139   11.4467   23.4846 C   0  0  0  0  0  0  0  0  0  0  0  0
    8.9136   10.1602   23.6040 C   0  0  0  0  0  0  0  0  0  0  0  0
   10.3216   11.8699   22.4018 C   0  0  0  0  0  0  0  0  0  0  0  0
   12.5449   12.8111   21.7847 C   0  0  0  0  0  0  0  0  0  0  0  0
   12.3209   13.8031   24.3680 C   0  0  0  0  0  0  0  0  0  0  0  0
   11.1350    8.8695   22.6485 C   0  0  0  0  0  0  0  0  0  0  0  0
    8.0817    9.7601   24.5916 N   0  0  0  0  0  0  0  0  0  0  0  0
   11.5639   12.3481   22.7482 N   0  0  0  0  0  0  0  0  0  0  0  0
    9.8994   11.7786   21.2503 O   0  0  0  0  0  0  0  0  0  0  0  0
   12.0214   12.4414   24.0752 O   0  0  0  0  0  0  0  0  0  0  0  0
    9.3444    8.8875   22.4222 S   0  0  0  0  0  0  0  0  0  0  0  0
    7.8739   12.7223   26.2280 H   0  0  0  0  0  0  0  0  0  0  0  0
    9.4001   13.4063   24.3943 H   0  0  0  0  0  0  0  0  0  0  0  0
    7.0680   10.3565   26.2857 H   0  0  0  0  0  0  0  0  0  0  0  0
   12.4054   13.8877   21.6071 H   0  0  0  0  0  0  0  0  0  0  0  0
   13.5568   12.6325   22.1773 H   0  0  0  0  0  0  0  0  0  0  0  0
   12.4166   12.2639   20.8391 H   0  0  0  0  0  0  0  0  0  0  0  0
   12.6773   13.8852   25.3977 H   0  0  0  0  0  0  0  0  0  0  0  0
   11.4235   14.4119   24.2321 H   0  0  0  0  0  0  0  0  0  0  0  0
   13.1009   14.1500   23.6861 H   0  0  0  0  0  0  0  0  0  0  0  0
   11.5860    8.1267   21.9860 H   0  0  0  0  0  0  0  0  0  0  0  0
   11.3756    8.6163   23.6840 H   0  0  0  0  0  0  0  0  0  0  0  0
   11.5484    9.8539   22.4159 H   0  0  0  0  0  0  0  0  0  0  0  0
  1  2  2  0  0  0  0
  1  3  1  0  0  0  0
  2  4  1  0  0  0  0
  3 10  2  0  0  0  0
  4  5  2  0  0  0  0
  4  6  1  0  0  0  0
  5 10  1  0  0  0  0
  5 14  1  0  0  0  0
  6 11  1  0  0  0  0
  6 12  2  0  0  0  0
  7 11  1  0  0  0  0
  8 13  1  0  0  0  0
  9 14  1  0  0  0  0
 11 13  1  0  0  0  0
  1 15  1  0  0  0  0
  2 16  1  0  0  0  0
  3 17  1  0  0  0  0
  7 18  1  0  0  0  0
  7 19  1  0  0  0  0
  7 20  1  0  0  0  0
  8 21  1  0  0  0  0
  8 22  1  0  0  0  0
  8 23  1  0  0  0  0
  9 24  1  0  0  0  0
  9 25  1  0  0  0  0
  9 26  1  0  0  0  0
M  END
> <idnumber>
Z54739616

> <heavy_atoms>
14

> <LogS>
-2.15

> <LogP>
1.291

> <rotating_bonds>
3

> <PSA>
42.43

> <hb_acceptors>
3

> <hb_donors>
0

> <Collection>
Functional

> <link>
https://www.enaminestore.com/catalog/Z54739616

> <ROCS_ShapeQuery>
_x1140_x0812_0A_x1140_0A_x1097_0A_x0365_0A_x1097_0A_x0310_0A

> <ROCS_TanimotoCombo>
0.658 

> <ROCS_ShapeTanimoto>
0.220 

> <ROCS_ColorTanimoto>
0.437 

> <ROCS_RefTversky>
0.200 

> <ROCS_RefColorTversky>
0.468 

> <ROCS_RefTverskyCombo>
0.668 

> <ROCS_FitTversky>
1.860 

> <ROCS_FitColorTversky>
0.869 

> <ROCS_FitTverskyCombo>
2.729 

> <ROCS_ColorScore>
-3.652

> <ROCS_Overlap>
2049.187

> <ROCS_Rank>
94                  

$$$$
untitled-dbase-776569_106
  -OEChem-02092421083D

 47 50  0     0  0  0  0  0  0999 V2000
    5.6924   12.3176   26.8507 C   0  0  0  0  0  0  0  0  0  0  0  0
    5.6427   10.9517   27.0999 C   0  0  0  0  0  0  0  0  0  0  0  0
    6.5753   12.8097   25.8938 C   0  0  0  0  0  0  0  0  0  0  0  0
    6.4755   10.0814   26.3921 C   0  0  0  0  0  0  0  0  0  0  0  0
    7.4128   11.9341   25.1819 C   0  0  0  0  0  0  0  0  0  0  0  0
    9.1244   11.5123   23.5274 C   0  0  0  0  0  0  0  0  0  0  0  0
    8.3108   12.4025   24.2133 C   0  0  0  0  0  0  0  0  0  0  0  0
    7.3676   10.5461   25.4296 C   0  0  0  0  0  0  0  0  0  0  0  0
    9.0089   10.1726   23.8385 C   0  0  0  0  0  0  0  0  0  0  0  0
   13.7874   16.3119   23.3436 C   0  0  0  0  0  0  0  0  0  0  0  0
   12.5199   14.7706   22.4908 C   0  0  0  0  0  0  0  0  0  0  0  0
   10.0674   11.9655   22.5126 C   0  0  0  0  0  0  0  0  0  0  0  0
   15.7475   18.2761   25.6352 C   0  0  0  0  0  0  0  0  0  0  0  0
   14.8100   18.5628   24.4469 C   0  0  0  0  0  0  0  0  0  0  0  0
   15.2951   16.8065   25.5367 C   0  0  0  0  0  0  0  0  0  0  0  0
   14.9952   17.0722   24.0304 C   0  0  0  0  0  0  0  0  0  0  0  0
    8.4148   13.8646   23.8964 C   0  0  0  0  0  0  0  0  0  0  0  0
   14.7443   13.9928   23.3682 C   0  0  0  0  0  0  0  0  0  0  0  0
   12.0483   13.4207   22.0333 C   0  0  0  0  0  0  0  0  0  0  0  0
    8.1560    9.6798   24.7656 N   0  0  0  0  0  0  0  0  0  0  0  0
   12.6789   16.8908   22.9405 N   0  0  0  0  0  0  0  0  0  0  0  0
   11.8725   15.9102   22.3979 N   0  0  0  0  0  0  0  0  0  0  0  0
   13.7303   14.9769   23.0801 N   0  0  0  0  0  0  0  0  0  0  0  0
   11.0568   12.8634   22.9250 N   0  0  0  0  0  0  0  0  0  0  0  0
    9.9628   11.5739   21.3384 O   0  0  0  0  0  0  0  0  0  0  0  0
    9.7873    9.2508   23.1874 O   0  0  0  0  0  0  0  0  0  0  0  0
    5.0471   12.9965   27.3998 H   0  0  0  0  0  0  0  0  0  0  0  0
    4.9565   10.5585   27.8446 H   0  0  0  0  0  0  0  0  0  0  0  0
    6.5936   13.8828   25.7205 H   0  0  0  0  0  0  0  0  0  0  0  0
    6.4191    9.0159   26.6079 H   0  0  0  0  0  0  0  0  0  0  0  0
   16.8086   18.4275   25.4069 H   0  0  0  0  0  0  0  0  0  0  0  0
   15.5055   18.7891   26.5691 H   0  0  0  0  0  0  0  0  0  0  0  0
   13.7911   18.8335   24.7495 H   0  0  0  0  0  0  0  0  0  0  0  0
   15.1753   19.3052   23.7321 H   0  0  0  0  0  0  0  0  0  0  0  0
   16.0703   16.0641   25.7437 H   0  0  0  0  0  0  0  0  0  0  0  0
   14.4140   16.5793   26.1491 H   0  0  0  0  0  0  0  0  0  0  0  0
   15.9375   16.9382   23.3963 H   0  0  0  0  0  0  0  0  0  0  0  0
    9.1650   14.3340   24.5396 H   0  0  0  0  0  0  0  0  0  0  0  0
    8.6988   14.0178   22.8502 H   0  0  0  0  0  0  0  0  0  0  0  0
    7.4535   14.3661   24.0482 H   0  0  0  0  0  0  0  0  0  0  0  0
   14.5551   13.5965   24.3693 H   0  0  0  0  0  0  0  0  0  0  0  0
   14.6964   13.1922   22.6248 H   0  0  0  0  0  0  0  0  0  0  0  0
   15.7296   14.4651   23.3228 H   0  0  0  0  0  0  0  0  0  0  0  0
   11.6048   13.4850   21.0337 H   0  0  0  0  0  0  0  0  0  0  0  0
   12.8814   12.7125   21.9745 H   0  0  0  0  0  0  0  0  0  0  0  0
   11.0569   13.1987   23.8827 H   0  0  0  0  0  0  0  0  0  0  0  0
   10.3574    9.6988   22.5474 H   0  0  0  0  0  0  0  0  0  0  0  0
  1  2  1  0  0  0  0
  1  3  2  0  0  0  0
  2  4  2  0  0  0  0
  3  5  1  0  0  0  0
  4  8  1  0  0  0  0
  5  7  2  0  0  0  0
  5  8  1  0  0  0  0
  6  7  1  0  0  0  0
  6  9  2  0  0  0  0
  6 12  1  0  0  0  0
  7 17  1  0  0  0  0
  8 20  2  0  0  0  0
  9 20  1  0  0  0  0
  9 26  1  0  0  0  0
 10 16  1  0  0  0  0
 10 21  2  0  0  0  0
 10 23  1  0  0  0  0
 11 19  1  0  0  0  0
 11 22  2  0  0  0  0
 11 23  1  0  0  0  0
 12 24  1  0  0  0  0
 12 25  2  0  0  0  0
 13 14  1  0  0  0  0
 13 15  1  0  0  0  0
 14 16  1  0  0  0  0
 15 16  1  0  0  0  0
 18 23  1  0  0  0  0
 19 24  1  0  0  0  0
 21 22  1  0  0  0  0
  1 27  1  0  0  0  0
  2 28  1  0  0  0  0
  3 29  1  0  0  0  0
  4 30  1  0  0  0  0
 13 31  1  0  0  0  0
 13 32  1  0  0  0  0
 14 33  1  0  0  0  0
 14 34  1  0  0  0  0
 15 35  1  0  0  0  0
 15 36  1  0  0  0  0
 16 37  1  0  0  0  0
 17 38  1  0  0  0  0
 17 39  1  0  0  0  0
 17 40  1  0  0  0  0
 18 41  1  0  0  0  0
 18 42  1  0  0  0  0
 18 43  1  0  0  0  0
 19 44  1  0  0  0  0
 19 45  1  0  0  0  0
 24 46  1  0  0  0  0
 26 47  1  0  0  0  0
M  END
> <idnumber>
Z1690931299

> <heavy_atoms>
26

> <LogS>
-3.919

> <LogP>
2.957

> <rotating_bonds>
4

> <PSA>
92.93

> <hb_acceptors>
5

> <hb_donors>
2

> <Collection>
HTS

> <link>
https://www.enaminestore.com/catalog/Z1690931299

> <ROCS_ShapeQuery>
_x1140_x0812_0A_x1140_0A_x1097_0A_x0365_0A_x1097_0A_x0310_0A

> <ROCS_TanimotoCombo>
0.657 

> <ROCS_ShapeTanimoto>
0.292 

> <ROCS_ColorTanimoto>
0.365 

> <ROCS_RefTversky>
0.263 

> <ROCS_RefColorTversky>
0.633 

> <ROCS_RefTverskyCombo>
0.896 

> <ROCS_FitTversky>
1.609 

> <ROCS_FitColorTversky>
0.464 

> <ROCS_FitTverskyCombo>
2.073 

> <ROCS_ColorScore>
-5.168

> <ROCS_Overlap>
2701.139

> <ROCS_Rank>
95                  

$$$$
untitled-dbase-534840_32
  -OEChem-02092421083D

 33 33  0     1  0  0  0  0  0999 V2000
   11.4463   10.5359   22.5986 C   0  0  0  0  0  0  0  0  0  0  0  0
   11.5684    9.2058   22.4659 C   0  0  0  0  0  0  0  0  0  0  0  0
   10.2107   11.3239   22.4185 C   0  0  0  0  0  0  0  0  0  0  0  0
    7.0538   10.1652   25.1855 C   0  0  0  0  0  0  0  0  0  0  0  0
    7.9794   11.6580   23.4325 C   0  0  0  0  0  0  0  0  0  0  0  0
    9.8655   11.5829   24.9310 C   0  0  0  0  0  0  0  0  0  0  0  0
    7.4547   11.5740   24.8601 C   0  0  2  0  0  0  0  0  0  0  0  0
    8.6362   12.0242   25.7307 C   0  0  2  0  0  0  0  0  0  0  0  0
   12.8370    8.4205   22.6537 C   0  0  0  0  0  0  0  0  0  0  0  0
   10.3763    8.3605   22.0992 C   0  0  0  0  0  0  0  0  0  0  0  0
    8.6271   13.5373   25.9471 C   0  0  0  0  0  0  0  0  0  0  0  0
    9.4246   11.5117   23.5401 N   0  0  0  0  0  0  0  0  0  0  0  0
    6.0424   10.0766   26.1125 N   0  0  0  0  0  0  0  0  0  0  0  0
    9.9463   11.7616   21.2990 O   0  0  0  0  0  0  0  0  0  0  0  0
    7.5828    9.1953   24.6481 O   0  0  0  0  0  0  0  0  0  0  0  0
   12.5129   11.2958   22.9281 F   0  0  0  0  0  0  0  0  0  0  0  0
    7.6055   10.8488   22.7905 H   0  0  0  0  0  0  0  0  0  0  0  0
    7.7310   12.6114   22.9494 H   0  0  0  0  0  0  0  0  0  0  0  0
   10.6831   12.3144   24.9849 H   0  0  0  0  0  0  0  0  0  0  0  0
   10.2423   10.6088   25.2669 H   0  0  0  0  0  0  0  0  0  0  0  0
    6.5856   12.2238   24.9937 H   0  0  0  0  0  0  0  0  0  0  0  0
    8.6210   11.5312   26.6939 H   0  0  0  0  0  0  0  0  0  0  0  0
   12.9938    8.0739   23.6768 H   0  0  0  0  0  0  0  0  0  0  0  0
   13.7019    9.0353   22.3822 H   0  0  0  0  0  0  0  0  0  0  0  0
   12.8288    7.5352   22.0086 H   0  0  0  0  0  0  0  0  0  0  0  0
   10.2987    8.2680   21.0108 H   0  0  0  0  0  0  0  0  0  0  0  0
   10.4332    7.3488   22.5135 H   0  0  0  0  0  0  0  0  0  0  0  0
    9.4564    8.8203   22.4754 H   0  0  0  0  0  0  0  0  0  0  0  0
    8.6421   14.0539   24.9864 H   0  0  0  0  0  0  0  0  0  0  0  0
    9.5032   13.8394   26.5225 H   0  0  0  0  0  0  0  0  0  0  0  0
    7.7293   13.8332   26.4916 H   0  0  0  0  0  0  0  0  0  0  0  0
    5.6553   10.9333   26.4944 H   0  0  0  0  0  0  0  0  0  0  0  0
    5.6673    9.1887   26.4301 H   0  0  0  0  0  0  0  0  0  0  0  0
  1  2  2  0  0  0  0
  1  3  1  0  0  0  0
  1 16  1  0  0  0  0
  2  9  1  0  0  0  0
  2 10  1  0  0  0  0
  3 12  1  0  0  0  0
  3 14  2  0  0  0  0
  4  7  1  1  0  0  0
  4 13  1  0  0  0  0
  4 15  2  0  0  0  0
  5  7  1  0  0  0  0
  5 12  1  0  0  0  0
  6  8  1  0  0  0  0
  6 12  1  0  0  0  0
  7  8  1  0  0  0  0
  8 11  1  6  0  0  0
  5 17  1  0  0  0  0
  5 18  1  0  0  0  0
  6 19  1  0  0  0  0
  6 20  1  0  0  0  0
  7 21  1  0  0  0  0
  8 22  1  0  0  0  0
  9 23  1  0  0  0  0
  9 24  1  0  0  0  0
  9 25  1  0  0  0  0
 10 26  1  0  0  0  0
 10 27  1  0  0  0  0
 10 28  1  0  0  0  0
 11 29  1  0  0  0  0
 11 30  1  0  0  0  0
 11 31  1  0  0  0  0
 13 32  1  0  0  0  0
 13 33  1  0  0  0  0
M  END
> <idnumber>
Z2061471733

> <heavy_atoms>
16

> <LogS>
-1.569

> <LogP>
1.086

> <rotating_bonds>
2

> <PSA>
63.4

> <hb_acceptors>
2

> <hb_donors>
1

> <Collection>
Legacy

> <link>
https://www.enaminestore.com/catalog/Z2061471733

> <ROCS_ShapeQuery>
_x1140_x0812_0A_x1140_0A_x1097_0A_x0365_0A_x1097_0A_x0310_0A

> <ROCS_TanimotoCombo>
0.657 

> <ROCS_ShapeTanimoto>
0.211 

> <ROCS_ColorTanimoto>
0.445 

> <ROCS_RefTversky>
0.195 

> <ROCS_RefColorTversky>
0.510 

> <ROCS_RefTverskyCombo>
0.705 

> <ROCS_FitTversky>
1.676 

> <ROCS_FitColorTversky>
0.778 

> <ROCS_FitTverskyCombo>
2.454 

> <ROCS_ColorScore>
-4.005

> <ROCS_Overlap>
1996.048

> <ROCS_Rank>
96                  

$$$$
untitled-dbase-827371_9
  -OEChem-02092421083D

 43 45  0     0  0  0  0  0  0999 V2000
    5.1229   12.0171   26.2395 C   0  0  0  0  0  0  0  0  0  0  0  0
    5.1839   10.6709   26.5777 C   0  0  0  0  0  0  0  0  0  0  0  0
    6.0773   12.5536   25.3801 C   0  0  0  0  0  0  0  0  0  0  0  0
    6.1986    9.8647   26.0559 C   0  0  0  0  0  0  0  0  0  0  0  0
    7.0978   11.7424   24.8555 C   0  0  0  0  0  0  0  0  0  0  0  0
    9.0662   11.4294   23.4871 C   0  0  0  0  0  0  0  0  0  0  0  0
    8.0714   12.2565   23.9883 C   0  0  0  0  0  0  0  0  0  0  0  0
   12.7021   14.3761   22.5994 C   0  0  0  0  0  0  0  0  0  0  0  0
    7.1659   10.3748   25.1943 C   0  0  0  0  0  0  0  0  0  0  0  0
   11.9862   15.5356   22.2549 C   0  0  0  0  0  0  0  0  0  0  0  0
   13.7819   14.8542   23.2934 C   0  0  0  0  0  0  0  0  0  0  0  0
    9.0508   10.1051   23.8754 C   0  0  0  0  0  0  0  0  0  0  0  0
   10.0923   11.9310   22.5816 C   0  0  0  0  0  0  0  0  0  0  0  0
    8.0634   13.7005   23.5838 C   0  0  0  0  0  0  0  0  0  0  0  0
   10.7273   15.6338   21.4971 C   0  0  0  0  0  0  0  0  0  0  0  0
   14.9360   14.2221   23.9458 C   0  0  0  0  0  0  0  0  0  0  0  0
   11.5206   12.4980   24.5597 C   0  0  0  0  0  0  0  0  0  0  0  0
   12.3675   12.9470   22.2837 C   0  0  0  0  0  0  0  0  0  0  0  0
    8.1302    9.5697   24.7095 N   0  0  0  0  0  0  0  0  0  0  0  0
   12.5767   16.6478   22.7012 N   0  0  0  0  0  0  0  0  0  0  0  0
   11.2845   12.4405   23.1240 N   0  0  0  0  0  0  0  0  0  0  0  0
    9.8499   11.8634   21.3707 O   0  0  0  0  0  0  0  0  0  0  0  0
   13.7183   16.2086   23.3610 O   0  0  0  0  0  0  0  0  0  0  0  0
   10.0093    9.2446   23.4060 O   0  0  0  0  0  0  0  0  0  0  0  0
    4.3360   12.6465   26.6441 H   0  0  0  0  0  0  0  0  0  0  0  0
    4.4431   10.2435   27.2472 H   0  0  0  0  0  0  0  0  0  0  0  0
    6.0057   13.6101   25.1339 H   0  0  0  0  0  0  0  0  0  0  0  0
    6.2258    8.8137   26.3384 H   0  0  0  0  0  0  0  0  0  0  0  0
    8.6580   14.2893   24.2885 H   0  0  0  0  0  0  0  0  0  0  0  0
    8.4779   13.8263   22.5784 H   0  0  0  0  0  0  0  0  0  0  0  0
    7.0421   14.0948   23.5653 H   0  0  0  0  0  0  0  0  0  0  0  0
    9.8517   15.5918   22.1675 H   0  0  0  0  0  0  0  0  0  0  0  0
   10.6595   16.5737   20.9206 H   0  0  0  0  0  0  0  0  0  0  0  0
   10.6201   14.8188   20.7589 H   0  0  0  0  0  0  0  0  0  0  0  0
   15.7870   14.1166   23.2489 H   0  0  0  0  0  0  0  0  0  0  0  0
   15.2950   14.7995   24.8183 H   0  0  0  0  0  0  0  0  0  0  0  0
   14.7004   13.2127   24.3325 H   0  0  0  0  0  0  0  0  0  0  0  0
   11.9993   11.5646   24.8907 H   0  0  0  0  0  0  0  0  0  0  0  0
   12.1788   13.3489   24.7891 H   0  0  0  0  0  0  0  0  0  0  0  0
   10.5619   12.6242   25.0840 H   0  0  0  0  0  0  0  0  0  0  0  0
   12.0588   12.8447   21.2376 H   0  0  0  0  0  0  0  0  0  0  0  0
   13.2371   12.2979   22.4312 H   0  0  0  0  0  0  0  0  0  0  0  0
    9.8602    8.3605   23.7687 H   0  0  0  0  0  0  0  0  0  0  0  0
  1  2  1  0  0  0  0
  1  3  2  0  0  0  0
  2  4  2  0  0  0  0
  3  5  1  0  0  0  0
  4  9  1  0  0  0  0
  5  7  2  0  0  0  0
  5  9  1  0  0  0  0
  6  7  1  0  0  0  0
  6 12  2  0  0  0  0
  6 13  1  0  0  0  0
  7 14  1  0  0  0  0
  8 10  1  0  0  0  0
  8 11  2  0  0  0  0
  8 18  1  0  0  0  0
  9 19  2  0  0  0  0
 10 15  1  0  0  0  0
 10 20  2  0  0  0  0
 11 16  1  0  0  0  0
 11 23  1  0  0  0  0
 12 19  1  0  0  0  0
 12 24  1  0  0  0  0
 13 21  1  0  0  0  0
 13 22  2  0  0  0  0
 17 21  1  0  0  0  0
 18 21  1  0  0  0  0
 20 23  1  0  0  0  0
  1 25  1  0  0  0  0
  2 26  1  0  0  0  0
  3 27  1  0  0  0  0
  4 28  1  0  0  0  0
 14 29  1  0  0  0  0
 14 30  1  0  0  0  0
 14 31  1  0  0  0  0
 15 32  1  0  0  0  0
 15 33  1  0  0  0  0
 15 34  1  0  0  0  0
 16 35  1  0  0  0  0
 16 36  1  0  0  0  0
 16 37  1  0  0  0  0
 17 38  1  0  0  0  0
 17 39  1  0  0  0  0
 17 40  1  0  0  0  0
 18 41  1  0  0  0  0
 18 42  1  0  0  0  0
 24 43  1  0  0  0  0
M  END
> <idnumber>
Z1343739145

> <heavy_atoms>
24

> <LogS>
-3.314

> <LogP>
2.363

> <rotating_bonds>
3

> <PSA>
79.46

> <hb_acceptors>
4

> <hb_donors>
1

> <Collection>
Advanced

> <link>
https://www.enaminestore.com/catalog/Z1343739145

> <ROCS_ShapeQuery>
_x1140_x0812_0A_x1140_0A_x1097_0A_x0365_0A_x1097_0A_x0310_0A

> <ROCS_TanimotoCombo>
0.656 

> <ROCS_ShapeTanimoto>
0.299 

> <ROCS_ColorTanimoto>
0.357 

> <ROCS_RefTversky>
0.266 

> <ROCS_RefColorTversky>
0.526 

> <ROCS_RefTverskyCombo>
0.792 

> <ROCS_FitTversky>
1.721 

> <ROCS_FitColorTversky>
0.525 

> <ROCS_FitTverskyCombo>
2.247 

> <ROCS_ColorScore>
-4.210

> <ROCS_Overlap>
2733.230

> <ROCS_Rank>
97                  

$$$$
untitled-dbase-431978_122
  -OEChem-02092421083D

 31 32  0     0  0  0  0  0  0999 V2000
    7.4212   12.0872   25.0272 C   0  0  0  0  0  0  0  0  0  0  0  0
    8.2353   12.4806   23.9709 C   0  0  0  0  0  0  0  0  0  0  0  0
    7.4941   10.7685   25.4460 C   0  0  0  0  0  0  0  0  0  0  0  0
   12.8545   16.4217   25.1571 C   0  0  0  0  0  0  0  0  0  0  0  0
    9.0855   11.5563   23.3741 C   0  0  0  0  0  0  0  0  0  0  0  0
   12.2628   17.0035   24.0555 C   0  0  0  0  0  0  0  0  0  0  0  0
    9.0841   10.2614   23.8670 C   0  0  0  0  0  0  0  0  0  0  0  0
   12.8699   15.1053   23.1398 C   0  0  0  0  0  0  0  0  0  0  0  0
    9.9396   11.9605   22.2680 C   0  0  0  0  0  0  0  0  0  0  0  0
   11.6357   18.3395   24.0185 C   0  0  0  0  0  0  0  0  0  0  0  0
   13.0730   14.0149   22.1167 C   0  0  0  0  0  0  0  0  0  0  0  0
   11.7630   13.5084   21.5182 C   0  0  0  0  0  0  0  0  0  0  0  0
    8.3075    9.8421   24.8911 N   0  0  0  0  0  0  0  0  0  0  0  0
   12.2710   16.2503   22.8977 N   0  0  0  0  0  0  0  0  0  0  0  0
   10.8631   12.9817   22.5190 N   0  0  0  0  0  0  0  0  0  0  0  0
    9.8231   11.4238   21.1522 O   0  0  0  0  0  0  0  0  0  0  0  0
    9.9074    9.3191   23.3068 O   0  0  0  0  0  0  0  0  0  0  0  0
   13.4470   14.8677   24.7384 S   0  0  0  0  0  0  0  0  0  0  0  0
    6.7514   12.7905   25.5088 H   0  0  0  0  0  0  0  0  0  0  0  0
    8.1991   13.5089   23.6210 H   0  0  0  0  0  0  0  0  0  0  0  0
    6.8805   10.4111   26.2664 H   0  0  0  0  0  0  0  0  0  0  0  0
   12.9646   16.8188   26.1564 H   0  0  0  0  0  0  0  0  0  0  0  0
   12.3692   19.1149   23.7437 H   0  0  0  0  0  0  0  0  0  0  0  0
   10.8080   18.3878   23.2905 H   0  0  0  0  0  0  0  0  0  0  0  0
   11.2010   18.6193   24.9933 H   0  0  0  0  0  0  0  0  0  0  0  0
   13.5987   13.1802   22.5974 H   0  0  0  0  0  0  0  0  0  0  0  0
   13.7386   14.3724   21.3206 H   0  0  0  0  0  0  0  0  0  0  0  0
   11.2372   14.3303   21.0221 H   0  0  0  0  0  0  0  0  0  0  0  0
   11.9350   12.7182   20.7800 H   0  0  0  0  0  0  0  0  0  0  0  0
   10.8732   13.4287   23.4299 H   0  0  0  0  0  0  0  0  0  0  0  0
   10.4171    9.7169   22.5877 H   0  0  0  0  0  0  0  0  0  0  0  0
  1  2  2  0  0  0  0
  1  3  1  0  0  0  0
  2  5  1  0  0  0  0
  3 13  2  0  0  0  0
  4  6  2  0  0  0  0
  4 18  1  0  0  0  0
  5  7  2  0  0  0  0
  5  9  1  0  0  0  0
  6 10  1  0  0  0  0
  6 14  1  0  0  0  0
  7 13  1  0  0  0  0
  7 17  1  0  0  0  0
  8 11  1  0  0  0  0
  8 14  2  0  0  0  0
  8 18  1  0  0  0  0
  9 15  1  0  0  0  0
  9 16  2  0  0  0  0
 11 12  1  0  0  0  0
 12 15  1  0  0  0  0
  1 19  1  0  0  0  0
  2 20  1  0  0  0  0
  3 21  1  0  0  0  0
  4 22  1  0  0  0  0
 10 23  1  0  0  0  0
 10 24  1  0  0  0  0
 10 25  1  0  0  0  0
 11 26  1  0  0  0  0
 11 27  1  0  0  0  0
 12 28  1  0  0  0  0
 12 29  1  0  0  0  0
 15 30  1  0  0  0  0
 17 31  1  0  0  0  0
M  END
> <idnumber>
Z370696190

> <heavy_atoms>
18

> <LogS>
-1.48

> <LogP>
2.337

> <rotating_bonds>
4

> <PSA>
75.11

> <hb_acceptors>
4

> <hb_donors>
2

> <Collection>
Legacy

> <link>
https://www.enaminestore.com/catalog/Z370696190

> <ROCS_ShapeQuery>
_x1140_x0812_0A_x1140_0A_x1097_0A_x0365_0A_x1097_0A_x0310_0A

> <ROCS_TanimotoCombo>
0.656 

> <ROCS_ShapeTanimoto>
0.223 

> <ROCS_ColorTanimoto>
0.433 

> <ROCS_RefTversky>
0.205 

> <ROCS_RefColorTversky>
0.605 

> <ROCS_RefTverskyCombo>
0.810 

> <ROCS_FitTversky>
1.635 

> <ROCS_FitColorTversky>
0.604 

> <ROCS_FitTverskyCombo>
2.239 

> <ROCS_ColorScore>
-4.838

> <ROCS_Overlap>
2104.052

> <ROCS_Rank>
98                  

$$$$
untitled-dbase-32690_7
  -OEChem-02092421083D

 25 25  0     0  0  0  0  0  0999 V2000
    8.1828   12.0073   25.4785 C   0  0  0  0  0  0  0  0  0  0  0  0
    9.0396   12.3844   24.4503 C   0  0  0  0  0  0  0  0  0  0  0  0
    7.7351   10.6963   25.5016 C   0  0  0  0  0  0  0  0  0  0  0  0
    9.4171   11.4522   23.4903 C   0  0  0  0  0  0  0  0  0  0  0  0
    8.9143   10.1659   23.6025 C   0  0  0  0  0  0  0  0  0  0  0  0
   10.3253   11.8780   22.4136 C   0  0  0  0  0  0  0  0  0  0  0  0
   12.5131   12.7730   21.7162 C   0  0  0  0  0  0  0  0  0  0  0  0
   12.0855   12.4957   24.1326 C   0  0  0  0  0  0  0  0  0  0  0  0
   11.1348    8.8759   22.6443 C   0  0  0  0  0  0  0  0  0  0  0  0
    8.0800    9.7625   24.5868 N   0  0  0  0  0  0  0  0  0  0  0  0
   11.5901   12.3611   22.7644 N   0  0  0  0  0  0  0  0  0  0  0  0
    9.8997   11.7623   21.2649 O   0  0  0  0  0  0  0  0  0  0  0  0
    9.3446    8.8983   22.4151 S   0  0  0  0  0  0  0  0  0  0  0  0
    7.8749   12.7169   26.2375 H   0  0  0  0  0  0  0  0  0  0  0  0
    9.4054   13.4072   24.4097 H   0  0  0  0  0  0  0  0  0  0  0  0
    7.0646   10.3524   26.2822 H   0  0  0  0  0  0  0  0  0  0  0  0
   12.3656   13.8405   21.4957 H   0  0  0  0  0  0  0  0  0  0  0  0
   13.5472   12.6077   22.0526 H   0  0  0  0  0  0  0  0  0  0  0  0
   12.3239   12.1816   20.8081 H   0  0  0  0  0  0  0  0  0  0  0  0
   12.5900   11.5657   24.4336 H   0  0  0  0  0  0  0  0  0  0  0  0
   12.7979   13.3323   24.1838 H   0  0  0  0  0  0  0  0  0  0  0  0
   11.2415   12.6908   24.8105 H   0  0  0  0  0  0  0  0  0  0  0  0
   11.5856    8.1356   21.9789 H   0  0  0  0  0  0  0  0  0  0  0  0
   11.3733    8.6171   23.6789 H   0  0  0  0  0  0  0  0  0  0  0  0
   11.5504    9.8607   22.4173 H   0  0  0  0  0  0  0  0  0  0  0  0
  1  2  2  0  0  0  0
  1  3  1  0  0  0  0
  2  4  1  0  0  0  0
  3 10  2  0  0  0  0
  4  5  2  0  0  0  0
  4  6  1  0  0  0  0
  5 10  1  0  0  0  0
  5 13  1  0  0  0  0
  6 11  1  0  0  0  0
  6 12  2  0  0  0  0
  7 11  1  0  0  0  0
  8 11  1  0  0  0  0
  9 13  1  0  0  0  0
  1 14  1  0  0  0  0
  2 15  1  0  0  0  0
  3 16  1  0  0  0  0
  7 17  1  0  0  0  0
  7 18  1  0  0  0  0
  7 19  1  0  0  0  0
  8 20  1  0  0  0  0
  8 21  1  0  0  0  0
  8 22  1  0  0  0  0
  9 23  1  0  0  0  0
  9 24  1  0  0  0  0
  9 25  1  0  0  0  0
M  END
> <idnumber>
Z144495212

> <heavy_atoms>
13

> <LogS>
-1.86

> <LogP>
0.656

> <rotating_bonds>
2

> <PSA>
33.2

> <hb_acceptors>
2

> <hb_donors>
0

> <Collection>
Functional

> <link>
https://www.enaminestore.com/catalog/Z144495212

> <ROCS_ShapeQuery>
_x1140_x0812_0A_x1140_0A_x1097_0A_x0365_0A_x1097_0A_x0310_0A

> <ROCS_TanimotoCombo>
0.656 

> <ROCS_ShapeTanimoto>
0.215 

> <ROCS_ColorTanimoto>
0.441 

> <ROCS_RefTversky>
0.195 

> <ROCS_RefColorTversky>
0.471 

> <ROCS_RefTverskyCombo>
0.666 

> <ROCS_FitTversky>
1.891 

> <ROCS_FitColorTversky>
0.874 

> <ROCS_FitTverskyCombo>
2.765 

> <ROCS_ColorScore>
-3.672

> <ROCS_Overlap>
1998.092

> <ROCS_Rank>
99                  

$$$$
untitled-dbase-184876_104
  -OEChem-02092421083D

 31 32  0     0  0  0  0  0  0999 V2000
    7.2998   11.8495   25.1281 C   0  0  0  0  0  0  0  0  0  0  0  0
    8.2000   12.3577   24.1982 C   0  0  0  0  0  0  0  0  0  0  0  0
    7.3090   10.4835   25.3601 C   0  0  0  0  0  0  0  0  0  0  0  0
   11.0366   17.0778   21.7516 C   0  0  0  0  0  0  0  0  0  0  0  0
    9.0695   11.4967   23.5381 C   0  0  0  0  0  0  0  0  0  0  0  0
    8.9996   10.1465   23.8414 C   0  0  0  0  0  0  0  0  0  0  0  0
   11.7974   15.0901   22.1753 C   0  0  0  0  0  0  0  0  0  0  0  0
   10.0134   12.0212   22.5633 C   0  0  0  0  0  0  0  0  0  0  0  0
    8.4243   15.1910   21.4297 C   0  0  0  0  0  0  0  0  0  0  0  0
   11.9251   13.5942   22.1706 C   0  0  0  0  0  0  0  0  0  0  0  0
    9.7579   15.1974   20.7024 C   0  0  0  0  0  0  0  0  0  0  0  0
    8.1386    9.6158   24.7385 N   0  0  0  0  0  0  0  0  0  0  0  0
   12.0908   17.2150   22.5237 N   0  0  0  0  0  0  0  0  0  0  0  0
   12.5749   15.9504   22.7933 N   0  0  0  0  0  0  0  0  0  0  0  0
   10.8155   15.7564   21.5069 N   0  0  0  0  0  0  0  0  0  0  0  0
   10.9403   12.9647   23.0208 N   0  0  0  0  0  0  0  0  0  0  0  0
    9.9675   11.6496   21.3774 O   0  0  0  0  0  0  0  0  0  0  0  0
    9.8391    9.2635   23.2129 O   0  0  0  0  0  0  0  0  0  0  0  0
    6.6133   12.5015   25.6560 H   0  0  0  0  0  0  0  0  0  0  0  0
    8.2151   13.4254   23.9958 H   0  0  0  0  0  0  0  0  0  0  0  0
    6.6273   10.0367   26.0763 H   0  0  0  0  0  0  0  0  0  0  0  0
   10.4201   17.8721   21.3556 H   0  0  0  0  0  0  0  0  0  0  0  0
    8.4810   14.6080   22.3551 H   0  0  0  0  0  0  0  0  0  0  0  0
    7.6486   14.7505   20.7958 H   0  0  0  0  0  0  0  0  0  0  0  0
    8.1132   16.2071   21.6941 H   0  0  0  0  0  0  0  0  0  0  0  0
   11.7976   13.1990   21.1569 H   0  0  0  0  0  0  0  0  0  0  0  0
   12.9157   13.2832   22.5187 H   0  0  0  0  0  0  0  0  0  0  0  0
    9.6913   15.7828   19.7784 H   0  0  0  0  0  0  0  0  0  0  0  0
   10.0498   14.1790   20.4219 H   0  0  0  0  0  0  0  0  0  0  0  0
   10.8933   13.2798   23.9843 H   0  0  0  0  0  0  0  0  0  0  0  0
   10.4107    9.7398   22.5950 H   0  0  0  0  0  0  0  0  0  0  0  0
  1  2  2  0  0  0  0
  1  3  1  0  0  0  0
  2  5  1  0  0  0  0
  3 12  2  0  0  0  0
  4 13  2  0  0  0  0
  4 15  1  0  0  0  0
  5  6  2  0  0  0  0
  5  8  1  0  0  0  0
  6 12  1  0  0  0  0
  6 18  1  0  0  0  0
  7 10  1  0  0  0  0
  7 14  2  0  0  0  0
  7 15  1  0  0  0  0
  8 16  1  0  0  0  0
  8 17  2  0  0  0  0
  9 11  1  0  0  0  0
 10 16  1  0  0  0  0
 11 15  1  0  0  0  0
 13 14  1  0  0  0  0
  1 19  1  0  0  0  0
  2 20  1  0  0  0  0
  3 21  1  0  0  0  0
  4 22  1  0  0  0  0
  9 23  1  0  0  0  0
  9 24  1  0  0  0  0
  9 25  1  0  0  0  0
 10 26  1  0  0  0  0
 10 27  1  0  0  0  0
 11 28  1  0  0  0  0
 11 29  1  0  0  0  0
 16 30  1  0  0  0  0
 18 31  1  0  0  0  0
M  END
> <idnumber>
Z424694312

> <heavy_atoms>
18

> <LogS>
-1.12

> <LogP>
0.671

> <rotating_bonds>
4

> <PSA>
92.93

> <hb_acceptors>
5

> <hb_donors>
2

> <Collection>
Legacy

> <link>
https://www.enaminestore.com/catalog/Z424694312

> <ROCS_ShapeQuery>
_x1140_x0812_0A_x1140_0A_x1097_0A_x0365_0A_x1097_0A_x0310_0A

> <ROCS_TanimotoCombo>
0.656 

> <ROCS_ShapeTanimoto>
0.238 

> <ROCS_ColorTanimoto>
0.418 

> <ROCS_RefTversky>
0.217 

> <ROCS_RefColorTversky>
0.633 

> <ROCS_RefTverskyCombo>
0.849 

> <ROCS_FitTversky>
1.691 

> <ROCS_FitColorTversky>
0.552 

> <ROCS_FitTverskyCombo>
2.243 

> <ROCS_ColorScore>
-5.102

> <ROCS_Overlap>
2222.489

> <ROCS_Rank>
100                 

$$$$
untitled-dbase-704124_13
  -OEChem-02092421083D

 27 28  0     0  0  0  0  0  0999 V2000
   11.9237   15.3015   22.3074 C   0  0  0  0  0  0  0  0  0  0  0  0
    7.6214   12.0066   25.3717 C   0  0  0  0  0  0  0  0  0  0  0  0
    8.4520   12.4998   24.3717 C   0  0  0  0  0  0  0  0  0  0  0  0
    7.5413   10.6323   25.5291 C   0  0  0  0  0  0  0  0  0  0  0  0
    9.1671   11.6162   23.5709 C   0  0  0  0  0  0  0  0  0  0  0  0
    9.0180   10.2594   23.8090 C   0  0  0  0  0  0  0  0  0  0  0  0
   10.0560   12.1357   22.4999 C   0  0  0  0  0  0  0  0  0  0  0  0
   12.3132   13.6568   19.8260 C   0  0  0  0  0  0  0  0  0  0  0  0
   10.9142   14.0496   20.3396 C   0  0  0  0  0  0  0  0  0  0  0  0
   12.6106   13.1026   21.2333 C   0  0  0  0  0  0  0  0  0  0  0  0
   11.4887   14.0251   21.7817 C   0  0  0  0  0  0  0  0  0  0  0  0
   12.2725   16.3247   22.7288 N   0  0  0  0  0  0  0  0  0  0  0  0
    8.2206    9.7428   24.7708 N   0  0  0  0  0  0  0  0  0  0  0  0
   10.6132   13.3690   22.7482 N   0  0  0  0  0  0  0  0  0  0  0  0
   10.2211   11.4694   21.4814 O   0  0  0  0  0  0  0  0  0  0  0  0
    9.7050    9.3542   23.0420 O   0  0  0  0  0  0  0  0  0  0  0  0
    7.0552   12.6762   26.0090 H   0  0  0  0  0  0  0  0  0  0  0  0
    8.5344   13.5735   24.2251 H   0  0  0  0  0  0  0  0  0  0  0  0
    6.9083   10.1965   26.2951 H   0  0  0  0  0  0  0  0  0  0  0  0
   12.2971   12.8892   19.0433 H   0  0  0  0  0  0  0  0  0  0  0  0
   12.9482   14.4841   19.4976 H   0  0  0  0  0  0  0  0  0  0  0  0
   10.5879   15.0391   19.9930 H   0  0  0  0  0  0  0  0  0  0  0  0
   10.1194   13.3301   20.1164 H   0  0  0  0  0  0  0  0  0  0  0  0
   12.4585   12.0243   21.3487 H   0  0  0  0  0  0  0  0  0  0  0  0
   13.6200   13.3466   21.5902 H   0  0  0  0  0  0  0  0  0  0  0  0
   10.3913   13.8978   23.5753 H   0  0  0  0  0  0  0  0  0  0  0  0
    9.4948    8.4555   23.3309 H   0  0  0  0  0  0  0  0  0  0  0  0
  1 11  1  0  0  0  0
  1 12  3  0  0  0  0
  2  3  2  0  0  0  0
  2  4  1  0  0  0  0
  3  5  1  0  0  0  0
  4 13  2  0  0  0  0
  5  6  2  0  0  0  0
  5  7  1  0  0  0  0
  6 13  1  0  0  0  0
  6 16  1  0  0  0  0
  7 14  1  0  0  0  0
  7 15  2  0  0  0  0
  8  9  1  0  0  0  0
  8 10  1  0  0  0  0
  9 11  1  0  0  0  0
 10 11  1  0  0  0  0
 11 14  1  0  0  0  0
  2 17  1  0  0  0  0
  3 18  1  0  0  0  0
  4 19  1  0  0  0  0
  8 20  1  0  0  0  0
  8 21  1  0  0  0  0
  9 22  1  0  0  0  0
  9 23  1  0  0  0  0
 10 24  1  0  0  0  0
 10 25  1  0  0  0  0
 14 26  1  0  0  0  0
 16 27  1  0  0  0  0
M  END
> <idnumber>
Z999344170

> <heavy_atoms>
16

> <LogS>
-2

> <LogP>
1.578

> <rotating_bonds>
2

> <PSA>
86.01

> <hb_acceptors>
4

> <hb_donors>
2

> <Collection>
Functional

> <link>
https://www.enaminestore.com/catalog/Z999344170

> <ROCS_ShapeQuery>
_x1140_x0812_0A_x1140_0A_x1097_0A_x0365_0A_x1097_0A_x0310_0A

> <ROCS_TanimotoCombo>
0.655 

> <ROCS_ShapeTanimoto>
0.232 

> <ROCS_ColorTanimoto>
0.423 

> <ROCS_RefTversky>
0.211 

> <ROCS_RefColorTversky>
0.595 

> <ROCS_RefTverskyCombo>
0.806 

> <ROCS_FitTversky>
1.770 

> <ROCS_FitColorTversky>
0.594 

> <ROCS_FitTverskyCombo>
2.365 

> <ROCS_ColorScore>
-4.762

> <ROCS_Overlap>
2161.040

> <ROCS_Rank>
101                 

$$$$
untitled-dbase-1078106_29
  -OEChem-02092421083D

 35 36  0     0  0  0  0  0  0999 V2000
    9.0020   12.4927   25.0282 C   0  0  0  0  0  0  0  0  0  0  0  0
    7.7627   12.0061   25.4553 C   0  0  0  0  0  0  0  0  0  0  0  0
    9.8693   11.6650   24.3306 C   0  0  0  0  0  0  0  0  0  0  0  0
    9.4617   10.3678   24.0901 C   0  0  0  0  0  0  0  0  0  0  0  0
    7.4342   10.6681   25.1864 C   0  0  0  0  0  0  0  0  0  0  0  0
   10.4606   12.3296   21.4486 C   0  0  0  0  0  0  0  0  0  0  0  0
    6.8265   12.8973   26.2294 C   0  0  0  0  0  0  0  0  0  0  0  0
    5.3933   12.3689   26.1858 C   0  0  0  0  0  0  0  0  0  0  0  0
    5.3711   10.8840   26.5263 C   0  0  0  0  0  0  0  0  0  0  0  0
   10.3450    9.4286   23.3358 C   0  0  0  0  0  0  0  0  0  0  0  0
   10.4578   12.2699   19.0832 C   0  0  0  0  0  0  0  0  0  0  0  0
   11.1867   12.1829   23.8683 C   0  0  0  0  0  0  0  0  0  0  0  0
   11.0687   13.0666   22.6202 C   0  0  0  0  0  0  0  0  0  0  0  0
    8.2772    9.8574   24.4970 N   0  0  0  0  0  0  0  0  0  0  0  0
    6.2172   10.1478   25.6092 N   0  0  0  0  0  0  0  0  0  0  0  0
    9.6669   11.4026   21.5330 O   0  0  0  0  0  0  0  0  0  0  0  0
   10.9437   12.8675   20.2895 O   0  0  0  0  0  0  0  0  0  0  0  0
    9.2859   13.5196   25.2460 H   0  0  0  0  0  0  0  0  0  0  0  0
    7.1483   12.9680   27.2750 H   0  0  0  0  0  0  0  0  0  0  0  0
    6.8657   13.9040   25.7960 H   0  0  0  0  0  0  0  0  0  0  0  0
    4.7663   12.9199   26.8990 H   0  0  0  0  0  0  0  0  0  0  0  0
    4.9666   12.5352   25.1903 H   0  0  0  0  0  0  0  0  0  0  0  0
    5.7250   10.7285   27.5508 H   0  0  0  0  0  0  0  0  0  0  0  0
    4.3473   10.4957   26.4717 H   0  0  0  0  0  0  0  0  0  0  0  0
   11.0040    8.8898   24.0264 H   0  0  0  0  0  0  0  0  0  0  0  0
    9.7547    8.6958   22.7722 H   0  0  0  0  0  0  0  0  0  0  0  0
   10.9654    9.9665   22.6082 H   0  0  0  0  0  0  0  0  0  0  0  0
   10.9043   12.7720   18.2214 H   0  0  0  0  0  0  0  0  0  0  0  0
    9.3690   12.3569   19.0454 H   0  0  0  0  0  0  0  0  0  0  0  0
   10.7375   11.2138   19.0720 H   0  0  0  0  0  0  0  0  0  0  0  0
   11.6753   12.7553   24.6729 H   0  0  0  0  0  0  0  0  0  0  0  0
   11.8724   11.3469   23.6569 H   0  0  0  0  0  0  0  0  0  0  0  0
   12.0624   13.4210   22.3218 H   0  0  0  0  0  0  0  0  0  0  0  0
   10.4388   13.9365   22.8406 H   0  0  0  0  0  0  0  0  0  0  0  0
    5.8513    9.3354   25.1282 H   0  0  0  0  0  0  0  0  0  0  0  0
  1  2  2  0  0  0  0
  1  3  1  0  0  0  0
  2  5  1  0  0  0  0
  2  7  1  0  0  0  0
  3  4  2  0  0  0  0
  3 12  1  0  0  0  0
  4 10  1  0  0  0  0
  4 14  1  0  0  0  0
  5 14  2  0  0  0  0
  5 15  1  0  0  0  0
  6 13  1  0  0  0  0
  6 16  2  0  0  0  0
  6 17  1  0  0  0  0
  7  8  1  0  0  0  0
  8  9  1  0  0  0  0
  9 15  1  0  0  0  0
 11 17  1  0  0  0  0
 12 13  1  0  0  0  0
  1 18  1  0  0  0  0
  7 19  1  0  0  0  0
  7 20  1  0  0  0  0
  8 21  1  0  0  0  0
  8 22  1  0  0  0  0
  9 23  1  0  0  0  0
  9 24  1  0  0  0  0
 10 25  1  0  0  0  0
 10 26  1  0  0  0  0
 10 27  1  0  0  0  0
 11 28  1  0  0  0  0
 11 29  1  0  0  0  0
 11 30  1  0  0  0  0
 12 31  1  0  0  0  0
 12 32  1  0  0  0  0
 13 33  1  0  0  0  0
 13 34  1  0  0  0  0
 15 35  1  0  0  0  0
M  END
> <idnumber>
Z4323302746

> <heavy_atoms>
18

> <LogS>
-1.73

> <LogP>
2.246

> <rotating_bonds>
4

> <PSA>
51.22

> <hb_acceptors>
3

> <hb_donors>
1

> <SaltType>
Cl

> <Collection>
Advanced

> <link>
https://www.enaminestore.com/catalog/Z4323302746

> <ROCS_ShapeQuery>
_x1140_x0812_0A_x1140_0A_x1097_0A_x0365_0A_x1097_0A_x0310_0A

> <ROCS_TanimotoCombo>
0.655 

> <ROCS_ShapeTanimoto>
0.256 

> <ROCS_ColorTanimoto>
0.399 

> <ROCS_RefTversky>
0.229 

> <ROCS_RefColorTversky>
0.472 

> <ROCS_RefTverskyCombo>
0.701 

> <ROCS_FitTversky>
1.883 

> <ROCS_FitColorTversky>
0.719 

> <ROCS_FitTverskyCombo>
2.602 

> <ROCS_ColorScore>
-3.706

> <ROCS_Overlap>
2347.673

> <ROCS_Rank>
102                 

$$$$
untitled-dbase-44314_25
  -OEChem-02092421083D

 26 27  0     0  0  0  0  0  0999 V2000
    7.9507   11.9578   25.4139 C   0  0  0  0  0  0  0  0  0  0  0  0
    8.7265   12.3569   24.3312 C   0  0  0  0  0  0  0  0  0  0  0  0
    7.6483   10.6110   25.5336 C   0  0  0  0  0  0  0  0  0  0  0  0
    9.1699   11.4103   23.4143 C   0  0  0  0  0  0  0  0  0  0  0  0
    8.8131   10.0879   23.6237 C   0  0  0  0  0  0  0  0  0  0  0  0
    9.9819   11.8556   22.2894 C   0  0  0  0  0  0  0  0  0  0  0  0
   12.3577   14.4785   21.4662 C   0  0  0  0  0  0  0  0  0  0  0  0
   13.4387   13.5622   21.9627 C   0  0  0  0  0  0  0  0  0  0  0  0
   12.0946   13.0049   21.5903 C   0  0  0  0  0  0  0  0  0  0  0  0
   11.1264    8.9813   22.6556 C   0  0  0  0  0  0  0  0  0  0  0  0
    8.0609    9.6623   24.6633 N   0  0  0  0  0  0  0  0  0  0  0  0
   11.1920   12.4873   22.5933 N   0  0  0  0  0  0  0  0  0  0  0  0
    9.5859   11.6891   21.1236 O   0  0  0  0  0  0  0  0  0  0  0  0
    9.3375    8.7996   22.4980 S   0  0  0  0  0  0  0  0  0  0  0  0
    7.5938   12.6780   26.1408 H   0  0  0  0  0  0  0  0  0  0  0  0
    8.9781   13.4079   24.2146 H   0  0  0  0  0  0  0  0  0  0  0  0
    7.0456   10.2487   26.3599 H   0  0  0  0  0  0  0  0  0  0  0  0
   11.8990   15.1486   22.1830 H   0  0  0  0  0  0  0  0  0  0  0  0
   12.4622   14.8902   20.4697 H   0  0  0  0  0  0  0  0  0  0  0  0
   14.2703   13.3574   21.3000 H   0  0  0  0  0  0  0  0  0  0  0  0
   13.7025   13.6176   23.0117 H   0  0  0  0  0  0  0  0  0  0  0  0
   12.0410   12.4416   20.6648 H   0  0  0  0  0  0  0  0  0  0  0  0
   11.6317    8.2518   22.0180 H   0  0  0  0  0  0  0  0  0  0  0  0
   11.4262    8.8159   23.6934 H   0  0  0  0  0  0  0  0  0  0  0  0
   11.4252    9.9879   22.3533 H   0  0  0  0  0  0  0  0  0  0  0  0
   11.4365   12.6534   23.5641 H   0  0  0  0  0  0  0  0  0  0  0  0
  1  2  2  0  0  0  0
  1  3  1  0  0  0  0
  2  4  1  0  0  0  0
  3 11  2  0  0  0  0
  4  5  2  0  0  0  0
  4  6  1  0  0  0  0
  5 11  1  0  0  0  0
  5 14  1  0  0  0  0
  6 12  1  0  0  0  0
  6 13  2  0  0  0  0
  7  8  1  0  0  0  0
  7  9  1  0  0  0  0
  8  9  1  0  0  0  0
  9 12  1  0  0  0  0
 10 14  1  0  0  0  0
  1 15  1  0  0  0  0
  2 16  1  0  0  0  0
  3 17  1  0  0  0  0
  7 18  1  0  0  0  0
  7 19  1  0  0  0  0
  8 20  1  0  0  0  0
  8 21  1  0  0  0  0
  9 22  1  0  0  0  0
 10 23  1  0  0  0  0
 10 24  1  0  0  0  0
 10 25  1  0  0  0  0
 12 26  1  0  0  0  0
M  END
> <idnumber>
Z54655471

> <heavy_atoms>
14

> <LogS>
-2.36

> <LogP>
1.138

> <rotating_bonds>
3

> <PSA>
41.99

> <hb_acceptors>
2

> <hb_donors>
1

> <Collection>
Functional

> <link>
https://www.enaminestore.com/catalog/Z54655471

> <ROCS_ShapeQuery>
_x1140_x0812_0A_x1140_0A_x1097_0A_x0365_0A_x1097_0A_x0310_0A

> <ROCS_TanimotoCombo>
0.655 

> <ROCS_ShapeTanimoto>
0.216 

> <ROCS_ColorTanimoto>
0.438 

> <ROCS_RefTversky>
0.197 

> <ROCS_RefColorTversky>
0.505 

> <ROCS_RefTverskyCombo>
0.702 

> <ROCS_FitTversky>
1.831 

> <ROCS_FitColorTversky>
0.769 

> <ROCS_FitTverskyCombo>
2.600 

> <ROCS_ColorScore>
-3.963

> <ROCS_Overlap>
2019.388

> <ROCS_Rank>
103                 

$$$$
untitled-dbase-622053_26
  -OEChem-02092421083D

 48 50  0     0  0  0  0  0  0999 V2000
    5.2790   12.0630   26.5007 C   0  0  0  0  0  0  0  0  0  0  0  0
    5.5521   10.7773   26.9511 C   0  0  0  0  0  0  0  0  0  0  0  0
    6.0497   12.6114   25.4796 C   0  0  0  0  0  0  0  0  0  0  0  0
    6.5945   10.0434   26.3797 C   0  0  0  0  0  0  0  0  0  0  0  0
    7.0981   11.8730   24.9051 C   0  0  0  0  0  0  0  0  0  0  0  0
    8.9176   11.6461   23.3293 C   0  0  0  0  0  0  0  0  0  0  0  0
    7.8896   12.4007   23.8760 C   0  0  0  0  0  0  0  0  0  0  0  0
    7.3810   10.5670   25.3572 C   0  0  0  0  0  0  0  0  0  0  0  0
    9.1184   10.3785   23.8370 C   0  0  0  0  0  0  0  0  0  0  0  0
    9.7642   12.1673   22.2488 C   0  0  0  0  0  0  0  0  0  0  0  0
   12.3298   14.4670   21.3020 C   0  0  0  0  0  0  0  0  0  0  0  0
   12.4910   13.9969   23.7813 C   0  0  0  0  0  0  0  0  0  0  0  0
   10.8206   14.2288   21.3859 C   0  0  0  0  0  0  0  0  0  0  0  0
   10.9773   13.7800   23.8058 C   0  0  0  0  0  0  0  0  0  0  0  0
   12.9116   14.9458   22.6437 C   0  0  0  0  0  0  0  0  0  0  0  0
    7.6485   13.7819   23.3441 C   0  0  0  0  0  0  0  0  0  0  0  0
   14.4344   15.0554   22.5610 C   0  0  0  0  0  0  0  0  0  0  0  0
   12.5111   18.6008   22.4975 C   0  0  0  0  0  0  0  0  0  0  0  0
   13.0989   17.2422   22.1807 C   0  0  0  0  0  0  0  0  0  0  0  0
    8.3779    9.8324   24.8287 N   0  0  0  0  0  0  0  0  0  0  0  0
   10.5030   13.3272   22.4924 N   0  0  0  0  0  0  0  0  0  0  0  0
    9.7634   11.5243   21.2001 O   0  0  0  0  0  0  0  0  0  0  0  0
   10.1186    9.5901   23.3296 O   0  0  0  0  0  0  0  0  0  0  0  0
   12.3925   16.2521   22.9093 O   0  0  0  0  0  0  0  0  0  0  0  0
    4.4701   12.6362   26.9433 H   0  0  0  0  0  0  0  0  0  0  0  0
    4.9556   10.3410   27.7471 H   0  0  0  0  0  0  0  0  0  0  0  0
    5.8143   13.6197   25.1481 H   0  0  0  0  0  0  0  0  0  0  0  0
    6.7897    9.0393   26.7522 H   0  0  0  0  0  0  0  0  0  0  0  0
   12.8219   13.5376   20.9880 H   0  0  0  0  0  0  0  0  0  0  0  0
   12.5165   15.2165   20.5230 H   0  0  0  0  0  0  0  0  0  0  0  0
   12.7957   14.4116   24.7500 H   0  0  0  0  0  0  0  0  0  0  0  0
   12.9916   13.0269   23.6683 H   0  0  0  0  0  0  0  0  0  0  0  0
   10.2853   15.1693   21.5610 H   0  0  0  0  0  0  0  0  0  0  0  0
   10.4584   13.8184   20.4376 H   0  0  0  0  0  0  0  0  0  0  0  0
   10.7257   13.0653   24.5933 H   0  0  0  0  0  0  0  0  0  0  0  0
   10.4534   14.7145   24.0387 H   0  0  0  0  0  0  0  0  0  0  0  0
    8.2402   14.5084   23.9089 H   0  0  0  0  0  0  0  0  0  0  0  0
    7.9233   13.8463   22.2864 H   0  0  0  0  0  0  0  0  0  0  0  0
    6.5897   14.0502   23.4210 H   0  0  0  0  0  0  0  0  0  0  0  0
   14.8307   15.3947   23.5160 H   0  0  0  0  0  0  0  0  0  0  0  0
   14.7099   15.7677   21.7858 H   0  0  0  0  0  0  0  0  0  0  0  0
   14.8602   14.0830   22.3217 H   0  0  0  0  0  0  0  0  0  0  0  0
   11.4559   18.6452   22.2137 H   0  0  0  0  0  0  0  0  0  0  0  0
   12.5991   18.8197   23.5667 H   0  0  0  0  0  0  0  0  0  0  0  0
   13.0534   19.3894   21.9654 H   0  0  0  0  0  0  0  0  0  0  0  0
   14.1542   17.2045   22.4669 H   0  0  0  0  0  0  0  0  0  0  0  0
   13.0094   17.0247   21.1122 H   0  0  0  0  0  0  0  0  0  0  0  0
   10.5856   10.0658   22.6290 H   0  0  0  0  0  0  0  0  0  0  0  0
  1  2  1  0  0  0  0
  1  3  2  0  0  0  0
  2  4  2  0  0  0  0
  3  5  1  0  0  0  0
  4  8  1  0  0  0  0
  5  7  2  0  0  0  0
  5  8  1  0  0  0  0
  6  7  1  0  0  0  0
  6  9  2  0  0  0  0
  6 10  1  0  0  0  0
  7 16  1  0  0  0  0
  8 20  2  0  0  0  0
  9 20  1  0  0  0  0
  9 23  1  0  0  0  0
 10 21  1  0  0  0  0
 10 22  2  0  0  0  0
 11 13  1  0  0  0  0
 11 15  1  0  0  0  0
 12 14  1  0  0  0  0
 12 15  1  0  0  0  0
 13 21  1  0  0  0  0
 14 21  1  0  0  0  0
 15 17  1  0  0  0  0
 15 24  1  0  0  0  0
 18 19  1  0  0  0  0
 19 24  1  0  0  0  0
  1 25  1  0  0  0  0
  2 26  1  0  0  0  0
  3 27  1  0  0  0  0
  4 28  1  0  0  0  0
 11 29  1  0  0  0  0
 11 30  1  0  0  0  0
 12 31  1  0  0  0  0
 12 32  1  0  0  0  0
 13 33  1  0  0  0  0
 13 34  1  0  0  0  0
 14 35  1  0  0  0  0
 14 36  1  0  0  0  0
 16 37  1  0  0  0  0
 16 38  1  0  0  0  0
 16 39  1  0  0  0  0
 17 40  1  0  0  0  0
 17 41  1  0  0  0  0
 17 42  1  0  0  0  0
 18 43  1  0  0  0  0
 18 44  1  0  0  0  0
 18 45  1  0  0  0  0
 19 46  1  0  0  0  0
 19 47  1  0  0  0  0
 23 48  1  0  0  0  0
M  END
> <idnumber>
Z2207129054

> <heavy_atoms>
24

> <LogS>
-4.305

> <LogP>
2.488

> <rotating_bonds>
3

> <PSA>
62.66

> <hb_acceptors>
4

> <hb_donors>
1

> <Collection>
HTS

> <link>
https://www.enaminestore.com/catalog/Z2207129054

> <ROCS_ShapeQuery>
_x1140_x0812_0A_x1140_0A_x1097_0A_x0365_0A_x1097_0A_x0310_0A

> <ROCS_TanimotoCombo>
0.654 

> <ROCS_ShapeTanimoto>
0.297 

> <ROCS_ColorTanimoto>
0.357 

> <ROCS_RefTversky>
0.264 

> <ROCS_RefColorTversky>
0.527 

> <ROCS_RefTverskyCombo>
0.791 

> <ROCS_FitTversky>
1.724 

> <ROCS_FitColorTversky>
0.526 

> <ROCS_FitTverskyCombo>
2.251 

> <ROCS_ColorScore>
-4.217

> <ROCS_Overlap>
2711.383

> <ROCS_Rank>
104                 

$$$$
untitled-dbase-1084057_34
  -OEChem-02092421083D

 37 39  0     0  0  0  0  0  0999 V2000
    8.5339   12.4304   24.2405 C   0  0  0  0  0  0  0  0  0  0  0  0
    8.9767   10.1736   23.6761 C   0  0  0  0  0  0  0  0  0  0  0  0
    9.2691   11.5124   23.5052 C   0  0  0  0  0  0  0  0  0  0  0  0
    7.5426   11.9874   25.1215 C   0  0  0  0  0  0  0  0  0  0  0  0
    7.2956   10.6091   25.2214 C   0  0  0  0  0  0  0  0  0  0  0  0
   10.3101   11.9438   22.5896 C   0  0  0  0  0  0  0  0  0  0  0  0
    6.7300   12.9830   25.9078 C   0  0  0  0  0  0  0  0  0  0  0  0
    6.0686   12.3266   27.1191 C   0  0  0  0  0  0  0  0  0  0  0  0
   11.8332   15.8658   23.6047 C   0  0  0  0  0  0  0  0  0  0  0  0
   12.3832   16.2349   22.2552 C   0  0  0  0  0  0  0  0  0  0  0  0
    5.3656   11.0414   26.7003 C   0  0  0  0  0  0  0  0  0  0  0  0
   11.5245   15.0101   22.4075 C   0  0  0  0  0  0  0  0  0  0  0  0
   11.8837   12.5117   24.4571 C   0  0  0  0  0  0  0  0  0  0  0  0
   12.1256   13.6517   22.2798 C   0  0  0  0  0  0  0  0  0  0  0  0
    8.0181    9.7073   24.5086 N   0  0  0  0  0  0  0  0  0  0  0  0
    6.3086   10.1352   26.0770 N   0  0  0  0  0  0  0  0  0  0  0  0
   11.4021   12.6765   23.0928 N   0  0  0  0  0  0  0  0  0  0  0  0
   10.1814   11.6251   21.3989 O   0  0  0  0  0  0  0  0  0  0  0  0
    8.7286   13.4953   24.1353 H   0  0  0  0  0  0  0  0  0  0  0  0
    9.5168    9.4039   23.1328 H   0  0  0  0  0  0  0  0  0  0  0  0
    7.3669   13.8062   26.2516 H   0  0  0  0  0  0  0  0  0  0  0  0
    5.9617   13.4038   25.2480 H   0  0  0  0  0  0  0  0  0  0  0  0
    6.8226   12.1022   27.8849 H   0  0  0  0  0  0  0  0  0  0  0  0
    5.3507   13.0199   27.5714 H   0  0  0  0  0  0  0  0  0  0  0  0
   12.5276   15.4900   24.3459 H   0  0  0  0  0  0  0  0  0  0  0  0
   11.0340   16.4759   24.0073 H   0  0  0  0  0  0  0  0  0  0  0  0
   11.9527   17.0924   21.7527 H   0  0  0  0  0  0  0  0  0  0  0  0
   13.4462   16.1066   22.0926 H   0  0  0  0  0  0  0  0  0  0  0  0
    4.9194   10.5553   27.5744 H   0  0  0  0  0  0  0  0  0  0  0  0
    4.5531   11.2629   25.9982 H   0  0  0  0  0  0  0  0  0  0  0  0
   10.5181   15.0487   22.0084 H   0  0  0  0  0  0  0  0  0  0  0  0
   12.6520   11.7248   24.4827 H   0  0  0  0  0  0  0  0  0  0  0  0
   12.3174   13.4591   24.8097 H   0  0  0  0  0  0  0  0  0  0  0  0
   11.0453   12.2268   25.1098 H   0  0  0  0  0  0  0  0  0  0  0  0
   12.0869   13.3396   21.2257 H   0  0  0  0  0  0  0  0  0  0  0  0
   13.1733   13.6900   22.6127 H   0  0  0  0  0  0  0  0  0  0  0  0
    6.1467    9.1363   26.1137 H   0  0  0  0  0  0  0  0  0  0  0  0
  1  3  2  0  0  0  0
  1  4  1  0  0  0  0
  2  3  1  0  0  0  0
  2 15  2  0  0  0  0
  3  6  1  0  0  0  0
  4  5  2  0  0  0  0
  4  7  1  0  0  0  0
  5 15  1  0  0  0  0
  5 16  1  0  0  0  0
  6 17  1  0  0  0  0
  6 18  2  0  0  0  0
  7  8  1  0  0  0  0
  8 11  1  0  0  0  0
  9 10  1  0  0  0  0
  9 12  1  0  0  0  0
 10 12  1  0  0  0  0
 11 16  1  0  0  0  0
 12 14  1  0  0  0  0
 13 17  1  0  0  0  0
 14 17  1  0  0  0  0
  1 19  1  0  0  0  0
  2 20  1  0  0  0  0
  7 21  1  0  0  0  0
  7 22  1  0  0  0  0
  8 23  1  0  0  0  0
  8 24  1  0  0  0  0
  9 25  1  0  0  0  0
  9 26  1  0  0  0  0
 10 27  1  0  0  0  0
 10 28  1  0  0  0  0
 11 29  1  0  0  0  0
 11 30  1  0  0  0  0
 12 31  1  0  0  0  0
 13 32  1  0  0  0  0
 13 33  1  0  0  0  0
 13 34  1  0  0  0  0
 14 35  1  0  0  0  0
 14 36  1  0  0  0  0
 16 37  1  0  0  0  0
M  END
> <idnumber>
Z4348376256

> <heavy_atoms>
18

> <LogS>
-2.146

> <LogP>
1.58

> <rotating_bonds>
3

> <PSA>
45.23

> <hb_acceptors>
3

> <hb_donors>
1

> <Collection>
Advanced

> <link>
https://www.enaminestore.com/catalog/Z4348376256

> <ROCS_ShapeQuery>
_x1140_x0812_0A_x1140_0A_x1097_0A_x0365_0A_x1097_0A_x0310_0A

> <ROCS_TanimotoCombo>
0.654 

> <ROCS_ShapeTanimoto>
0.274 

> <ROCS_ColorTanimoto>
0.380 

> <ROCS_RefTversky>
0.242 

> <ROCS_RefColorTversky>
0.456 

> <ROCS_RefTverskyCombo>
0.699 

> <ROCS_FitTversky>
1.914 

> <ROCS_FitColorTversky>
0.695 

> <ROCS_FitTverskyCombo>
2.608 

> <ROCS_ColorScore>
-3.582

> <ROCS_Overlap>
2485.708

> <ROCS_Rank>
105                 

$$$$
untitled-dbase-416586_58
  -OEChem-02092421083D

 45 48  0     1  0  0  0  0  0999 V2000
    8.5627   12.2295   24.1891 C   0  0  0  0  0  0  0  0  0  0  0  0
    7.5152   11.8529   25.0222 C   0  0  0  0  0  0  0  0  0  0  0  0
   11.9757   17.8463   23.0800 C   0  0  0  0  0  0  0  0  0  0  0  0
    8.9932    9.9272   23.7760 C   0  0  0  0  0  0  0  0  0  0  0  0
   11.5300   17.9010   24.3840 C   0  0  0  0  0  0  0  0  0  0  0  0
    9.3207   11.2545   23.5503 C   0  0  0  0  0  0  0  0  0  0  0  0
    7.2684   10.4989   25.1819 C   0  0  0  0  0  0  0  0  0  0  0  0
   12.3997   15.7743   23.6606 C   0  0  0  0  0  0  0  0  0  0  0  0
   10.4306   11.6204   22.6641 C   0  0  0  0  0  0  0  0  0  0  0  0
    4.2160   11.7478   26.0532 C   0  0  0  0  0  0  0  0  0  0  0  0
    3.9970   10.7625   27.1649 C   0  0  0  0  0  0  0  0  0  0  0  0
   12.2371   12.8653   25.4002 C   0  0  0  0  0  0  0  0  0  0  0  0
   13.3218   13.7548   24.7863 C   0  0  0  0  0  0  0  0  0  0  0  0
   12.0324   11.5528   24.6423 C   0  0  0  0  0  0  0  0  0  0  0  0
   12.8446   13.7583   22.2900 C   0  0  0  0  0  0  0  0  0  0  0  0
   12.7994   12.2314   22.3786 C   0  0  0  0  0  0  0  0  0  0  0  0
    5.3925   11.0908   26.7169 C   0  0  0  0  0  0  0  0  0  0  0  0
    7.9830    9.5228   24.5783 N   0  0  0  0  0  0  0  0  0  0  0  0
   12.4751   16.6277   22.6635 N   0  0  0  0  0  0  0  0  0  0  0  0
   12.8212   14.4415   23.5912 N   0  0  3  0  0  0  0  0  0  0  0  0
   11.7040   11.7584   23.2259 N   0  0  0  0  0  0  0  0  0  0  0  0
    6.1986   10.1312   26.0353 N   0  0  0  0  0  0  0  0  0  0  0  0
   10.1482   11.7909   21.4790 O   0  0  0  0  0  0  0  0  0  0  0  0
   11.7382   16.3697   25.1279 S   0  0  0  0  0  0  0  0  0  0  0  0
    8.7804   13.2844   24.0459 H   0  0  0  0  0  0  0  0  0  0  0  0
    6.9181   12.6072   25.5246 H   0  0  0  0  0  0  0  0  0  0  0  0
   11.9583   18.6743   22.3843 H   0  0  0  0  0  0  0  0  0  0  0  0
    9.5483    9.1208   23.3062 H   0  0  0  0  0  0  0  0  0  0  0  0
   11.1059   18.7401   24.9169 H   0  0  0  0  0  0  0  0  0  0  0  0
    3.9520   11.4400   25.0491 H   0  0  0  0  0  0  0  0  0  0  0  0
    4.0373   12.7949   26.2646 H   0  0  0  0  0  0  0  0  0  0  0  0
    3.6707   11.1472   28.1231 H   0  0  0  0  0  0  0  0  0  0  0  0
    3.5855    9.7949   26.9049 H   0  0  0  0  0  0  0  0  0  0  0  0
   12.4661   12.6635   26.4523 H   0  0  0  0  0  0  0  0  0  0  0  0
   11.2944   13.4233   25.3906 H   0  0  0  0  0  0  0  0  0  0  0  0
   13.6657   14.4851   25.5242 H   0  0  0  0  0  0  0  0  0  0  0  0
   14.1907   13.1414   24.5300 H   0  0  0  0  0  0  0  0  0  0  0  0
   12.9653   10.9708   24.7008 H   0  0  0  0  0  0  0  0  0  0  0  0
   11.2523   10.9293   25.1058 H   0  0  0  0  0  0  0  0  0  0  0  0
   13.7547   14.0639   21.7324 H   0  0  0  0  0  0  0  0  0  0  0  0
   12.0077   14.1185   21.6553 H   0  0  0  0  0  0  0  0  0  0  0  0
   12.6493   11.8118   21.3861 H   0  0  0  0  0  0  0  0  0  0  0  0
   13.7531   11.8747   22.7552 H   0  0  0  0  0  0  0  0  0  0  0  0
    5.9862   11.7104   27.3799 H   0  0  0  0  0  0  0  0  0  0  0  0
    6.0286    9.1522   26.1440 H   0  0  0  0  0  0  0  0  0  0  0  0
  1  2  2  0  0  0  0
  1  6  1  0  0  0  0
  2  7  1  0  0  0  0
  3  5  2  0  0  0  0
  3 19  1  0  0  0  0
  4  6  2  0  0  0  0
  4 18  1  0  0  0  0
  5 24  1  0  0  0  0
  6  9  1  0  0  0  0
  7 18  2  0  0  0  0
  7 22  1  0  0  0  0
  8 19  2  0  0  0  0
  8 20  1  0  0  0  0
  8 24  1  0  0  0  0
  9 21  1  0  0  0  0
  9 23  2  0  0  0  0
 10 11  1  0  0  0  0
 10 17  1  0  0  0  0
 11 17  1  0  0  0  0
 12 13  1  0  0  0  0
 12 14  1  0  0  0  0
 13 20  1  0  0  0  0
 14 21  1  0  0  0  0
 15 16  1  0  0  0  0
 15 20  1  0  0  0  0
 16 21  1  0  0  0  0
 17 22  1  0  0  0  0
  1 25  1  0  0  0  0
  2 26  1  0  0  0  0
  3 27  1  0  0  0  0
  4 28  1  0  0  0  0
  5 29  1  0  0  0  0
 10 30  1  0  0  0  0
 10 31  1  0  0  0  0
 11 32  1  0  0  0  0
 11 33  1  0  0  0  0
 12 34  1  0  0  0  0
 12 35  1  0  0  0  0
 13 36  1  0  0  0  0
 13 37  1  0  0  0  0
 14 38  1  0  0  0  0
 14 39  1  0  0  0  0
 15 40  1  0  0  0  0
 15 41  1  0  0  0  0
 16 42  1  0  0  0  0
 16 43  1  0  0  0  0
 17 44  1  0  0  0  0
 22 45  1  0  0  0  0
M  END
> <idnumber>
Z853631860

> <heavy_atoms>
24

> <LogS>
-3.58

> <LogP>
1.629

> <rotating_bonds>
4

> <PSA>
61.36

> <hb_acceptors>
5

> <hb_donors>
1

> <Collection>
HTS

> <link>
https://www.enaminestore.com/catalog/Z853631860

> <ROCS_ShapeQuery>
_x1140_x0812_0A_x1140_0A_x1097_0A_x0365_0A_x1097_0A_x0310_0A

> <ROCS_TanimotoCombo>
0.653 

> <ROCS_ShapeTanimoto>
0.242 

> <ROCS_ColorTanimoto>
0.411 

> <ROCS_RefTversky>
0.225 

> <ROCS_RefColorTversky>
0.550 

> <ROCS_RefTverskyCombo>
0.774 

> <ROCS_FitTversky>
1.484 

> <ROCS_FitColorTversky>
0.620 

> <ROCS_FitTverskyCombo>
2.103 

> <ROCS_ColorScore>
-4.369

> <ROCS_Overlap>
2308.626

> <ROCS_Rank>
106                 

$$$$
untitled-dbase-145072_33
  -OEChem-02092421083D

 34 35  0     0  0  0  0  0  0999 V2000
    8.3630   12.5385   24.3612 C   0  0  0  0  0  0  0  0  0  0  0  0
    7.3662   11.9303   25.1160 C   0  0  0  0  0  0  0  0  0  0  0  0
    9.1140   10.3784   23.7081 C   0  0  0  0  0  0  0  0  0  0  0  0
    9.2576   11.7549   23.6408 C   0  0  0  0  0  0  0  0  0  0  0  0
    7.3071   10.5460   25.1171 C   0  0  0  0  0  0  0  0  0  0  0  0
   12.0875   16.3887   21.5267 C   0  0  0  0  0  0  0  0  0  0  0  0
   10.5508   13.7021   22.7025 C   0  0  0  0  0  0  0  0  0  0  0  0
   11.8487   17.3845   20.4160 C   0  0  0  0  0  0  0  0  0  0  0  0
   10.8031   16.6973   19.5460 C   0  0  0  0  0  0  0  0  0  0  0  0
   11.0849   15.2204   19.7364 C   0  0  0  0  0  0  0  0  0  0  0  0
    5.7668   10.5365   27.0799 C   0  0  0  0  0  0  0  0  0  0  0  0
   11.7415   13.9020   21.7849 C   0  0  0  0  0  0  0  0  0  0  0  0
    8.1584    9.7515   24.4302 N   0  0  0  0  0  0  0  0  0  0  0  0
   11.6135   15.1580   21.0783 N   0  0  0  0  0  0  0  0  0  0  0  0
   10.2831   12.3453   22.8646 N   0  0  0  0  0  0  0  0  0  0  0  0
    6.2866    9.9412   25.8923 N   0  0  0  0  0  0  0  0  0  0  0  0
   12.6396   16.6470   22.5857 O   0  0  0  0  0  0  0  0  0  0  0  0
    9.9521   14.6443   23.2115 O   0  0  0  0  0  0  0  0  0  0  0  0
    8.4340   13.6227   24.3423 H   0  0  0  0  0  0  0  0  0  0  0  0
    6.6625   12.5343   25.6801 H   0  0  0  0  0  0  0  0  0  0  0  0
    9.7824    9.7139   23.1688 H   0  0  0  0  0  0  0  0  0  0  0  0
   11.4862   18.3359   20.8127 H   0  0  0  0  0  0  0  0  0  0  0  0
   12.7862   17.5359   19.8719 H   0  0  0  0  0  0  0  0  0  0  0  0
    9.7979   16.9382   19.9131 H   0  0  0  0  0  0  0  0  0  0  0  0
   10.8662   17.0073   18.4990 H   0  0  0  0  0  0  0  0  0  0  0  0
   10.1806   14.6119   19.6472 H   0  0  0  0  0  0  0  0  0  0  0  0
   11.8519   14.8567   19.0450 H   0  0  0  0  0  0  0  0  0  0  0  0
    6.2765   11.4936   27.2644 H   0  0  0  0  0  0  0  0  0  0  0  0
    4.6878   10.7132   26.9593 H   0  0  0  0  0  0  0  0  0  0  0  0
    5.9348    9.8615   27.9321 H   0  0  0  0  0  0  0  0  0  0  0  0
   11.7946   13.0804   21.0637 H   0  0  0  0  0  0  0  0  0  0  0  0
   12.6567   13.9049   22.3850 H   0  0  0  0  0  0  0  0  0  0  0  0
   10.8878   11.6903   22.3735 H   0  0  0  0  0  0  0  0  0  0  0  0
    5.9394    9.0620   25.5677 H   0  0  0  0  0  0  0  0  0  0  0  0
  1  2  2  0  0  0  0
  1  4  1  0  0  0  0
  2  5  1  0  0  0  0
  3  4  2  0  0  0  0
  3 13  1  0  0  0  0
  4 15  1  0  0  0  0
  5 13  2  0  0  0  0
  5 16  1  0  0  0  0
  6  8  1  0  0  0  0
  6 14  1  0  0  0  0
  6 17  2  0  0  0  0
  7 12  1  0  0  0  0
  7 15  1  0  0  0  0
  7 18  2  0  0  0  0
  8  9  1  0  0  0  0
  9 10  1  0  0  0  0
 10 14  1  0  0  0  0
 11 16  1  0  0  0  0
 12 14  1  0  0  0  0
  1 19  1  0  0  0  0
  2 20  1  0  0  0  0
  3 21  1  0  0  0  0
  8 22  1  0  0  0  0
  8 23  1  0  0  0  0
  9 24  1  0  0  0  0
  9 25  1  0  0  0  0
 10 26  1  0  0  0  0
 10 27  1  0  0  0  0
 11 28  1  0  0  0  0
 11 29  1  0  0  0  0
 11 30  1  0  0  0  0
 12 31  1  0  0  0  0
 12 32  1  0  0  0  0
 15 33  1  0  0  0  0
 16 34  1  0  0  0  0
M  END
> <idnumber>
Z2394925440

> <heavy_atoms>
18

> <LogS>
-1.339

> <LogP>
0.741

> <rotating_bonds>
4

> <PSA>
74.33

> <hb_acceptors>
4

> <hb_donors>
2

> <Collection>
Advanced

> <link>
https://www.enaminestore.com/catalog/Z2394925440

> <ROCS_ShapeQuery>
_x1140_x0812_0A_x1140_0A_x1097_0A_x0365_0A_x1097_0A_x0310_0A

> <ROCS_TanimotoCombo>
0.653 

> <ROCS_ShapeTanimoto>
0.221 

> <ROCS_ColorTanimoto>
0.433 

> <ROCS_RefTversky>
0.204 

> <ROCS_RefColorTversky>
0.570 

> <ROCS_RefTverskyCombo>
0.773 

> <ROCS_FitTversky>
1.609 

> <ROCS_FitColorTversky>
0.643 

> <ROCS_FitTverskyCombo>
2.251 

> <ROCS_ColorScore>
-4.530

> <ROCS_Overlap>
2090.356

> <ROCS_Rank>
107                 

$$$$
untitled-dbase-45372_17
  -OEChem-02092421083D

 27 29  0     0  0  0  0  0  0999 V2000
    6.5140   12.4517   25.9749 C   0  0  0  0  0  0  0  0  0  0  0  0
    8.5231   12.5651   24.3027 C   0  0  0  0  0  0  0  0  0  0  0  0
    9.1328   10.3488   23.6334 C   0  0  0  0  0  0  0  0  0  0  0  0
    5.8375   11.3538   26.4616 C   0  0  0  0  0  0  0  0  0  0  0  0
    7.5240   11.9785   25.0961 C   0  0  0  0  0  0  0  0  0  0  0  0
    9.3421   11.7192   23.5569 C   0  0  0  0  0  0  0  0  0  0  0  0
    7.4253   10.5902   25.0789 C   0  0  0  0  0  0  0  0  0  0  0  0
   10.8818   13.7961   20.3354 C   0  0  0  0  0  0  0  0  0  0  0  0
    9.5067   14.1654   20.8175 C   0  0  0  0  0  0  0  0  0  0  0  0
   10.7003   14.3947   21.7027 C   0  0  0  0  0  0  0  0  0  0  0  0
   10.9022   13.5598   22.9212 C   0  0  0  0  0  0  0  0  0  0  0  0
    8.1883    9.7295   24.3790 N   0  0  0  0  0  0  0  0  0  0  0  0
    6.3988   10.2304   25.9119 N   0  0  0  0  0  0  0  0  0  0  0  0
   10.3611   12.2457   22.7428 N   0  0  0  0  0  0  0  0  0  0  0  0
    6.3010   13.4814   26.2271 H   0  0  0  0  0  0  0  0  0  0  0  0
    8.6503   13.6430   24.2736 H   0  0  0  0  0  0  0  0  0  0  0  0
    9.7574    9.6659   23.0617 H   0  0  0  0  0  0  0  0  0  0  0  0
    5.0078   11.2720   27.1493 H   0  0  0  0  0  0  0  0  0  0  0  0
   11.1222   12.7430   20.2578 H   0  0  0  0  0  0  0  0  0  0  0  0
   11.3309   14.4163   19.5694 H   0  0  0  0  0  0  0  0  0  0  0  0
    9.0337   15.0336   20.3751 H   0  0  0  0  0  0  0  0  0  0  0  0
    8.8259   13.3596   21.0627 H   0  0  0  0  0  0  0  0  0  0  0  0
   11.0275   15.4167   21.8511 H   0  0  0  0  0  0  0  0  0  0  0  0
   11.9798   13.4795   23.1270 H   0  0  0  0  0  0  0  0  0  0  0  0
   10.4011   14.0417   23.7737 H   0  0  0  0  0  0  0  0  0  0  0  0
    6.1004    9.2822   26.0936 H   0  0  0  0  0  0  0  0  0  0  0  0
   10.7104   11.6573   22.0077 H   0  0  0  0  0  0  0  0  0  0  0  0
  1  4  2  0  0  0  0
  1  5  1  0  0  0  0
  2  5  1  0  0  0  0
  2  6  2  0  0  0  0
  3  6  1  0  0  0  0
  3 12  2  0  0  0  0
  4 13  1  0  0  0  0
  5  7  2  0  0  0  0
  6 14  1  0  0  0  0
  7 12  1  0  0  0  0
  7 13  1  0  0  0  0
  8  9  1  0  0  0  0
  8 10  1  0  0  0  0
  9 10  1  0  0  0  0
 10 11  1  0  0  0  0
 11 14  1  0  0  0  0
  1 15  1  0  0  0  0
  2 16  1  0  0  0  0
  3 17  1  0  0  0  0
  4 18  1  0  0  0  0
  8 19  1  0  0  0  0
  8 20  1  0  0  0  0
  9 21  1  0  0  0  0
  9 22  1  0  0  0  0
 10 23  1  0  0  0  0
 11 24  1  0  0  0  0
 11 25  1  0  0  0  0
 13 26  1  0  0  0  0
 14 27  1  0  0  0  0
M  END
> <idnumber>
Z1262614889

> <heavy_atoms>
14

> <LogS>
-2.648

> <LogP>
2.619

> <rotating_bonds>
3

> <PSA>
40.71

> <hb_acceptors>
2

> <hb_donors>
2

> <Collection>
HTS

> <link>
https://www.enaminestore.com/catalog/Z1262614889

> <ROCS_ShapeQuery>
_x1140_x0812_0A_x1140_0A_x1097_0A_x0365_0A_x1097_0A_x0310_0A

> <ROCS_TanimotoCombo>
0.653 

> <ROCS_ShapeTanimoto>
0.246 

> <ROCS_ColorTanimoto>
0.407 

> <ROCS_RefTversky>
0.220 

> <ROCS_RefColorTversky>
0.480 

> <ROCS_RefTverskyCombo>
0.700 

> <ROCS_FitTversky>
1.968 

> <ROCS_FitColorTversky>
0.729 

> <ROCS_FitTverskyCombo>
2.697 

> <ROCS_ColorScore>
-3.768

> <ROCS_Overlap>
2251.012

> <ROCS_Rank>
108                 

$$$$
untitled-dbase-46207_6
  -OEChem-02092421083D

 28 28  0     0  0  0  0  0  0999 V2000
    7.3897   10.7057   25.1994 C   0  0  0  0  0  0  0  0  0  0  0  0
    9.1179   10.1357   23.8858 C   0  0  0  0  0  0  0  0  0  0  0  0
    8.8641   12.2660   24.5447 C   0  0  0  0  0  0  0  0  0  0  0  0
    4.2866   10.6294   27.3142 C   0  0  0  0  0  0  0  0  0  0  0  0
   11.2741    8.4241   21.3831 C   0  0  0  0  0  0  0  0  0  0  0  0
   12.2111    9.6259   23.3890 C   0  0  0  0  0  0  0  0  0  0  0  0
    5.4520   11.2891   26.6590 C   0  0  0  0  0  0  0  0  0  0  0  0
   11.0404    9.5094   22.4239 C   0  0  0  0  0  0  0  0  0  0  0  0
    8.0224    9.7204   24.5417 N   0  0  0  0  0  0  0  0  0  0  0  0
    7.7510   11.9982   25.2463 N   0  0  0  0  0  0  0  0  0  0  0  0
    9.5984   11.3887   23.8418 N   0  0  0  0  0  0  0  0  0  0  0  0
    6.2266   10.3465   25.9139 N   0  0  0  0  0  0  0  0  0  0  0  0
    9.8138    9.1884   23.1935 N   0  0  0  0  0  0  0  0  0  0  0  0
    9.3994   13.8883   24.5456 Cl  0  0  0  0  0  0  0  0  0  0  0  0
    4.6449    9.8455   27.9977 H   0  0  0  0  0  0  0  0  0  0  0  0
    3.7138   11.3772   27.8822 H   0  0  0  0  0  0  0  0  0  0  0  0
    3.6409   10.1789   26.5460 H   0  0  0  0  0  0  0  0  0  0  0  0
   11.4336    7.4525   21.8619 H   0  0  0  0  0  0  0  0  0  0  0  0
   10.4208    8.3329   20.7018 H   0  0  0  0  0  0  0  0  0  0  0  0
   12.1570    8.6518   20.7758 H   0  0  0  0  0  0  0  0  0  0  0  0
   12.3870    8.6744   23.9026 H   0  0  0  0  0  0  0  0  0  0  0  0
   12.0158   10.3900   24.1485 H   0  0  0  0  0  0  0  0  0  0  0  0
   13.1362    9.8933   22.8659 H   0  0  0  0  0  0  0  0  0  0  0  0
    5.0856   12.0711   25.9777 H   0  0  0  0  0  0  0  0  0  0  0  0
    6.0880   11.7450   27.4322 H   0  0  0  0  0  0  0  0  0  0  0  0
   10.8835   10.4709   21.9229 H   0  0  0  0  0  0  0  0  0  0  0  0
    5.9546    9.3826   25.8821 H   0  0  0  0  0  0  0  0  0  0  0  0
    9.5226    8.2361   23.1761 H   0  0  0  0  0  0  0  0  0  0  0  0
  1  9  2  0  0  0  0
  1 10  1  0  0  0  0
  1 12  1  0  0  0  0
  2  9  1  0  0  0  0
  2 11  2  0  0  0  0
  2 13  1  0  0  0  0
  3 10  2  0  0  0  0
  3 11  1  0  0  0  0
  3 14  1  0  0  0  0
  4  7  1  0  0  0  0
  5  8  1  0  0  0  0
  6  8  1  0  0  0  0
  7 12  1  0  0  0  0
  8 13  1  0  0  0  0
  4 15  1  0  0  0  0
  4 16  1  0  0  0  0
  4 17  1  0  0  0  0
  5 18  1  0  0  0  0
  5 19  1  0  0  0  0
  5 20  1  0  0  0  0
  6 21  1  0  0  0  0
  6 22  1  0  0  0  0
  6 23  1  0  0  0  0
  7 24  1  0  0  0  0
  7 25  1  0  0  0  0
  8 26  1  0  0  0  0
 12 27  1  0  0  0  0
 13 28  1  0  0  0  0
M  END
> <idnumber>
Z56756996

> <heavy_atoms>
14

> <LogS>
-3.77

> <LogP>
2.703

> <rotating_bonds>
4

> <PSA>
62.73

> <hb_acceptors>
5

> <hb_donors>
2

> <Collection>
Functional

> <link>
https://www.enaminestore.com/catalog/Z56756996

> <ROCS_ShapeQuery>
_x1140_x0812_0A_x1140_0A_x1097_0A_x0365_0A_x1097_0A_x0310_0A

> <ROCS_TanimotoCombo>
0.653 

> <ROCS_ShapeTanimoto>
0.220 

> <ROCS_ColorTanimoto>
0.432 

> <ROCS_RefTversky>
0.200 

> <ROCS_RefColorTversky>
0.570 

> <ROCS_RefTverskyCombo>
0.770 

> <ROCS_FitTversky>
1.853 

> <ROCS_FitColorTversky>
0.641 

> <ROCS_FitTverskyCombo>
2.495 

> <ROCS_ColorScore>
-4.533

> <ROCS_Overlap>
2051.622

> <ROCS_Rank>
109                 

$$$$
untitled-dbase-20606_8
  -OEChem-02092421083D

 23 23  0     0  0  0  0  0  0999 V2000
    8.6965   12.6850   25.5270 C   0  0  0  0  0  0  0  0  0  0  0  0
    9.4166   12.2271   24.4292 C   0  0  0  0  0  0  0  0  0  0  0  0
    7.6277   11.9386   26.0107 C   0  0  0  0  0  0  0  0  0  0  0  0
    9.0309   11.0263   23.8556 C   0  0  0  0  0  0  0  0  0  0  0  0
    7.3220   10.7508   25.3661 C   0  0  0  0  0  0  0  0  0  0  0  0
    9.7496   10.4992   22.7084 C   0  0  0  0  0  0  0  0  0  0  0  0
    5.8558   10.0173   27.2471 C   0  0  0  0  0  0  0  0  0  0  0  0
   11.1196    8.5971   21.8160 C   0  0  0  0  0  0  0  0  0  0  0  0
    7.9985   10.2737   24.2973 N   0  0  0  0  0  0  0  0  0  0  0  0
    6.2302   10.0014   25.8706 N   0  0  0  0  0  0  0  0  0  0  0  0
   10.3518    9.2435   22.8559 N   0  0  0  0  0  0  0  0  0  0  0  0
    9.8332   11.1588   21.6562 O   0  0  0  0  0  0  0  0  0  0  0  0
    8.9668   13.6221   26.0043 H   0  0  0  0  0  0  0  0  0  0  0  0
   10.2529   12.8009   24.0439 H   0  0  0  0  0  0  0  0  0  0  0  0
    7.0607   12.2878   26.8673 H   0  0  0  0  0  0  0  0  0  0  0  0
    6.5330   10.6814   27.8042 H   0  0  0  0  0  0  0  0  0  0  0  0
    4.8230   10.3838   27.3418 H   0  0  0  0  0  0  0  0  0  0  0  0
    5.9224    8.9986   27.6568 H   0  0  0  0  0  0  0  0  0  0  0  0
   10.4668    7.9216   21.2436 H   0  0  0  0  0  0  0  0  0  0  0  0
   11.5391    9.3591   21.1427 H   0  0  0  0  0  0  0  0  0  0  0  0
   11.9376    8.0186   22.2701 H   0  0  0  0  0  0  0  0  0  0  0  0
    5.7232    9.4487   25.2099 H   0  0  0  0  0  0  0  0  0  0  0  0
   10.3072    8.7755   23.7552 H   0  0  0  0  0  0  0  0  0  0  0  0
  1  2  2  0  0  0  0
  1  3  1  0  0  0  0
  2  4  1  0  0  0  0
  3  5  2  0  0  0  0
  4  6  1  0  0  0  0
  4  9  2  0  0  0  0
  5  9  1  0  0  0  0
  5 10  1  0  0  0  0
  6 11  1  0  0  0  0
  6 12  2  0  0  0  0
  7 10  1  0  0  0  0
  8 11  1  0  0  0  0
  1 13  1  0  0  0  0
  2 14  1  0  0  0  0
  3 15  1  0  0  0  0
  7 16  1  0  0  0  0
  7 17  1  0  0  0  0
  7 18  1  0  0  0  0
  8 19  1  0  0  0  0
  8 20  1  0  0  0  0
  8 21  1  0  0  0  0
 10 22  1  0  0  0  0
 11 23  1  0  0  0  0
M  END
> <idnumber>
Z969100808

> <heavy_atoms>
12

> <LogS>
-1.051

> <LogP>
0.983

> <rotating_bonds>
2

> <PSA>
54.02

> <hb_acceptors>
3

> <hb_donors>
2

> <Collection>
Legacy

> <link>
https://www.enaminestore.com/catalog/Z969100808

> <ROCS_ShapeQuery>
_x1140_x0812_0A_x1140_0A_x1097_0A_x0365_0A_x1097_0A_x0310_0A

> <ROCS_TanimotoCombo>
0.653 

> <ROCS_ShapeTanimoto>
0.205 

> <ROCS_ColorTanimoto>
0.448 

> <ROCS_RefTversky>
0.187 

> <ROCS_RefColorTversky>
0.512 

> <ROCS_RefTverskyCombo>
0.699 

> <ROCS_FitTversky>
1.856 

> <ROCS_FitColorTversky>
0.781 

> <ROCS_FitTverskyCombo>
2.636 

> <ROCS_ColorScore>
-4.020

> <ROCS_Overlap>
1920.240

> <ROCS_Rank>
110                 

$$$$
untitled-dbase-507798_38
  -OEChem-02092421083D

 31 32  0     0  0  0  0  0  0999 V2000
    8.0184   12.4040   23.9139 C   0  0  0  0  0  0  0  0  0  0  0  0
    7.0806   11.8886   24.8018 C   0  0  0  0  0  0  0  0  0  0  0  0
   11.8144   17.3446   22.3662 C   0  0  0  0  0  0  0  0  0  0  0  0
    9.0052   11.5737   23.3942 C   0  0  0  0  0  0  0  0  0  0  0  0
    9.0109   10.2461   23.7908 C   0  0  0  0  0  0  0  0  0  0  0  0
   11.5570   15.2875   22.0129 C   0  0  0  0  0  0  0  0  0  0  0  0
   10.6240   15.9546   21.2585 C   0  0  0  0  0  0  0  0  0  0  0  0
    7.1723   10.5469   25.1353 C   0  0  0  0  0  0  0  0  0  0  0  0
    9.9887   12.1117   22.4668 C   0  0  0  0  0  0  0  0  0  0  0  0
   10.0489    9.3068   23.2687 C   0  0  0  0  0  0  0  0  0  0  0  0
    9.5664   15.5545   20.3243 C   0  0  0  0  0  0  0  0  0  0  0  0
   11.8000   13.8101   22.1249 C   0  0  0  0  0  0  0  0  0  0  0  0
   12.3170   16.1835   22.7203 N   0  0  0  0  0  0  0  0  0  0  0  0
    8.1167    9.7094   24.6511 N   0  0  0  0  0  0  0  0  0  0  0  0
   10.7952   13.1564   22.9323 N   0  0  0  0  0  0  0  0  0  0  0  0
   10.0772   11.6626   21.3107 O   0  0  0  0  0  0  0  0  0  0  0  0
   10.7824   17.2893   21.4804 O   0  0  0  0  0  0  0  0  0  0  0  0
    6.2630   10.0168   26.0128 O   0  0  0  0  0  0  0  0  0  0  0  0
    7.9697   13.4530   23.6338 H   0  0  0  0  0  0  0  0  0  0  0  0
    6.3050   12.5234   25.2159 H   0  0  0  0  0  0  0  0  0  0  0  0
   12.1200   18.3283   22.6903 H   0  0  0  0  0  0  0  0  0  0  0  0
   10.9257    9.3070   23.9262 H   0  0  0  0  0  0  0  0  0  0  0  0
    9.6599    8.2833   23.2041 H   0  0  0  0  0  0  0  0  0  0  0  0
   10.3683    9.5917   22.2588 H   0  0  0  0  0  0  0  0  0  0  0  0
    8.6048   15.3903   20.8449 H   0  0  0  0  0  0  0  0  0  0  0  0
    9.3874   16.3126   19.5379 H   0  0  0  0  0  0  0  0  0  0  0  0
    9.8103   14.6192   19.7847 H   0  0  0  0  0  0  0  0  0  0  0  0
   11.7941   13.3417   21.1347 H   0  0  0  0  0  0  0  0  0  0  0  0
   12.7768   13.6056   22.5757 H   0  0  0  0  0  0  0  0  0  0  0  0
   10.6385   13.5273   23.8638 H   0  0  0  0  0  0  0  0  0  0  0  0
    5.6423   10.7030   26.2948 H   0  0  0  0  0  0  0  0  0  0  0  0
  1  2  2  0  0  0  0
  1  4  1  0  0  0  0
  2  8  1  0  0  0  0
  3 13  2  0  0  0  0
  3 17  1  0  0  0  0
  4  5  2  0  0  0  0
  4  9  1  0  0  0  0
  5 10  1  0  0  0  0
  5 14  1  0  0  0  0
  6  7  2  0  0  0  0
  6 12  1  0  0  0  0
  6 13  1  0  0  0  0
  7 11  1  0  0  0  0
  7 17  1  0  0  0  0
  8 14  2  0  0  0  0
  8 18  1  0  0  0  0
  9 15  1  0  0  0  0
  9 16  2  0  0  0  0
 12 15  1  0  0  0  0
  1 19  1  0  0  0  0
  2 20  1  0  0  0  0
  3 21  1  0  0  0  0
 10 22  1  0  0  0  0
 10 23  1  0  0  0  0
 10 24  1  0  0  0  0
 11 25  1  0  0  0  0
 11 26  1  0  0  0  0
 11 27  1  0  0  0  0
 12 28  1  0  0  0  0
 12 29  1  0  0  0  0
 15 30  1  0  0  0  0
 18 31  1  0  0  0  0
M  END
> <idnumber>
Z1550986036

> <heavy_atoms>
18

> <LogS>
-1.472

> <LogP>
0.472

> <rotating_bonds>
3

> <PSA>
88.25

> <hb_acceptors>
4

> <hb_donors>
2

> <Collection>
Legacy

> <link>
https://www.enaminestore.com/catalog/Z1550986036

> <ROCS_ShapeQuery>
_x1140_x0812_0A_x1140_0A_x1097_0A_x0365_0A_x1097_0A_x0310_0A

> <ROCS_TanimotoCombo>
0.653 

> <ROCS_ShapeTanimoto>
0.241 

> <ROCS_ColorTanimoto>
0.412 

> <ROCS_RefTversky>
0.219 

> <ROCS_RefColorTversky>
0.584 

> <ROCS_RefTverskyCombo>
0.803 

> <ROCS_FitTversky>
1.712 

> <ROCS_FitColorTversky>
0.583 

> <ROCS_FitTverskyCombo>
2.295 

> <ROCS_ColorScore>
-4.670

> <ROCS_Overlap>
2246.692

> <ROCS_Rank>
111                 

$$$$
untitled-dbase-75585_79
  -OEChem-02092421083D

 33 34  0     0  0  0  0  0  0999 V2000
    7.6075   11.9693   25.2609 C   0  0  0  0  0  0  0  0  0  0  0  0
    8.3975   12.4444   24.2200 C   0  0  0  0  0  0  0  0  0  0  0  0
    7.5876   10.6026   25.4883 C   0  0  0  0  0  0  0  0  0  0  0  0
    9.1331   11.5510   23.4492 C   0  0  0  0  0  0  0  0  0  0  0  0
    9.0450   10.2031   23.7578 C   0  0  0  0  0  0  0  0  0  0  0  0
    9.9536   12.0582   22.3579 C   0  0  0  0  0  0  0  0  0  0  0  0
   12.3216   12.8107   20.5193 C   0  0  0  0  0  0  0  0  0  0  0  0
   11.3562   13.9486   20.3533 C   0  0  0  0  0  0  0  0  0  0  0  0
   11.8452   13.5728   21.7228 C   0  0  0  0  0  0  0  0  0  0  0  0
   12.0737    9.2324   23.8059 C   0  0  0  0  0  0  0  0  0  0  0  0
   11.0204    7.2532   22.6573 C   0  0  0  0  0  0  0  0  0  0  0  0
   10.7963    8.4337   23.5910 C   0  0  0  0  0  0  0  0  0  0  0  0
    8.2885    9.7041   24.7609 N   0  0  0  0  0  0  0  0  0  0  0  0
    9.7620    9.3203   23.0043 N   0  0  0  0  0  0  0  0  0  0  0  0
   10.9647   12.9643   22.6940 N   0  0  0  0  0  0  0  0  0  0  0  0
    9.7328   11.7036   21.1875 O   0  0  0  0  0  0  0  0  0  0  0  0
    7.0245   12.6473   25.8736 H   0  0  0  0  0  0  0  0  0  0  0  0
    8.4316   13.5120   24.0190 H   0  0  0  0  0  0  0  0  0  0  0  0
    6.9873   10.1816   26.2880 H   0  0  0  0  0  0  0  0  0  0  0  0
   11.9469   11.8069   20.3602 H   0  0  0  0  0  0  0  0  0  0  0  0
   13.3445   12.9643   20.1971 H   0  0  0  0  0  0  0  0  0  0  0  0
   11.7297   14.8679   19.9196 H   0  0  0  0  0  0  0  0  0  0  0  0
   10.3351   13.7069   20.0849 H   0  0  0  0  0  0  0  0  0  0  0  0
   12.5596   14.2451   22.1858 H   0  0  0  0  0  0  0  0  0  0  0  0
   12.4649    9.6058   22.8539 H   0  0  0  0  0  0  0  0  0  0  0  0
   11.9025   10.0910   24.4649 H   0  0  0  0  0  0  0  0  0  0  0  0
   12.8472    8.6108   24.2700 H   0  0  0  0  0  0  0  0  0  0  0  0
   11.3940    7.5926   21.6850 H   0  0  0  0  0  0  0  0  0  0  0  0
   10.0870    6.7060   22.4896 H   0  0  0  0  0  0  0  0  0  0  0  0
   11.7574    6.5532   23.0667 H   0  0  0  0  0  0  0  0  0  0  0  0
   10.4236    8.0708   24.5550 H   0  0  0  0  0  0  0  0  0  0  0  0
    9.6190    9.2363   22.0223 H   0  0  0  0  0  0  0  0  0  0  0  0
   11.0603   13.2678   23.6576 H   0  0  0  0  0  0  0  0  0  0  0  0
  1  2  2  0  0  0  0
  1  3  1  0  0  0  0
  2  4  1  0  0  0  0
  3 13  2  0  0  0  0
  4  5  2  0  0  0  0
  4  6  1  0  0  0  0
  5 13  1  0  0  0  0
  5 14  1  0  0  0  0
  6 15  1  0  0  0  0
  6 16  2  0  0  0  0
  7  8  1  0  0  0  0
  7  9  1  0  0  0  0
  8  9  1  0  0  0  0
  9 15  1  0  0  0  0
 10 12  1  0  0  0  0
 11 12  1  0  0  0  0
 12 14  1  0  0  0  0
  1 17  1  0  0  0  0
  2 18  1  0  0  0  0
  3 19  1  0  0  0  0
  7 20  1  0  0  0  0
  7 21  1  0  0  0  0
  8 22  1  0  0  0  0
  8 23  1  0  0  0  0
  9 24  1  0  0  0  0
 10 25  1  0  0  0  0
 10 26  1  0  0  0  0
 10 27  1  0  0  0  0
 11 28  1  0  0  0  0
 11 29  1  0  0  0  0
 11 30  1  0  0  0  0
 12 31  1  0  0  0  0
 14 32  1  0  0  0  0
 15 33  1  0  0  0  0
M  END
> <idnumber>
Z1230117172

> <heavy_atoms>
16

> <LogS>
-1.995

> <LogP>
2.455

> <rotating_bonds>
4

> <PSA>
54.02

> <hb_acceptors>
3

> <hb_donors>
2

> <Collection>
HTS

> <link>
https://www.enaminestore.com/catalog/Z1230117172

> <ROCS_ShapeQuery>
_x1140_x0812_0A_x1140_0A_x1097_0A_x0365_0A_x1097_0A_x0310_0A

> <ROCS_TanimotoCombo>
0.653 

> <ROCS_ShapeTanimoto>
0.232 

> <ROCS_ColorTanimoto>
0.421 

> <ROCS_RefTversky>
0.210 

> <ROCS_RefColorTversky>
0.525 

> <ROCS_RefTverskyCombo>
0.735 

> <ROCS_FitTversky>
1.796 

> <ROCS_FitColorTversky>
0.680 

> <ROCS_FitTverskyCombo>
2.475 

> <ROCS_ColorScore>
-4.145

> <ROCS_Overlap>
2157.003

> <ROCS_Rank>
112                 

$$$$
untitled-dbase-1131877_47
  -OEChem-02092421083D

 37 38  0     0  0  0  0  0  0999 V2000
   11.1599    9.1560   22.5288 C   0  0  0  0  0  0  0  0  0  0  0  0
   10.2697    9.7327   23.0918 C   0  0  0  0  0  0  0  0  0  0  0  0
    8.0365   12.3723   24.4418 C   0  0  0  0  0  0  0  0  0  0  0  0
    7.3156   10.1861   25.0399 C   0  0  0  0  0  0  0  0  0  0  0  0
    9.2107   10.4189   23.7621 C   0  0  0  0  0  0  0  0  0  0  0  0
   11.0009   14.7521   22.4299 C   0  0  0  0  0  0  0  0  0  0  0  0
    9.1043   11.8004   23.7592 C   0  0  0  0  0  0  0  0  0  0  0  0
    7.1205   11.5567   25.0970 C   0  0  0  0  0  0  0  0  0  0  0  0
   11.4578   15.9214   23.0669 C   0  0  0  0  0  0  0  0  0  0  0  0
   11.9578   14.4810   21.4825 C   0  0  0  0  0  0  0  0  0  0  0  0
   10.8161   16.6598   24.1689 C   0  0  0  0  0  0  0  0  0  0  0  0
   12.0651   13.3954   20.4895 C   0  0  0  0  0  0  0  0  0  0  0  0
   13.8121   15.7276   19.3375 C   0  0  0  0  0  0  0  0  0  0  0  0
    9.7495   13.9741   22.7179 C   0  0  0  0  0  0  0  0  0  0  0  0
   14.0994   15.6197   20.8252 C   0  0  0  0  0  0  0  0  0  0  0  0
    8.3407    9.5941   24.3870 N   0  0  0  0  0  0  0  0  0  0  0  0
   12.6150   16.3626   22.5666 N   0  0  0  0  0  0  0  0  0  0  0  0
   12.8933   15.4658   21.6052 N   0  0  0  0  0  0  0  0  0  0  0  0
   10.0338   12.6224   23.0946 N   0  0  0  0  0  0  0  0  0  0  0  0
    5.7915   12.2253   25.9501 Cl  0  0  0  0  0  0  0  0  0  0  0  0
   11.9496    8.6450   22.0296 H   0  0  0  0  0  0  0  0  0  0  0  0
    7.9203   13.4537   24.4617 H   0  0  0  0  0  0  0  0  0  0  0  0
    6.6352    9.4964   25.5299 H   0  0  0  0  0  0  0  0  0  0  0  0
   11.1554   16.2876   25.1504 H   0  0  0  0  0  0  0  0  0  0  0  0
   11.0356   17.7413   24.1287 H   0  0  0  0  0  0  0  0  0  0  0  0
    9.7153   16.5734   24.1423 H   0  0  0  0  0  0  0  0  0  0  0  0
   11.5812   13.6757   19.5393 H   0  0  0  0  0  0  0  0  0  0  0  0
   13.1154   13.1392   20.2670 H   0  0  0  0  0  0  0  0  0  0  0  0
   11.5931   12.4622   20.8427 H   0  0  0  0  0  0  0  0  0  0  0  0
   13.2903   14.8378   18.9697 H   0  0  0  0  0  0  0  0  0  0  0  0
   14.7465   15.8313   18.7772 H   0  0  0  0  0  0  0  0  0  0  0  0
   13.1839   16.5973   19.1181 H   0  0  0  0  0  0  0  0  0  0  0  0
    9.1844   14.4396   23.5327 H   0  0  0  0  0  0  0  0  0  0  0  0
    9.0935   13.9465   21.8415 H   0  0  0  0  0  0  0  0  0  0  0  0
   14.6214   16.5141   21.1837 H   0  0  0  0  0  0  0  0  0  0  0  0
   14.7471   14.7603   21.0322 H   0  0  0  0  0  0  0  0  0  0  0  0
   10.9298   12.2219   22.8840 H   0  0  0  0  0  0  0  0  0  0  0  0
  1  2  3  0  0  0  0
  2  5  1  0  0  0  0
  3  7  1  0  0  0  0
  3  8  2  0  0  0  0
  4  8  1  0  0  0  0
  4 16  2  0  0  0  0
  5  7  2  0  0  0  0
  5 16  1  0  0  0  0
  6  9  1  0  0  0  0
  6 10  2  0  0  0  0
  6 14  1  0  0  0  0
  7 19  1  0  0  0  0
  8 20  1  0  0  0  0
  9 11  1  0  0  0  0
  9 17  2  0  0  0  0
 10 12  1  0  0  0  0
 10 18  1  0  0  0  0
 13 15  1  0  0  0  0
 14 19  1  0  0  0  0
 15 18  1  0  0  0  0
 17 18  1  0  0  0  0
  1 21  1  0  0  0  0
  3 22  1  0  0  0  0
  4 23  1  0  0  0  0
 11 24  1  0  0  0  0
 11 25  1  0  0  0  0
 11 26  1  0  0  0  0
 12 27  1  0  0  0  0
 12 28  1  0  0  0  0
 12 29  1  0  0  0  0
 13 30  1  0  0  0  0
 13 31  1  0  0  0  0
 13 32  1  0  0  0  0
 14 33  1  0  0  0  0
 14 34  1  0  0  0  0
 15 35  1  0  0  0  0
 15 36  1  0  0  0  0
 19 37  1  0  0  0  0
M  END
> <idnumber>
Z5698489978

> <heavy_atoms>
20

> <LogS>
-2.474

> <LogP>
2.76

> <rotating_bonds>
4

> <PSA>
42.74

> <hb_acceptors>
3

> <hb_donors>
1

> <Collection>
Advanced

> <link>
https://www.enaminestore.com/catalog/Z5698489978

> <ROCS_ShapeQuery>
_x1140_x0812_0A_x1140_0A_x1097_0A_x0365_0A_x1097_0A_x0310_0A

> <ROCS_TanimotoCombo>
0.652 

> <ROCS_ShapeTanimoto>
0.241 

> <ROCS_ColorTanimoto>
0.411 

> <ROCS_RefTversky>
0.220 

> <ROCS_RefColorTversky>
0.516 

> <ROCS_RefTverskyCombo>
0.737 

> <ROCS_FitTversky>
1.643 

> <ROCS_FitColorTversky>
0.669 

> <ROCS_FitTverskyCombo>
2.311 

> <ROCS_ColorScore>
-4.079

> <ROCS_Overlap>
2261.869

> <ROCS_Rank>
113                 

$$$$
untitled-dbase-885461_2
  -OEChem-02092421083D

 29 29  0     0  0  0  0  0  0999 V2000
   11.9677   15.7132   22.3187 C   0  0  0  0  0  0  0  0  0  0  0  0
    8.4953   12.4521   24.7822 C   0  0  0  0  0  0  0  0  0  0  0  0
    7.6282   10.2960   25.2880 C   0  0  0  0  0  0  0  0  0  0  0  0
    9.1992   11.8874   23.7244 C   0  0  0  0  0  0  0  0  0  0  0  0
    7.6926   11.6481   25.5837 C   0  0  0  0  0  0  0  0  0  0  0  0
    9.0676   10.5245   23.5121 C   0  0  0  0  0  0  0  0  0  0  0  0
   10.2397   14.0660   23.0039 C   0  0  0  0  0  0  0  0  0  0  0  0
   10.7247    7.8772   21.7069 C   0  0  0  0  0  0  0  0  0  0  0  0
   12.0269    9.5199   23.1059 C   0  0  0  0  0  0  0  0  0  0  0  0
   11.1924   14.5342   21.9170 C   0  0  0  0  0  0  0  0  0  0  0  0
   10.6653    8.8998   22.8313 C   0  0  0  0  0  0  0  0  0  0  0  0
   12.5829   16.6458   22.6324 N   0  0  0  0  0  0  0  0  0  0  0  0
    8.2974    9.7114   24.2692 N   0  0  0  0  0  0  0  0  0  0  0  0
   10.0081   12.6827   22.9129 N   0  0  0  0  0  0  0  0  0  0  0  0
    9.7600   14.8350   23.8310 O   0  0  0  0  0  0  0  0  0  0  0  0
    9.7437    9.9280   22.4816 O   0  0  0  0  0  0  0  0  0  0  0  0
    6.8091   12.3089   26.8969 Cl  0  0  0  0  0  0  0  0  0  0  0  0
    8.5736   13.5187   24.9803 H   0  0  0  0  0  0  0  0  0  0  0  0
    7.0190    9.6158   25.8758 H   0  0  0  0  0  0  0  0  0  0  0  0
   11.0951    8.3265   20.7805 H   0  0  0  0  0  0  0  0  0  0  0  0
   11.3842    7.0469   21.9814 H   0  0  0  0  0  0  0  0  0  0  0  0
    9.7369    7.4435   21.5155 H   0  0  0  0  0  0  0  0  0  0  0  0
   12.4284   10.0084   22.2129 H   0  0  0  0  0  0  0  0  0  0  0  0
   12.7361    8.7523   23.4338 H   0  0  0  0  0  0  0  0  0  0  0  0
   11.9679   10.2587   23.9127 H   0  0  0  0  0  0  0  0  0  0  0  0
   11.8728   13.7101   21.6729 H   0  0  0  0  0  0  0  0  0  0  0  0
   10.6072   14.7642   21.0192 H   0  0  0  0  0  0  0  0  0  0  0  0
   10.2917    8.4203   23.7419 H   0  0  0  0  0  0  0  0  0  0  0  0
   10.4998   12.2024   22.1500 H   0  0  0  0  0  0  0  0  0  0  0  0
  1 10  1  0  0  0  0
  1 12  3  0  0  0  0
  2  4  1  0  0  0  0
  2  5  2  0  0  0  0
  3  5  1  0  0  0  0
  3 13  2  0  0  0  0
  4  6  2  0  0  0  0
  4 14  1  0  0  0  0
  5 17  1  0  0  0  0
  6 13  1  0  0  0  0
  6 16  1  0  0  0  0
  7 10  1  0  0  0  0
  7 14  1  0  0  0  0
  7 15  2  0  0  0  0
  8 11  1  0  0  0  0
  9 11  1  0  0  0  0
 11 16  1  0  0  0  0
  2 18  1  0  0  0  0
  3 19  1  0  0  0  0
  8 20  1  0  0  0  0
  8 21  1  0  0  0  0
  8 22  1  0  0  0  0
  9 23  1  0  0  0  0
  9 24  1  0  0  0  0
  9 25  1  0  0  0  0
 10 26  1  0  0  0  0
 10 27  1  0  0  0  0
 11 28  1  0  0  0  0
 14 29  1  0  0  0  0
M  END
> <idnumber>
Z2297525741

> <heavy_atoms>
17

> <LogS>
-2.376

> <LogP>
1.632

> <rotating_bonds>
4

> <PSA>
75.01

> <hb_acceptors>
4

> <hb_donors>
1

> <Collection>
HTS

> <link>
https://www.enaminestore.com/catalog/Z2297525741

> <ROCS_ShapeQuery>
_x1140_x0812_0A_x1140_0A_x1097_0A_x0365_0A_x1097_0A_x0310_0A

> <ROCS_TanimotoCombo>
0.652 

> <ROCS_ShapeTanimoto>
0.244 

> <ROCS_ColorTanimoto>
0.408 

> <ROCS_RefTversky>
0.220 

> <ROCS_RefColorTversky>
0.547 

> <ROCS_RefTverskyCombo>
0.767 

> <ROCS_FitTversky>
1.828 

> <ROCS_FitColorTversky>
0.617 

> <ROCS_FitTverskyCombo>
2.445 

> <ROCS_ColorScore>
-4.353

> <ROCS_Overlap>
2251.656

> <ROCS_Rank>
114                 

$$$$
untitled-dbase-534810_7
  -OEChem-02092421083D

 38 38  0     1  0  0  0  0  0999 V2000
    7.1040   10.1894   25.1198 C   0  0  0  0  0  0  0  0  0  0  0  0
   10.3141   11.5435   22.4607 C   0  0  0  0  0  0  0  0  0  0  0  0
    8.0866   11.8255   23.5200 C   0  0  0  0  0  0  0  0  0  0  0  0
    9.9754   11.4695   24.9752 C   0  0  0  0  0  0  0  0  0  0  0  0
    7.5698   11.6036   24.9360 C   0  0  2  0  0  0  0  0  0  0  0  0
    8.7813   11.8877   25.8372 C   0  0  2  0  0  0  0  0  0  0  0  0
    8.8610   13.3654   26.2194 C   0  0  0  0  0  0  0  0  0  0  0  0
   12.1517   13.8436   22.7480 C   0  0  0  0  0  0  0  0  0  0  0  0
   11.4264    8.8107   22.5266 C   0  0  0  0  0  0  0  0  0  0  0  0
   12.5738   12.5129   22.1371 C   0  0  0  0  0  0  0  0  0  0  0  0
   12.2138   10.0163   22.0280 C   0  0  0  0  0  0  0  0  0  0  0  0
   11.7862   11.3252   22.7024 C   0  0  0  0  0  0  0  0  0  0  0  0
    9.5246   11.6112   23.5955 N   0  0  0  0  0  0  0  0  0  0  0  0
    6.1084   10.0509   26.0578 N   0  0  0  0  0  0  0  0  0  0  0  0
    7.5714    9.2583   24.4687 O   0  0  0  0  0  0  0  0  0  0  0  0
    9.8812   11.6558   21.3125 O   0  0  0  0  0  0  0  0  0  0  0  0
    7.6758   11.1096   22.7955 H   0  0  0  0  0  0  0  0  0  0  0  0
    7.8765   12.8365   23.1495 H   0  0  0  0  0  0  0  0  0  0  0  0
   10.8397   12.1332   25.1117 H   0  0  0  0  0  0  0  0  0  0  0  0
   10.2924   10.4395   25.1774 H   0  0  0  0  0  0  0  0  0  0  0  0
    6.7392   12.2770   25.1600 H   0  0  0  0  0  0  0  0  0  0  0  0
    8.7446   11.2915   26.7392 H   0  0  0  0  0  0  0  0  0  0  0  0
    8.8989   13.9838   25.3215 H   0  0  0  0  0  0  0  0  0  0  0  0
    9.7573   13.5517   26.8128 H   0  0  0  0  0  0  0  0  0  0  0  0
    7.9857   13.6493   26.8054 H   0  0  0  0  0  0  0  0  0  0  0  0
   12.2603   13.8087   23.8367 H   0  0  0  0  0  0  0  0  0  0  0  0
   11.1043   14.0646   22.5193 H   0  0  0  0  0  0  0  0  0  0  0  0
   12.7674   14.6684   22.3765 H   0  0  0  0  0  0  0  0  0  0  0  0
   11.5266    8.7193   23.6130 H   0  0  0  0  0  0  0  0  0  0  0  0
   11.7896    7.8812   22.0779 H   0  0  0  0  0  0  0  0  0  0  0  0
   10.3619    8.9142   22.2930 H   0  0  0  0  0  0  0  0  0  0  0  0
   12.4575   12.5690   21.0477 H   0  0  0  0  0  0  0  0  0  0  0  0
   13.6423   12.3685   22.3383 H   0  0  0  0  0  0  0  0  0  0  0  0
   12.1002   10.0894   20.9393 H   0  0  0  0  0  0  0  0  0  0  0  0
   13.2769    9.8354   22.2283 H   0  0  0  0  0  0  0  0  0  0  0  0
   11.9398   11.2552   23.7837 H   0  0  0  0  0  0  0  0  0  0  0  0
    5.7736   10.8794   26.5386 H   0  0  0  0  0  0  0  0  0  0  0  0
    5.6948    9.1534   26.2886 H   0  0  0  0  0  0  0  0  0  0  0  0
  1  5  1  6  0  0  0
  1 14  1  0  0  0  0
  1 15  2  0  0  0  0
  2 12  1  0  0  0  0
  2 13  1  0  0  0  0
  2 16  2  0  0  0  0
  3  5  1  0  0  0  0
  3 13  1  0  0  0  0
  4  6  1  0  0  0  0
  4 13  1  0  0  0  0
  5  6  1  0  0  0  0
  6  7  1  1  0  0  0
  8 10  1  0  0  0  0
  9 11  1  0  0  0  0
 10 12  1  0  0  0  0
 11 12  1  0  0  0  0
  3 17  1  0  0  0  0
  3 18  1  0  0  0  0
  4 19  1  0  0  0  0
  4 20  1  0  0  0  0
  5 21  1  0  0  0  0
  6 22  1  0  0  0  0
  7 23  1  0  0  0  0
  7 24  1  0  0  0  0
  7 25  1  0  0  0  0
  8 26  1  0  0  0  0
  8 27  1  0  0  0  0
  8 28  1  0  0  0  0
  9 29  1  0  0  0  0
  9 30  1  0  0  0  0
  9 31  1  0  0  0  0
 10 32  1  0  0  0  0
 10 33  1  0  0  0  0
 11 34  1  0  0  0  0
 11 35  1  0  0  0  0
 12 36  1  0  0  0  0
 14 37  1  0  0  0  0
 14 38  1  0  0  0  0
M  END
> <idnumber>
Z2061485259

> <heavy_atoms>
16

> <LogS>
-2.665

> <LogP>
0.686

> <rotating_bonds>
4

> <PSA>
63.4

> <hb_acceptors>
2

> <hb_donors>
1

> <Collection>
Advanced

> <link>
https://www.enaminestore.com/catalog/Z2061485259

> <ROCS_ShapeQuery>
_x1140_x0812_0A_x1140_0A_x1097_0A_x0365_0A_x1097_0A_x0310_0A

> <ROCS_TanimotoCombo>
0.652 

> <ROCS_ShapeTanimoto>
0.211 

> <ROCS_ColorTanimoto>
0.442 

> <ROCS_RefTversky>
0.194 

> <ROCS_RefColorTversky>
0.543 

> <ROCS_RefTverskyCombo>
0.737 

> <ROCS_FitTversky>
1.691 

> <ROCS_FitColorTversky>
0.703 

> <ROCS_FitTverskyCombo>
2.394 

> <ROCS_ColorScore>
-4.288

> <ROCS_Overlap>
1988.876

> <ROCS_Rank>
115                 

$$$$
untitled-dbase-727444_150
  -OEChem-02092421083D

 31 32  0     0  0  0  0  0  0999 V2000
   11.6666   16.1370   22.3137 C   0  0  0  0  0  0  0  0  0  0  0  0
    8.0056    9.7449   24.2445 C   0  0  0  0  0  0  0  0  0  0  0  0
    8.9780   10.4121   23.4940 C   0  0  0  0  0  0  0  0  0  0  0  0
    8.4967   12.5064   24.6250 C   0  0  0  0  0  0  0  0  0  0  0  0
    6.6112   12.2747   26.4126 C   0  0  0  0  0  0  0  0  0  0  0  0
    7.5112   11.8553   25.3933 C   0  0  0  0  0  0  0  0  0  0  0  0
    7.2889   10.4923   25.1857 C   0  0  0  0  0  0  0  0  0  0  0  0
    9.2214   11.7715   23.6797 C   0  0  0  0  0  0  0  0  0  0  0  0
    5.8735   11.1788   26.7967 C   0  0  0  0  0  0  0  0  0  0  0  0
   10.6182   12.1032   21.6133 C   0  0  0  0  0  0  0  0  0  0  0  0
    4.8062   11.0417   27.8051 C   0  0  0  0  0  0  0  0  0  0  0  0
   10.5151   15.4058   21.7812 C   0  0  0  0  0  0  0  0  0  0  0  0
   11.7091   13.0286   21.1185 C   0  0  0  0  0  0  0  0  0  0  0  0
   12.5759   16.7183   22.7403 N   0  0  0  0  0  0  0  0  0  0  0  0
    6.2896   10.1084   26.0513 N   0  0  0  0  0  0  0  0  0  0  0  0
   10.1995   12.4102   22.9154 N   0  0  0  0  0  0  0  0  0  0  0  0
   10.2044   11.1911   20.9020 O   0  0  0  0  0  0  0  0  0  0  0  0
   10.9427   14.4518   20.3057 S   0  0  0  0  0  0  0  0  0  0  0  0
    7.8171    8.6865   24.0993 H   0  0  0  0  0  0  0  0  0  0  0  0
    9.5465    9.8496   22.7562 H   0  0  0  0  0  0  0  0  0  0  0  0
    8.6879   13.5668   24.7690 H   0  0  0  0  0  0  0  0  0  0  0  0
    6.5159   13.2722   26.8203 H   0  0  0  0  0  0  0  0  0  0  0  0
    3.8134   11.2281   27.3626 H   0  0  0  0  0  0  0  0  0  0  0  0
    4.7873   10.0339   28.2553 H   0  0  0  0  0  0  0  0  0  0  0  0
    4.9353   11.7468   28.6448 H   0  0  0  0  0  0  0  0  0  0  0  0
    9.7110   16.1006   21.5213 H   0  0  0  0  0  0  0  0  0  0  0  0
   10.1257   14.7148   22.5350 H   0  0  0  0  0  0  0  0  0  0  0  0
   12.3020   13.3654   21.9744 H   0  0  0  0  0  0  0  0  0  0  0  0
   12.3823   12.5253   20.4188 H   0  0  0  0  0  0  0  0  0  0  0  0
    5.9182    9.1709   26.1225 H   0  0  0  0  0  0  0  0  0  0  0  0
   10.6711   13.2041   23.3629 H   0  0  0  0  0  0  0  0  0  0  0  0
  1 12  1  0  0  0  0
  1 14  3  0  0  0  0
  2  3  2  0  0  0  0
  2  7  1  0  0  0  0
  3  8  1  0  0  0  0
  4  6  1  0  0  0  0
  4  8  2  0  0  0  0
  5  6  1  0  0  0  0
  5  9  2  0  0  0  0
  6  7  2  0  0  0  0
  7 15  1  0  0  0  0
  8 16  1  0  0  0  0
  9 11  1  0  0  0  0
  9 15  1  0  0  0  0
 10 13  1  0  0  0  0
 10 16  1  0  0  0  0
 10 17  2  0  0  0  0
 12 18  1  0  0  0  0
 13 18  1  0  0  0  0
  2 19  1  0  0  0  0
  3 20  1  0  0  0  0
  4 21  1  0  0  0  0
  5 22  1  0  0  0  0
 11 23  1  0  0  0  0
 11 24  1  0  0  0  0
 11 25  1  0  0  0  0
 12 26  1  0  0  0  0
 12 27  1  0  0  0  0
 13 28  1  0  0  0  0
 13 29  1  0  0  0  0
 15 30  1  0  0  0  0
 16 31  1  0  0  0  0
M  END
> <idnumber>
Z395992752

> <heavy_atoms>
18

> <LogS>
-3.822

> <LogP>
1.047

> <rotating_bonds>
4

> <PSA>
68.68

> <hb_acceptors>
2

> <hb_donors>
2

> <Collection>
HTS

> <link>
https://www.enaminestore.com/catalog/Z395992752

> <ROCS_ShapeQuery>
_x1140_x0812_0A_x1140_0A_x1097_0A_x0365_0A_x1097_0A_x0310_0A

> <ROCS_TanimotoCombo>
0.652 

> <ROCS_ShapeTanimoto>
0.247 

> <ROCS_ColorTanimoto>
0.405 

> <ROCS_RefTversky>
0.223 

> <ROCS_RefColorTversky>
0.511 

> <ROCS_RefTverskyCombo>
0.734 

> <ROCS_FitTversky>
1.788 

> <ROCS_FitColorTversky>
0.660 

> <ROCS_FitTverskyCombo>
2.448 

> <ROCS_ColorScore>
-4.038

> <ROCS_Overlap>
2288.586

> <ROCS_Rank>
116                 

$$$$
untitled-dbase-616476_177
  -OEChem-02092421083D

 31 32  0     0  0  0  0  0  0999 V2000
   13.9402   15.2990   24.7231 C   0  0  0  0  0  0  0  0  0  0  0  0
   13.4692   16.5860   24.9576 C   0  0  0  0  0  0  0  0  0  0  0  0
    7.7799   12.2532   25.1805 C   0  0  0  0  0  0  0  0  0  0  0  0
    8.6214   12.5522   24.1148 C   0  0  0  0  0  0  0  0  0  0  0  0
   13.5583   14.6245   23.5687 C   0  0  0  0  0  0  0  0  0  0  0  0
   12.6253   17.1498   24.0143 C   0  0  0  0  0  0  0  0  0  0  0  0
    7.6185   10.9210   25.5255 C   0  0  0  0  0  0  0  0  0  0  0  0
    9.2667   11.5243   23.4362 C   0  0  0  0  0  0  0  0  0  0  0  0
   12.7102   15.2760   22.6877 C   0  0  0  0  0  0  0  0  0  0  0  0
    9.0389   10.2248   23.8594 C   0  0  0  0  0  0  0  0  0  0  0  0
   10.1479   11.8295   22.3197 C   0  0  0  0  0  0  0  0  0  0  0  0
   12.2749   14.5742   21.4247 C   0  0  0  0  0  0  0  0  0  0  0  0
   12.2046   13.0570   21.5805 C   0  0  0  0  0  0  0  0  0  0  0  0
   12.2323   16.5257   22.8813 N   0  0  0  0  0  0  0  0  0  0  0  0
    8.2285    9.8954   24.8901 N   0  0  0  0  0  0  0  0  0  0  0  0
   11.2524   12.6464   22.5872 N   0  0  0  0  0  0  0  0  0  0  0  0
    9.9006   11.3909   21.1826 O   0  0  0  0  0  0  0  0  0  0  0  0
    9.6555    9.1821   23.2174 O   0  0  0  0  0  0  0  0  0  0  0  0
   14.6037   14.8226   25.4386 H   0  0  0  0  0  0  0  0  0  0  0  0
   13.7538   17.1307   25.8505 H   0  0  0  0  0  0  0  0  0  0  0  0
    7.2672   13.0378   25.7252 H   0  0  0  0  0  0  0  0  0  0  0  0
    8.7668   13.5885   23.8217 H   0  0  0  0  0  0  0  0  0  0  0  0
   13.9187   13.6202   23.3740 H   0  0  0  0  0  0  0  0  0  0  0  0
   12.2306   18.1512   24.1503 H   0  0  0  0  0  0  0  0  0  0  0  0
    6.9736   10.6345   26.3497 H   0  0  0  0  0  0  0  0  0  0  0  0
   12.9842   14.8241   20.6256 H   0  0  0  0  0  0  0  0  0  0  0  0
   11.3028   14.9658   21.0988 H   0  0  0  0  0  0  0  0  0  0  0  0
   11.8851   12.5998   20.6387 H   0  0  0  0  0  0  0  0  0  0  0  0
   13.1768   12.6334   21.8531 H   0  0  0  0  0  0  0  0  0  0  0  0
   11.3725   13.0289   23.5195 H   0  0  0  0  0  0  0  0  0  0  0  0
   10.2088    9.5214   22.5005 H   0  0  0  0  0  0  0  0  0  0  0  0
  1  2  1  0  0  0  0
  1  5  2  0  0  0  0
  2  6  2  0  0  0  0
  3  4  2  0  0  0  0
  3  7  1  0  0  0  0
  4  8  1  0  0  0  0
  5  9  1  0  0  0  0
  6 14  1  0  0  0  0
  7 15  2  0  0  0  0
  8 10  2  0  0  0  0
  8 11  1  0  0  0  0
  9 12  1  0  0  0  0
  9 14  2  0  0  0  0
 10 15  1  0  0  0  0
 10 18  1  0  0  0  0
 11 16  1  0  0  0  0
 11 17  2  0  0  0  0
 12 13  1  0  0  0  0
 13 16  1  0  0  0  0
  1 19  1  0  0  0  0
  2 20  1  0  0  0  0
  3 21  1  0  0  0  0
  4 22  1  0  0  0  0
  5 23  1  0  0  0  0
  6 24  1  0  0  0  0
  7 25  1  0  0  0  0
 12 26  1  0  0  0  0
 12 27  1  0  0  0  0
 13 28  1  0  0  0  0
 13 29  1  0  0  0  0
 16 30  1  0  0  0  0
 18 31  1  0  0  0  0
M  END
> <idnumber>
Z184883800

> <heavy_atoms>
18

> <LogS>
-1.559

> <LogP>
1.997

> <rotating_bonds>
4

> <PSA>
75.11

> <hb_acceptors>
4

> <hb_donors>
2

> <Collection>
Legacy

> <link>
https://www.enaminestore.com/catalog/Z184883800

> <ROCS_ShapeQuery>
_x1140_x0812_0A_x1140_0A_x1097_0A_x0365_0A_x1097_0A_x0310_0A

> <ROCS_TanimotoCombo>
0.652 

> <ROCS_ShapeTanimoto>
0.222 

> <ROCS_ColorTanimoto>
0.430 

> <ROCS_RefTversky>
0.205 

> <ROCS_RefColorTversky>
0.601 

> <ROCS_RefTverskyCombo>
0.806 

> <ROCS_FitTversky>
1.610 

> <ROCS_FitColorTversky>
0.601 

> <ROCS_FitTverskyCombo>
2.211 

> <ROCS_ColorScore>
-4.811

> <ROCS_Overlap>
2103.344

> <ROCS_Rank>
117                 

$$$$
untitled-dbase-311742_12
  -OEChem-02092421083D

 36 37  0     0  0  0  0  0  0999 V2000
    8.2096   14.3954   25.5636 C   0  0  0  0  0  0  0  0  0  0  0  0
    8.8480   14.7449   24.3746 C   0  0  0  0  0  0  0  0  0  0  0  0
    7.9169   13.0580   25.8368 C   0  0  0  0  0  0  0  0  0  0  0  0
    9.1969   13.7580   23.4532 C   0  0  0  0  0  0  0  0  0  0  0  0
    8.2665   12.0715   24.9130 C   0  0  0  0  0  0  0  0  0  0  0  0
    8.9033   12.4178   23.7266 C   0  0  0  0  0  0  0  0  0  0  0  0
    7.9928   10.6502   25.1280 C   0  0  0  0  0  0  0  0  0  0  0  0
    9.2630   11.3584   22.7662 C   0  0  0  0  0  0  0  0  0  0  0  0
    7.3222   10.1813   26.3685 C   0  0  0  0  0  0  0  0  0  0  0  0
   11.6548    9.8247   21.9031 C   0  0  0  0  0  0  0  0  0  0  0  0
   11.1595    8.0467   23.6114 C   0  0  0  0  0  0  0  0  0  0  0  0
    5.0837    9.7262   27.3131 C   0  0  0  0  0  0  0  0  0  0  0  0
    9.2709    8.9863   22.1966 C   0  0  0  0  0  0  0  0  0  0  0  0
   10.7622    8.6341   22.2564 C   0  0  0  0  0  0  0  0  0  0  0  0
    8.3061    9.7181   24.2878 N   0  0  0  0  0  0  0  0  0  0  0  0
    8.9312   10.0543   23.1221 N   0  0  0  0  0  0  0  0  0  0  0  0
    5.9525   10.1508   26.2390 N   0  0  0  0  0  0  0  0  0  0  0  0
    9.8264   11.6730   21.7200 O   0  0  0  0  0  0  0  0  0  0  0  0
    7.9855    9.8754   27.3459 O   0  0  0  0  0  0  0  0  0  0  0  0
    7.9380   15.1661   26.2793 H   0  0  0  0  0  0  0  0  0  0  0  0
    9.0737   15.7867   24.1659 H   0  0  0  0  0  0  0  0  0  0  0  0
    7.4147   12.8173   26.7687 H   0  0  0  0  0  0  0  0  0  0  0  0
    9.6939   14.0525   22.5331 H   0  0  0  0  0  0  0  0  0  0  0  0
   11.5382   10.6475   22.6158 H   0  0  0  0  0  0  0  0  0  0  0  0
   12.7094    9.5284   21.9091 H   0  0  0  0  0  0  0  0  0  0  0  0
   11.4210   10.2030   20.9025 H   0  0  0  0  0  0  0  0  0  0  0  0
   11.0112    8.7651   24.4244 H   0  0  0  0  0  0  0  0  0  0  0  0
   12.2160    7.7577   23.6107 H   0  0  0  0  0  0  0  0  0  0  0  0
   10.5695    7.1517   23.8352 H   0  0  0  0  0  0  0  0  0  0  0  0
    4.9171    8.6411   27.2435 H   0  0  0  0  0  0  0  0  0  0  0  0
    5.5525    9.9637   28.2794 H   0  0  0  0  0  0  0  0  0  0  0  0
    4.1201   10.2507   27.2343 H   0  0  0  0  0  0  0  0  0  0  0  0
    8.9887    9.3007   21.1860 H   0  0  0  0  0  0  0  0  0  0  0  0
    8.6666    8.1088   22.4518 H   0  0  0  0  0  0  0  0  0  0  0  0
   10.9385    7.8592   21.4987 H   0  0  0  0  0  0  0  0  0  0  0  0
    5.5372   10.4370   25.3570 H   0  0  0  0  0  0  0  0  0  0  0  0
  1  2  1  0  0  0  0
  1  3  2  0  0  0  0
  2  4  2  0  0  0  0
  3  5  1  0  0  0  0
  4  6  1  0  0  0  0
  5  6  2  0  0  0  0
  5  7  1  0  0  0  0
  6  8  1  0  0  0  0
  7  9  1  0  0  0  0
  7 15  2  0  0  0  0
  8 16  1  0  0  0  0
  8 18  2  0  0  0  0
  9 17  1  0  0  0  0
  9 19  2  0  0  0  0
 10 14  1  0  0  0  0
 11 14  1  0  0  0  0
 12 17  1  0  0  0  0
 13 14  1  0  0  0  0
 13 16  1  0  0  0  0
 15 16  1  0  0  0  0
  1 20  1  0  0  0  0
  2 21  1  0  0  0  0
  3 22  1  0  0  0  0
  4 23  1  0  0  0  0
 10 24  1  0  0  0  0
 10 25  1  0  0  0  0
 10 26  1  0  0  0  0
 11 27  1  0  0  0  0
 11 28  1  0  0  0  0
 11 29  1  0  0  0  0
 12 30  1  0  0  0  0
 12 31  1  0  0  0  0
 12 32  1  0  0  0  0
 13 33  1  0  0  0  0
 13 34  1  0  0  0  0
 14 35  1  0  0  0  0
 17 36  1  0  0  0  0
M  END
> <idnumber>
Z30271270

> <heavy_atoms>
19

> <LogS>
-3.436

> <LogP>
1.473

> <rotating_bonds>
3

> <PSA>
61.77

> <hb_acceptors>
3

> <hb_donors>
1

> <Collection>
Legacy

> <link>
https://www.enaminestore.com/catalog/Z30271270

> <ROCS_ShapeQuery>
_x1140_x0812_0A_x1140_0A_x1097_0A_x0365_0A_x1097_0A_x0310_0A

> <ROCS_TanimotoCombo>
0.652 

> <ROCS_ShapeTanimoto>
0.245 

> <ROCS_ColorTanimoto>
0.406 

> <ROCS_RefTversky>
0.223 

> <ROCS_RefColorTversky>
0.545 

> <ROCS_RefTverskyCombo>
0.768 

> <ROCS_FitTversky>
1.697 

> <ROCS_FitColorTversky>
0.615 

> <ROCS_FitTverskyCombo>
2.312 

> <ROCS_ColorScore>
-4.336

> <ROCS_Overlap>
2285.691

> <ROCS_Rank>
118                 

$$$$
untitled-dbase-980828_155
  -OEChem-02092421083D

 32 33  0     1  0  0  0  0  0999 V2000
    8.2887   12.4355   24.0913 C   0  0  0  0  0  0  0  0  0  0  0  0
    7.4303   12.0151   25.1011 C   0  0  0  0  0  0  0  0  0  0  0  0
    9.1048   11.5101   23.4503 C   0  0  0  0  0  0  0  0  0  0  0  0
    7.4258   10.6691   25.4300 C   0  0  0  0  0  0  0  0  0  0  0  0
    9.0256   10.1868   23.8532 C   0  0  0  0  0  0  0  0  0  0  0  0
   10.0245   11.9519   22.3704 C   0  0  0  0  0  0  0  0  0  0  0  0
    5.1597    9.6499   26.1370 C   0  0  0  0  0  0  0  0  0  0  0  0
    5.2640   10.9823   26.8109 C   0  0  0  0  0  0  0  0  0  0  0  0
    6.5126   10.1957   26.5106 C   0  0  0  0  0  0  0  0  0  0  0  0
   11.1932   14.1061   20.6303 C   0  0  0  0  0  0  0  0  0  0  0  0
   12.8653   14.4104   22.4896 C   0  0  0  0  0  0  0  0  0  0  0  0
   11.9229   13.4403   21.7900 C   0  0  1  0  0  0  0  0  0  0  0  0
    8.2041    9.7408   24.8299 N   0  0  0  0  0  0  0  0  0  0  0  0
   10.9751   12.8952   22.7316 N   0  0  0  0  0  0  0  0  0  0  0  0
    9.8891   11.4898   21.2405 O   0  0  0  0  0  0  0  0  0  0  0  0
    9.8133    9.2427   23.2469 O   0  0  0  0  0  0  0  0  0  0  0  0
   13.7844   13.7130   23.2103 F   0  0  0  0  0  0  0  0  0  0  0  0
    8.3132   13.4855   23.8124 H   0  0  0  0  0  0  0  0  0  0  0  0
    6.7889   12.7281   25.6082 H   0  0  0  0  0  0  0  0  0  0  0  0
    4.7803    8.8185   26.7195 H   0  0  0  0  0  0  0  0  0  0  0  0
    4.8639    9.6349   25.0951 H   0  0  0  0  0  0  0  0  0  0  0  0
    5.0401   11.8632   26.2209 H   0  0  0  0  0  0  0  0  0  0  0  0
    4.9538   11.0501   27.8468 H   0  0  0  0  0  0  0  0  0  0  0  0
    7.0035    9.7307   27.3555 H   0  0  0  0  0  0  0  0  0  0  0  0
   10.5986   14.9612   20.9703 H   0  0  0  0  0  0  0  0  0  0  0  0
   11.9060   14.4786   19.8865 H   0  0  0  0  0  0  0  0  0  0  0  0
   10.5220   13.3985   20.1323 H   0  0  0  0  0  0  0  0  0  0  0  0
   12.3265   15.0645   23.1821 H   0  0  0  0  0  0  0  0  0  0  0  0
   13.4062   15.0307   21.7685 H   0  0  0  0  0  0  0  0  0  0  0  0
   12.5041   12.5929   21.4101 H   0  0  0  0  0  0  0  0  0  0  0  0
   10.9845   13.2770   23.6729 H   0  0  0  0  0  0  0  0  0  0  0  0
    9.6419    8.3747   23.6375 H   0  0  0  0  0  0  0  0  0  0  0  0
  1  2  2  0  0  0  0
  1  3  1  0  0  0  0
  2  4  1  0  0  0  0
  3  5  2  0  0  0  0
  3  6  1  0  0  0  0
  4  9  1  0  0  0  0
  4 13  2  0  0  0  0
  5 13  1  0  0  0  0
  5 16  1  0  0  0  0
  6 14  1  0  0  0  0
  6 15  2  0  0  0  0
  7  8  1  0  0  0  0
  7  9  1  0  0  0  0
  8  9  1  0  0  0  0
 10 12  1  6  0  0  0
 11 12  1  0  0  0  0
 11 17  1  0  0  0  0
 12 14  1  0  0  0  0
  1 18  1  0  0  0  0
  2 19  1  0  0  0  0
  7 20  1  0  0  0  0
  7 21  1  0  0  0  0
  8 22  1  0  0  0  0
  8 23  1  0  0  0  0
  9 24  1  0  0  0  0
 10 25  1  0  0  0  0
 10 26  1  0  0  0  0
 10 27  1  0  0  0  0
 11 28  1  0  0  0  0
 11 29  1  0  0  0  0
 12 30  1  0  0  0  0
 14 31  1  0  0  0  0
 16 32  1  0  0  0  0
M  END
> <idnumber>
Z2960004252

> <heavy_atoms>
17

> <LogS>
-2.436

> <LogP>
2.901

> <rotating_bonds>
4

> <PSA>
62.22

> <hb_acceptors>
3

> <hb_donors>
2

> <Collection>
Advanced

> <link>
https://www.enaminestore.com/catalog/Z2960004252

> <ROCS_ShapeQuery>
_x1140_x0812_0A_x1140_0A_x1097_0A_x0365_0A_x1097_0A_x0310_0A

> <ROCS_TanimotoCombo>
0.651 

> <ROCS_ShapeTanimoto>
0.257 

> <ROCS_ColorTanimoto>
0.394 

> <ROCS_RefTversky>
0.229 

> <ROCS_RefColorTversky>
0.501 

> <ROCS_RefTverskyCombo>
0.731 

> <ROCS_FitTversky>
1.885 

> <ROCS_FitColorTversky>
0.648 

> <ROCS_FitTverskyCombo>
2.533 

> <ROCS_ColorScore>
-3.962

> <ROCS_Overlap>
2351.880

> <ROCS_Rank>
119                 

$$$$
untitled-dbase-47385_2
  -OEChem-02092421083D

 26 27  0     0  0  0  0  0  0999 V2000
    6.9339   12.6226   27.3779 C   0  0  0  0  0  0  0  0  0  0  0  0
    6.5240   11.2974   27.4571 C   0  0  0  0  0  0  0  0  0  0  0  0
    7.7500   13.0276   26.3256 C   0  0  0  0  0  0  0  0  0  0  0  0
    6.9309   10.3807   26.4844 C   0  0  0  0  0  0  0  0  0  0  0  0
    8.1590   12.1054   25.3474 C   0  0  0  0  0  0  0  0  0  0  0  0
    8.9804   12.4860   24.2776 C   0  0  0  0  0  0  0  0  0  0  0  0
    7.7466   10.7584   25.4214 C   0  0  0  0  0  0  0  0  0  0  0  0
    9.3670   11.5516   23.3277 C   0  0  0  0  0  0  0  0  0  0  0  0
    8.9134   10.2575   23.4841 C   0  0  0  0  0  0  0  0  0  0  0  0
    9.4566   13.9016   24.1360 C   0  0  0  0  0  0  0  0  0  0  0  0
   11.1441    9.0089   22.4952 C   0  0  0  0  0  0  0  0  0  0  0  0
    8.1202    9.8493   24.5011 N   0  0  0  0  0  0  0  0  0  0  0  0
   10.1921   11.9285   22.2492 N   0  0  0  0  0  0  0  0  0  0  0  0
    9.3483    8.9695   22.3192 S   0  0  0  0  0  0  0  0  0  0  0  0
    6.6206   13.3371   28.1325 H   0  0  0  0  0  0  0  0  0  0  0  0
    5.8877   10.9730   28.2753 H   0  0  0  0  0  0  0  0  0  0  0  0
    8.0540   14.0708   26.2888 H   0  0  0  0  0  0  0  0  0  0  0  0
    6.5971    9.3481   26.5700 H   0  0  0  0  0  0  0  0  0  0  0  0
   10.4079   14.0294   24.6605 H   0  0  0  0  0  0  0  0  0  0  0  0
    9.5942   14.1628   23.0820 H   0  0  0  0  0  0  0  0  0  0  0  0
    8.7250   14.6021   24.5514 H   0  0  0  0  0  0  0  0  0  0  0  0
   11.5986    8.2641   21.8373 H   0  0  0  0  0  0  0  0  0  0  0  0
   11.4206    8.7873   23.5290 H   0  0  0  0  0  0  0  0  0  0  0  0
   11.5215    9.9991   22.2286 H   0  0  0  0  0  0  0  0  0  0  0  0
   10.4582   12.8878   22.1491 H   0  0  0  0  0  0  0  0  0  0  0  0
   10.4213   11.2514   21.5493 H   0  0  0  0  0  0  0  0  0  0  0  0
  1  2  1  0  0  0  0
  1  3  2  0  0  0  0
  2  4  2  0  0  0  0
  3  5  1  0  0  0  0
  4  7  1  0  0  0  0
  5  6  2  0  0  0  0
  5  7  1  0  0  0  0
  6  8  1  0  0  0  0
  6 10  1  0  0  0  0
  7 12  2  0  0  0  0
  8  9  2  0  0  0  0
  8 13  1  0  0  0  0
  9 12  1  0  0  0  0
  9 14  1  0  0  0  0
 11 14  1  0  0  0  0
  1 15  1  0  0  0  0
  2 16  1  0  0  0  0
  3 17  1  0  0  0  0
  4 18  1  0  0  0  0
 10 19  1  0  0  0  0
 10 20  1  0  0  0  0
 10 21  1  0  0  0  0
 11 22  1  0  0  0  0
 11 23  1  0  0  0  0
 11 24  1  0  0  0  0
 13 25  1  0  0  0  0
 13 26  1  0  0  0  0
M  END
> <idnumber>
Z1509415012

> <heavy_atoms>
14

> <LogS>
-3.474

> <LogP>
3.29

> <rotating_bonds>
1

> <PSA>
38.91

> <hb_acceptors>
2

> <hb_donors>
1

> <Collection>
Legacy

> <link>
https://www.enaminestore.com/catalog/Z1509415012

> <ROCS_ShapeQuery>
_x1140_x0812_0A_x1140_0A_x1097_0A_x0365_0A_x1097_0A_x0310_0A

> <ROCS_TanimotoCombo>
0.651 

> <ROCS_ShapeTanimoto>
0.234 

> <ROCS_ColorTanimoto>
0.417 

> <ROCS_RefTversky>
0.210 

> <ROCS_RefColorTversky>
0.522 

> <ROCS_RefTverskyCombo>
0.732 

> <ROCS_FitTversky>
1.917 

> <ROCS_FitColorTversky>
0.675 

> <ROCS_FitTverskyCombo>
2.593 

> <ROCS_ColorScore>
-4.123

> <ROCS_Overlap>
2155.378

> <ROCS_Rank>
120                 

$$$$
untitled-dbase-145067_83
  -OEChem-02092421083D

 39 40  0     0  0  0  0  0  0999 V2000
   12.0841   16.7516   22.9568 C   0  0  0  0  0  0  0  0  0  0  0  0
   11.1206   16.5153   21.9763 C   0  0  0  0  0  0  0  0  0  0  0  0
    8.6770   12.5753   24.6868 C   0  0  0  0  0  0  0  0  0  0  0  0
    7.6872   11.9886   25.4674 C   0  0  0  0  0  0  0  0  0  0  0  0
   12.8797   14.4824   22.7219 C   0  0  0  0  0  0  0  0  0  0  0  0
    8.9732   10.4880   23.5859 C   0  0  0  0  0  0  0  0  0  0  0  0
   12.9637   15.7352   23.3296 C   0  0  0  0  0  0  0  0  0  0  0  0
   11.0366   15.2625   21.3686 C   0  0  0  0  0  0  0  0  0  0  0  0
   11.9162   14.2461   21.7414 C   0  0  0  0  0  0  0  0  0  0  0  0
    9.3370   11.8176   23.7258 C   0  0  0  0  0  0  0  0  0  0  0  0
    7.3970   10.6514   25.2494 C   0  0  0  0  0  0  0  0  0  0  0  0
   10.6956   12.0331   21.6156 C   0  0  0  0  0  0  0  0  0  0  0  0
   13.9934   15.9879   24.3783 C   0  0  0  0  0  0  0  0  0  0  0  0
    9.9961   15.0328   20.3221 C   0  0  0  0  0  0  0  0  0  0  0  0
    5.9945    8.7020   25.9265 C   0  0  0  0  0  0  0  0  0  0  0  0
   11.8448   12.8969   21.1048 C   0  0  0  0  0  0  0  0  0  0  0  0
    8.0168    9.8832   24.3255 N   0  0  0  0  0  0  0  0  0  0  0  0
   10.3495   12.3869   22.9173 N   0  0  0  0  0  0  0  0  0  0  0  0
    6.3870   10.0676   26.0539 N   0  0  0  0  0  0  0  0  0  0  0  0
   10.1867   11.1570   20.9237 O   0  0  0  0  0  0  0  0  0  0  0  0
   12.1419   17.7306   23.4253 H   0  0  0  0  0  0  0  0  0  0  0  0
   10.4394   17.3136   21.6933 H   0  0  0  0  0  0  0  0  0  0  0  0
    8.9264   13.6224   24.8364 H   0  0  0  0  0  0  0  0  0  0  0  0
    7.1656   12.5730   26.2188 H   0  0  0  0  0  0  0  0  0  0  0  0
   13.5663   13.6908   23.0126 H   0  0  0  0  0  0  0  0  0  0  0  0
    9.4529    9.8453   22.8539 H   0  0  0  0  0  0  0  0  0  0  0  0
   13.5951   15.7453   25.3711 H   0  0  0  0  0  0  0  0  0  0  0  0
   14.8934   15.3830   24.2072 H   0  0  0  0  0  0  0  0  0  0  0  0
   14.3124   17.0385   24.3786 H   0  0  0  0  0  0  0  0  0  0  0  0
   10.3927   15.2817   19.3310 H   0  0  0  0  0  0  0  0  0  0  0  0
    9.6662   13.9866   20.3141 H   0  0  0  0  0  0  0  0  0  0  0  0
    9.1059   15.6468   20.5069 H   0  0  0  0  0  0  0  0  0  0  0  0
    6.5896    8.2211   25.1362 H   0  0  0  0  0  0  0  0  0  0  0  0
    6.1636    8.1815   26.8807 H   0  0  0  0  0  0  0  0  0  0  0  0
    4.9274    8.6502   25.6647 H   0  0  0  0  0  0  0  0  0  0  0  0
   11.7390   12.9961   20.0126 H   0  0  0  0  0  0  0  0  0  0  0  0
   12.7862   12.3489   21.2699 H   0  0  0  0  0  0  0  0  0  0  0  0
   10.8873   13.1430   23.3359 H   0  0  0  0  0  0  0  0  0  0  0  0
    5.9507   10.6637   26.7272 H   0  0  0  0  0  0  0  0  0  0  0  0
  1  2  2  0  0  0  0
  1  7  1  0  0  0  0
  2  8  1  0  0  0  0
  3  4  2  0  0  0  0
  3 10  1  0  0  0  0
  4 11  1  0  0  0  0
  5  7  2  0  0  0  0
  5  9  1  0  0  0  0
  6 10  2  0  0  0  0
  6 17  1  0  0  0  0
  7 13  1  0  0  0  0
  8  9  2  0  0  0  0
  8 14  1  0  0  0  0
  9 16  1  0  0  0  0
 10 18  1  0  0  0  0
 11 17  2  0  0  0  0
 11 19  1  0  0  0  0
 12 16  1  0  0  0  0
 12 18  1  0  0  0  0
 12 20  2  0  0  0  0
 15 19  1  0  0  0  0
  1 21  1  0  0  0  0
  2 22  1  0  0  0  0
  3 23  1  0  0  0  0
  4 24  1  0  0  0  0
  5 25  1  0  0  0  0
  6 26  1  0  0  0  0
 13 27  1  0  0  0  0
 13 28  1  0  0  0  0
 13 29  1  0  0  0  0
 14 30  1  0  0  0  0
 14 31  1  0  0  0  0
 14 32  1  0  0  0  0
 15 33  1  0  0  0  0
 15 34  1  0  0  0  0
 15 35  1  0  0  0  0
 16 36  1  0  0  0  0
 16 37  1  0  0  0  0
 18 38  1  0  0  0  0
 19 39  1  0  0  0  0
M  END
> <idnumber>
Z2394918409

> <heavy_atoms>
20

> <LogS>
-3.324

> <LogP>
3.449

> <rotating_bonds>
4

> <PSA>
54.02

> <hb_acceptors>
3

> <hb_donors>
2

> <Collection>
Advanced

> <link>
https://www.enaminestore.com/catalog/Z2394918409

> <ROCS_ShapeQuery>
_x1140_x0812_0A_x1140_0A_x1097_0A_x0365_0A_x1097_0A_x0310_0A

> <ROCS_TanimotoCombo>
0.651 

> <ROCS_ShapeTanimoto>
0.225 

> <ROCS_ColorTanimoto>
0.426 

> <ROCS_RefTversky>
0.208 

> <ROCS_RefColorTversky>
0.530 

> <ROCS_RefTverskyCombo>
0.738 

> <ROCS_FitTversky>
1.548 

> <ROCS_FitColorTversky>
0.686 

> <ROCS_FitTverskyCombo>
2.234 

> <ROCS_ColorScore>
-4.184

> <ROCS_Overlap>
2136.378

> <ROCS_Rank>
121                 

$$$$
untitled-dbase-28586_19
  -OEChem-02092421083D

 25 25  0     0  0  0  0  0  0999 V2000
    7.5441   12.0890   25.1809 C   0  0  0  0  0  0  0  0  0  0  0  0
    8.4414   12.5124   24.2068 C   0  0  0  0  0  0  0  0  0  0  0  0
    7.4664   10.7310   25.4447 C   0  0  0  0  0  0  0  0  0  0  0  0
    9.2225   11.5781   23.5358 C   0  0  0  0  0  0  0  0  0  0  0  0
    9.0698   10.2430   23.8734 C   0  0  0  0  0  0  0  0  0  0  0  0
   10.1557   12.0311   22.5135 C   0  0  0  0  0  0  0  0  0  0  0  0
   12.9844   14.3472   22.8659 C   0  0  0  0  0  0  0  0  0  0  0  0
   11.2867    9.3012   23.2222 C   0  0  0  0  0  0  0  0  0  0  0  0
   12.0561   13.4151   22.1168 C   0  0  0  0  0  0  0  0  0  0  0  0
    8.2088    9.7937   24.8138 N   0  0  0  0  0  0  0  0  0  0  0  0
    9.8609    9.2840   23.1919 N   0  0  0  0  0  0  0  0  0  0  0  0
   10.1177   11.6793   21.3282 O   0  0  0  0  0  0  0  0  0  0  0  0
   11.0808   12.8970   23.0278 O   0  0  0  0  0  0  0  0  0  0  0  0
    6.9240   12.7995   25.7154 H   0  0  0  0  0  0  0  0  0  0  0  0
    8.5227   13.5720   23.9792 H   0  0  0  0  0  0  0  0  0  0  0  0
    6.7821   10.3496   26.1955 H   0  0  0  0  0  0  0  0  0  0  0  0
   12.4306   15.1853   23.2979 H   0  0  0  0  0  0  0  0  0  0  0  0
   13.5015   13.8131   23.6698 H   0  0  0  0  0  0  0  0  0  0  0  0
   13.7571   14.7414   22.1974 H   0  0  0  0  0  0  0  0  0  0  0  0
   11.6308   10.1457   23.8374 H   0  0  0  0  0  0  0  0  0  0  0  0
   11.6555    8.3590   23.6539 H   0  0  0  0  0  0  0  0  0  0  0  0
   11.6738    9.4118   22.1985 H   0  0  0  0  0  0  0  0  0  0  0  0
   12.6163   12.5791   21.6872 H   0  0  0  0  0  0  0  0  0  0  0  0
   11.5397   13.9504   21.3145 H   0  0  0  0  0  0  0  0  0  0  0  0
    9.3688    8.5823   22.6781 H   0  0  0  0  0  0  0  0  0  0  0  0
  1  2  2  0  0  0  0
  1  3  1  0  0  0  0
  2  4  1  0  0  0  0
  3 10  2  0  0  0  0
  4  5  2  0  0  0  0
  4  6  1  0  0  0  0
  5 10  1  0  0  0  0
  5 11  1  0  0  0  0
  6 12  2  0  0  0  0
  6 13  1  0  0  0  0
  7  9  1  0  0  0  0
  8 11  1  0  0  0  0
  9 13  1  0  0  0  0
  1 14  1  0  0  0  0
  2 15  1  0  0  0  0
  3 16  1  0  0  0  0
  7 17  1  0  0  0  0
  7 18  1  0  0  0  0
  7 19  1  0  0  0  0
  8 20  1  0  0  0  0
  8 21  1  0  0  0  0
  8 22  1  0  0  0  0
  9 23  1  0  0  0  0
  9 24  1  0  0  0  0
 11 25  1  0  0  0  0
M  END
> <idnumber>
Z359297600

> <heavy_atoms>
13

> <LogS>
-1.33

> <LogP>
2.353

> <rotating_bonds>
4

> <PSA>
51.22

> <hb_acceptors>
3

> <hb_donors>
1

> <Collection>
Legacy

> <link>
https://www.enaminestore.com/catalog/Z359297600

> <ROCS_ShapeQuery>
_x1140_x0812_0A_x1140_0A_x1097_0A_x0365_0A_x1097_0A_x0310_0A

> <ROCS_TanimotoCombo>
0.651 

> <ROCS_ShapeTanimoto>
0.235 

> <ROCS_ColorTanimoto>
0.416 

> <ROCS_RefTversky>
0.210 

> <ROCS_RefColorTversky>
0.452 

> <ROCS_RefTverskyCombo>
0.662 

> <ROCS_FitTversky>
2.000 

> <ROCS_FitColorTversky>
0.839 

> <ROCS_FitTverskyCombo>
2.840 

> <ROCS_ColorScore>
-3.526

> <ROCS_Overlap>
2153.917

> <ROCS_Rank>
122                 

$$$$
untitled-dbase-1096649_53
  -OEChem-02092421083D

 38 40  0     0  0  0  0  0  0999 V2000
    5.5392   12.2263   26.7572 C   0  0  0  0  0  0  0  0  0  0  0  0
    5.5158   10.8701   27.0578 C   0  0  0  0  0  0  0  0  0  0  0  0
    6.4200   12.7004   25.7892 C   0  0  0  0  0  0  0  0  0  0  0  0
    6.3727    9.9914   26.3902 C   0  0  0  0  0  0  0  0  0  0  0  0
   10.6600   16.9197   21.2565 C   0  0  0  0  0  0  0  0  0  0  0  0
    8.1781   12.2666   24.1393 C   0  0  0  0  0  0  0  0  0  0  0  0
   11.6397   17.6153   21.9466 C   0  0  0  0  0  0  0  0  0  0  0  0
   12.6753   15.6750   22.6108 C   0  0  0  0  0  0  0  0  0  0  0  0
    7.2817   11.8164   25.1178 C   0  0  0  0  0  0  0  0  0  0  0  0
    9.0160   11.3684   23.4942 C   0  0  0  0  0  0  0  0  0  0  0  0
   10.7203   15.5306   21.2642 C   0  0  0  0  0  0  0  0  0  0  0  0
   11.7440   14.8886   21.9520 C   0  0  0  0  0  0  0  0  0  0  0  0
    7.2633   10.4381   25.4178 C   0  0  0  0  0  0  0  0  0  0  0  0
    8.9258   10.0394   23.8551 C   0  0  0  0  0  0  0  0  0  0  0  0
    9.9416   11.8526   22.4796 C   0  0  0  0  0  0  0  0  0  0  0  0
   11.8571   13.3920   21.9918 C   0  0  0  0  0  0  0  0  0  0  0  0
    9.6801   14.7522   20.5292 C   0  0  0  0  0  0  0  0  0  0  0  0
   12.6494   17.0266   22.6260 N   0  0  0  0  0  0  0  0  0  0  0  0
    8.0753    9.5641   24.7935 N   0  0  0  0  0  0  0  0  0  0  0  0
    9.7750    9.1083   23.2061 N   0  0  0  0  0  0  0  0  0  0  0  0
   10.8876   12.7999   22.8853 N   0  0  0  0  0  0  0  0  0  0  0  0
    9.8620   11.4438   21.3086 O   0  0  0  0  0  0  0  0  0  0  0  0
    8.7497   15.5349   19.9077 F   0  0  0  0  0  0  0  0  0  0  0  0
   10.1898   13.9540   19.5456 F   0  0  0  0  0  0  0  0  0  0  0  0
    8.9728   13.9205   21.3474 F   0  0  0  0  0  0  0  0  0  0  0  0
    4.8749   12.9123   27.2737 H   0  0  0  0  0  0  0  0  0  0  0  0
    4.8319   10.4915   27.8117 H   0  0  0  0  0  0  0  0  0  0  0  0
    6.4303   13.7640   25.5615 H   0  0  0  0  0  0  0  0  0  0  0  0
    6.3348    8.9336   26.6441 H   0  0  0  0  0  0  0  0  0  0  0  0
    9.8741   17.4502   20.7299 H   0  0  0  0  0  0  0  0  0  0  0  0
    8.2191   13.3238   23.8826 H   0  0  0  0  0  0  0  0  0  0  0  0
   11.6375   18.7000   21.9714 H   0  0  0  0  0  0  0  0  0  0  0  0
   13.4974   15.2319   23.1645 H   0  0  0  0  0  0  0  0  0  0  0  0
   11.7009   12.9663   20.9946 H   0  0  0  0  0  0  0  0  0  0  0  0
   12.8530   13.0819   22.3255 H   0  0  0  0  0  0  0  0  0  0  0  0
   10.3753    9.4308   22.4790 H   0  0  0  0  0  0  0  0  0  0  0  0
    9.6842    8.1406   23.4260 H   0  0  0  0  0  0  0  0  0  0  0  0
   10.8674   13.1456   23.8391 H   0  0  0  0  0  0  0  0  0  0  0  0
  1  2  1  0  0  0  0
  1  3  2  0  0  0  0
  2  4  2  0  0  0  0
  3  9  1  0  0  0  0
  4 13  1  0  0  0  0
  5  7  2  0  0  0  0
  5 11  1  0  0  0  0
  6  9  2  0  0  0  0
  6 10  1  0  0  0  0
  7 18  1  0  0  0  0
  8 12  1  0  0  0  0
  8 18  2  0  0  0  0
  9 13  1  0  0  0  0
 10 14  2  0  0  0  0
 10 15  1  0  0  0  0
 11 12  2  0  0  0  0
 11 17  1  0  0  0  0
 12 16  1  0  0  0  0
 13 19  2  0  0  0  0
 14 19  1  0  0  0  0
 14 20  1  0  0  0  0
 15 21  1  0  0  0  0
 15 22  2  0  0  0  0
 16 21  1  0  0  0  0
 17 23  1  0  0  0  0
 17 24  1  0  0  0  0
 17 25  1  0  0  0  0
  1 26  1  0  0  0  0
  2 27  1  0  0  0  0
  3 28  1  0  0  0  0
  4 29  1  0  0  0  0
  5 30  1  0  0  0  0
  6 31  1  0  0  0  0
  7 32  1  0  0  0  0
  8 33  1  0  0  0  0
 16 34  1  0  0  0  0
 16 35  1  0  0  0  0
 20 36  1  0  0  0  0
 20 37  1  0  0  0  0
 21 38  1  0  0  0  0
M  END
> <idnumber>
Z4655553982

> <heavy_atoms>
25

> <LogS>
-4.213

> <LogP>
3.311

> <rotating_bonds>
4

> <PSA>
80.9

> <hb_acceptors>
4

> <hb_donors>
2

> <Collection>
Advanced

> <link>
https://www.enaminestore.com/catalog/Z4655553982

> <ROCS_ShapeQuery>
_x1140_x0812_0A_x1140_0A_x1097_0A_x0365_0A_x1097_0A_x0310_0A

> <ROCS_TanimotoCombo>
0.651 

> <ROCS_ShapeTanimoto>
0.290 

> <ROCS_ColorTanimoto>
0.360 

> <ROCS_RefTversky>
0.261 

> <ROCS_RefColorTversky>
0.560 

> <ROCS_RefTverskyCombo>
0.821 

> <ROCS_FitTversky>
1.632 

> <ROCS_FitColorTversky>
0.503 

> <ROCS_FitTverskyCombo>
2.134 

> <ROCS_ColorScore>
-4.507

> <ROCS_Overlap>
2683.476

> <ROCS_Rank>
123                 

$$$$
untitled-dbase-1086856_17
  -OEChem-02092421083D

 38 40  0     0  0  0  0  0  0999 V2000
    6.7047   12.2896   26.4964 C   0  0  0  0  0  0  0  0  0  0  0  0
    8.9882   10.4977   23.6088 C   0  0  0  0  0  0  0  0  0  0  0  0
    5.9771   11.1665   26.8266 C   0  0  0  0  0  0  0  0  0  0  0  0
    7.6137   11.9249   25.4682 C   0  0  0  0  0  0  0  0  0  0  0  0
    8.6015   12.5836   24.7182 C   0  0  0  0  0  0  0  0  0  0  0  0
    9.2998   11.8413   23.7676 C   0  0  0  0  0  0  0  0  0  0  0  0
    7.4045   10.5742   25.2055 C   0  0  0  0  0  0  0  0  0  0  0  0
   10.6855   12.0697   21.6732 C   0  0  0  0  0  0  0  0  0  0  0  0
   11.7670   13.0878   19.6950 C   0  0  0  0  0  0  0  0  0  0  0  0
   12.7934   13.5104   21.9091 C   0  0  0  0  0  0  0  0  0  0  0  0
   10.7730   14.1497   19.2315 C   0  0  0  0  0  0  0  0  0  0  0  0
   12.2120   15.8507   20.9729 C   0  0  0  0  0  0  0  0  0  0  0  0
   12.5054   14.9773   22.1871 C   0  0  0  0  0  0  0  0  0  0  0  0
    8.9098   14.0335   24.9187 C   0  0  0  0  0  0  0  0  0  0  0  0
    8.0490    9.8124   24.3015 N   0  0  0  0  0  0  0  0  0  0  0  0
    6.4100   10.1322   26.0379 N   0  0  0  0  0  0  0  0  0  0  0  0
   11.7382   12.8469   21.1364 N   0  0  0  0  0  0  0  0  0  0  0  0
   10.3126   12.4274   22.9688 N   0  0  0  0  0  0  0  0  0  0  0  0
   10.1434   11.1778   21.0157 O   0  0  0  0  0  0  0  0  0  0  0  0
   11.4958   15.0808   23.0903 F   0  0  0  0  0  0  0  0  0  0  0  0
   13.6052   15.4952   22.8102 F   0  0  0  0  0  0  0  0  0  0  0  0
   10.5406   15.6158   20.2931 S   0  0  0  0  0  0  0  0  0  0  0  0
    6.5891   13.2644   26.9499 H   0  0  0  0  0  0  0  0  0  0  0  0
    9.5169    9.8940   22.8742 H   0  0  0  0  0  0  0  0  0  0  0  0
    5.1901   11.0120   27.5507 H   0  0  0  0  0  0  0  0  0  0  0  0
   11.5656   12.1516   19.1614 H   0  0  0  0  0  0  0  0  0  0  0  0
   12.7896   13.3643   19.4024 H   0  0  0  0  0  0  0  0  0  0  0  0
   13.7510   13.3922   21.3859 H   0  0  0  0  0  0  0  0  0  0  0  0
   12.9037   12.9831   22.8660 H   0  0  0  0  0  0  0  0  0  0  0  0
   11.1086   14.5253   18.2382 H   0  0  0  0  0  0  0  0  0  0  0  0
    9.7782   13.6886   19.0230 H   0  0  0  0  0  0  0  0  0  0  0  0
   12.3663   16.9044   21.2044 H   0  0  0  0  0  0  0  0  0  0  0  0
   12.9175   15.5946   20.1816 H   0  0  0  0  0  0  0  0  0  0  0  0
    9.6905   14.1520   25.6778 H   0  0  0  0  0  0  0  0  0  0  0  0
    9.2531   14.4959   23.9861 H   0  0  0  0  0  0  0  0  0  0  0  0
    8.0189   14.5847   25.2415 H   0  0  0  0  0  0  0  0  0  0  0  0
    6.0508    9.1881   26.0650 H   0  0  0  0  0  0  0  0  0  0  0  0
   10.8451   13.2282   23.4093 H   0  0  0  0  0  0  0  0  0  0  0  0
  1  3  2  0  0  0  0
  1  4  1  0  0  0  0
  2  6  2  0  0  0  0
  2 15  1  0  0  0  0
  3 16  1  0  0  0  0
  4  5  2  0  0  0  0
  4  7  1  0  0  0  0
  5  6  1  0  0  0  0
  5 14  1  0  0  0  0
  6 18  1  0  0  0  0
  7 15  2  0  0  0  0
  7 16  1  0  0  0  0
  8 17  1  0  0  0  0
  8 18  1  0  0  0  0
  8 19  2  0  0  0  0
  9 11  1  0  0  0  0
  9 17  1  0  0  0  0
 10 13  1  0  0  0  0
 10 17  1  0  0  0  0
 11 22  1  0  0  0  0
 12 13  1  0  0  0  0
 12 22  1  0  0  0  0
 13 20  1  0  0  0  0
 13 21  1  0  0  0  0
  1 23  1  0  0  0  0
  2 24  1  0  0  0  0
  3 25  1  0  0  0  0
  9 26  1  0  0  0  0
  9 27  1  0  0  0  0
 10 28  1  0  0  0  0
 10 29  1  0  0  0  0
 11 30  1  0  0  0  0
 11 31  1  0  0  0  0
 12 32  1  0  0  0  0
 12 33  1  0  0  0  0
 14 34  1  0  0  0  0
 14 35  1  0  0  0  0
 14 36  1  0  0  0  0
 16 37  1  0  0  0  0
 18 38  1  0  0  0  0
M  END
> <idnumber>
Z4419052725

> <heavy_atoms>
22

> <LogS>
-4.887

> <LogP>
2.71

> <rotating_bonds>
1

> <PSA>
61.02

> <hb_acceptors>
2

> <hb_donors>
2

> <Collection>
Advanced

> <link>
https://www.enaminestore.com/catalog/Z4419052725

> <ROCS_ShapeQuery>
_x1140_x0812_0A_x1140_0A_x1097_0A_x0365_0A_x1097_0A_x0310_0A

> <ROCS_TanimotoCombo>
0.651 

> <ROCS_ShapeTanimoto>
0.258 

> <ROCS_ColorTanimoto>
0.393 

> <ROCS_RefTversky>
0.235 

> <ROCS_RefColorTversky>
0.533 

> <ROCS_RefTverskyCombo>
0.767 

> <ROCS_FitTversky>
1.626 

> <ROCS_FitColorTversky>
0.599 

> <ROCS_FitTverskyCombo>
2.225 

> <ROCS_ColorScore>
-4.236

> <ROCS_Overlap>
2410.948

> <ROCS_Rank>
124                 

$$$$
untitled-dbase-916617_150
  -OEChem-02092421083D

 48 50  0     0  0  0  0  0  0999 V2000
    9.3793   10.4296   23.8981 C   0  0  0  0  0  0  0  0  0  0  0  0
    9.5356   11.7114   24.3827 C   0  0  0  0  0  0  0  0  0  0  0  0
    7.5765   10.5337   25.1426 C   0  0  0  0  0  0  0  0  0  0  0  0
   10.4344   10.4935   21.6139 C   0  0  0  0  0  0  0  0  0  0  0  0
    4.8470   12.0752   25.8445 C   0  0  0  0  0  0  0  0  0  0  0  0
    4.7234   10.2194   27.5592 C   0  0  0  0  0  0  0  0  0  0  0  0
    4.0050   12.9723   26.7531 C   0  0  0  0  0  0  0  0  0  0  0  0
    3.8818   11.1151   28.4696 C   0  0  0  0  0  0  0  0  0  0  0  0
    1.7272   11.8001   27.1890 C   0  0  0  0  0  0  0  0  0  0  0  0
    1.9257   12.8035   28.2885 C   0  0  0  0  0  0  0  0  0  0  0  0
    5.6494   11.0530   26.6621 C   0  0  0  0  0  0  0  0  0  0  0  0
    3.1250   12.1385   27.6552 C   0  0  0  0  0  0  0  0  0  0  0  0
   10.6022   12.7005   24.1296 C   0  0  0  0  0  0  0  0  0  0  0  0
   11.7088    9.5683   23.6228 C   0  0  0  0  0  0  0  0  0  0  0  0
    9.8654    8.2897   22.5300 C   0  0  0  0  0  0  0  0  0  0  0  0
   11.3776   10.4732   19.4413 C   0  0  0  0  0  0  0  0  0  0  0  0
   10.2950    9.7332   22.9714 C   0  0  0  0  0  0  0  0  0  0  0  0
    8.2567    9.7526   24.3331 N   0  0  0  0  0  0  0  0  0  0  0  0
    6.3929   10.1728   25.7629 N   0  0  0  0  0  0  0  0  0  0  0  0
    9.8365   11.5402   21.3883 O   0  0  0  0  0  0  0  0  0  0  0  0
   11.2434    9.8493   20.7223 O   0  0  0  0  0  0  0  0  0  0  0  0
    8.2288   12.0957   25.4247 S   0  0  0  0  0  0  0  0  0  0  0  0
    4.1823   11.5529   25.1437 H   0  0  0  0  0  0  0  0  0  0  0  0
    5.5249   12.6974   25.2482 H   0  0  0  0  0  0  0  0  0  0  0  0
    5.3133    9.5299   28.1746 H   0  0  0  0  0  0  0  0  0  0  0  0
    4.0538    9.6100   26.9379 H   0  0  0  0  0  0  0  0  0  0  0  0
    4.6637   13.5953   27.3703 H   0  0  0  0  0  0  0  0  0  0  0  0
    3.4086   13.6548   26.1358 H   0  0  0  0  0  0  0  0  0  0  0  0
    3.1983   10.4922   29.0594 H   0  0  0  0  0  0  0  0  0  0  0  0
    4.5337   11.6345   29.1827 H   0  0  0  0  0  0  0  0  0  0  0  0
    1.3105   10.8364   27.4570 H   0  0  0  0  0  0  0  0  0  0  0  0
    1.3984   12.1683   26.2245 H   0  0  0  0  0  0  0  0  0  0  0  0
    1.7307   13.8446   28.0599 H   0  0  0  0  0  0  0  0  0  0  0  0
    1.6417   12.5127   29.2928 H   0  0  0  0  0  0  0  0  0  0  0  0
    6.3754   11.5883   27.2902 H   0  0  0  0  0  0  0  0  0  0  0  0
   10.3584   13.3336   23.2610 H   0  0  0  0  0  0  0  0  0  0  0  0
   10.7630   13.3655   24.9950 H   0  0  0  0  0  0  0  0  0  0  0  0
   11.5744   12.2181   23.9309 H   0  0  0  0  0  0  0  0  0  0  0  0
   12.3984    9.0525   22.9448 H   0  0  0  0  0  0  0  0  0  0  0  0
   11.7005    8.9973   24.5589 H   0  0  0  0  0  0  0  0  0  0  0  0
   12.1340   10.5538   23.8468 H   0  0  0  0  0  0  0  0  0  0  0  0
   10.6043    7.8567   21.8460 H   0  0  0  0  0  0  0  0  0  0  0  0
    9.7773    7.6310   23.4023 H   0  0  0  0  0  0  0  0  0  0  0  0
    8.8955    8.2645   22.0183 H   0  0  0  0  0  0  0  0  0  0  0  0
   12.0427    9.8765   18.8123 H   0  0  0  0  0  0  0  0  0  0  0  0
   11.7833   11.4803   19.5662 H   0  0  0  0  0  0  0  0  0  0  0  0
   10.3933   10.5348   18.9710 H   0  0  0  0  0  0  0  0  0  0  0  0
    6.0190    9.2482   25.5874 H   0  0  0  0  0  0  0  0  0  0  0  0
  1  2  2  0  0  0  0
  1 17  1  0  0  0  0
  1 18  1  0  0  0  0
  2 13  1  0  0  0  0
  2 22  1  0  0  0  0
  3 18  2  0  0  0  0
  3 19  1  0  0  0  0
  3 22  1  0  0  0  0
  4 17  1  0  0  0  0
  4 20  2  0  0  0  0
  4 21  1  0  0  0  0
  5  7  1  0  0  0  0
  5 11  1  0  0  0  0
  6  8  1  0  0  0  0
  6 11  1  0  0  0  0
  7 12  1  0  0  0  0
  8 12  1  0  0  0  0
  9 10  1  0  0  0  0
  9 12  1  0  0  0  0
 10 12  1  0  0  0  0
 11 19  1  0  0  0  0
 14 17  1  0  0  0  0
 15 17  1  0  0  0  0
 16 21  1  0  0  0  0
  5 23  1  0  0  0  0
  5 24  1  0  0  0  0
  6 25  1  0  0  0  0
  6 26  1  0  0  0  0
  7 27  1  0  0  0  0
  7 28  1  0  0  0  0
  8 29  1  0  0  0  0
  8 30  1  0  0  0  0
  9 31  1  0  0  0  0
  9 32  1  0  0  0  0
 10 33  1  0  0  0  0
 10 34  1  0  0  0  0
 11 35  1  0  0  0  0
 13 36  1  0  0  0  0
 13 37  1  0  0  0  0
 13 38  1  0  0  0  0
 14 39  1  0  0  0  0
 14 40  1  0  0  0  0
 14 41  1  0  0  0  0
 15 42  1  0  0  0  0
 15 43  1  0  0  0  0
 15 44  1  0  0  0  0
 16 45  1  0  0  0  0
 16 46  1  0  0  0  0
 16 47  1  0  0  0  0
 19 48  1  0  0  0  0
M  END
> <idnumber>
Z2512751519

> <heavy_atoms>
22

> <LogS>
-4.326

> <LogP>
4.213

> <rotating_bonds>
5

> <PSA>
51.22

> <hb_acceptors>
3

> <hb_donors>
1

> <Collection>
Advanced

> <link>
https://www.enaminestore.com/catalog/Z2512751519

> <ROCS_ShapeQuery>
_x1140_x0812_0A_x1140_0A_x1097_0A_x0365_0A_x1097_0A_x0310_0A

> <ROCS_TanimotoCombo>
0.651 

> <ROCS_ShapeTanimoto>
0.222 

> <ROCS_ColorTanimoto>
0.429 

> <ROCS_RefTversky>
0.207 

> <ROCS_RefColorTversky>
0.532 

> <ROCS_RefTverskyCombo>
0.739 

> <ROCS_FitTversky>
1.476 

> <ROCS_FitColorTversky>
0.689 

> <ROCS_FitTverskyCombo>
2.165 

> <ROCS_ColorScore>
-4.203

> <ROCS_Overlap>
2123.543

> <ROCS_Rank>
125                 

$$$$
untitled-dbase-272050_188
  -OEChem-02092421083D

 38 40  0     0  0  0  0  0  0999 V2000
    7.3194   13.5130   25.8788 C   0  0  0  0  0  0  0  0  0  0  0  0
    6.7931   12.4521   26.6203 C   0  0  0  0  0  0  0  0  0  0  0  0
    8.1219   13.2805   24.7534 C   0  0  0  0  0  0  0  0  0  0  0  0
    7.0477   11.1236   26.2668 C   0  0  0  0  0  0  0  0  0  0  0  0
    8.3907   11.9522   24.3796 C   0  0  0  0  0  0  0  0  0  0  0  0
    9.1284   11.3170   23.3459 C   0  0  0  0  0  0  0  0  0  0  0  0
    7.8483   10.9240   25.1436 C   0  0  0  0  0  0  0  0  0  0  0  0
    8.9885    9.9631   23.5454 C   0  0  0  0  0  0  0  0  0  0  0  0
   12.3532   14.7308   22.2645 C   0  0  0  0  0  0  0  0  0  0  0  0
   13.7691   16.1343   23.1214 C   0  0  0  0  0  0  0  0  0  0  0  0
    9.8820   11.9212   22.2858 C   0  0  0  0  0  0  0  0  0  0  0  0
   11.0271    8.7412   22.7468 C   0  0  0  0  0  0  0  0  0  0  0  0
   14.6638   13.8300   22.6165 C   0  0  0  0  0  0  0  0  0  0  0  0
    9.4957    8.7793   22.8343 C   0  0  0  0  0  0  0  0  0  0  0  0
   11.7897   13.4626   21.6915 C   0  0  0  0  0  0  0  0  0  0  0  0
   11.7176   15.8645   22.4575 N   0  0  0  0  0  0  0  0  0  0  0  0
   12.6184   16.7574   23.0027 N   0  0  0  0  0  0  0  0  0  0  0  0
   13.6477   14.8557   22.6685 N   0  0  0  0  0  0  0  0  0  0  0  0
   10.9530   12.7650   22.6412 N   0  0  0  0  0  0  0  0  0  0  0  0
    9.5876   11.7239   21.0828 O   0  0  0  0  0  0  0  0  0  0  0  0
    8.2140    9.7143   24.6336 O   0  0  0  0  0  0  0  0  0  0  0  0
   15.2359   16.7880   23.7476 S   0  0  0  0  0  0  0  0  0  0  0  0
    7.1035   14.5355   26.1779 H   0  0  0  0  0  0  0  0  0  0  0  0
    6.1740   12.6624   27.4890 H   0  0  0  0  0  0  0  0  0  0  0  0
    8.5234   14.1165   24.1884 H   0  0  0  0  0  0  0  0  0  0  0  0
    6.6427   10.2959   26.8365 H   0  0  0  0  0  0  0  0  0  0  0  0
   11.4101    9.6524   22.2750 H   0  0  0  0  0  0  0  0  0  0  0  0
   11.3730    7.8844   22.1600 H   0  0  0  0  0  0  0  0  0  0  0  0
   11.4696    8.6688   23.7461 H   0  0  0  0  0  0  0  0  0  0  0  0
   15.1687   13.9041   21.6498 H   0  0  0  0  0  0  0  0  0  0  0  0
   15.3761   13.9813   23.4324 H   0  0  0  0  0  0  0  0  0  0  0  0
   14.1933   12.8492   22.7292 H   0  0  0  0  0  0  0  0  0  0  0  0
    9.1542    7.8407   23.3166 H   0  0  0  0  0  0  0  0  0  0  0  0
    9.0897    8.7220   21.8037 H   0  0  0  0  0  0  0  0  0  0  0  0
   11.1858   13.6755   20.8026 H   0  0  0  0  0  0  0  0  0  0  0  0
   12.5896   12.7803   21.3854 H   0  0  0  0  0  0  0  0  0  0  0  0
   11.1192   12.9490   23.6252 H   0  0  0  0  0  0  0  0  0  0  0  0
   14.8222   18.0392   24.0419 H   0  0  0  0  0  0  0  0  0  0  0  0
  1  2  1  0  0  0  0
  1  3  2  0  0  0  0
  2  4  2  0  0  0  0
  3  5  1  0  0  0  0
  4  7  1  0  0  0  0
  5  6  1  0  0  0  0
  5  7  2  0  0  0  0
  6  8  2  0  0  0  0
  6 11  1  0  0  0  0
  7 21  1  0  0  0  0
  8 14  1  0  0  0  0
  8 21  1  0  0  0  0
  9 15  1  0  0  0  0
  9 16  2  0  0  0  0
  9 18  1  0  0  0  0
 10 17  2  0  0  0  0
 10 18  1  0  0  0  0
 10 22  1  0  0  0  0
 11 19  1  0  0  0  0
 11 20  2  0  0  0  0
 12 14  1  0  0  0  0
 13 18  1  0  0  0  0
 15 19  1  0  0  0  0
 16 17  1  0  0  0  0
  1 23  1  0  0  0  0
  2 24  1  0  0  0  0
  3 25  1  0  0  0  0
  4 26  1  0  0  0  0
 12 27  1  0  0  0  0
 12 28  1  0  0  0  0
 12 29  1  0  0  0  0
 13 30  1  0  0  0  0
 13 31  1  0  0  0  0
 13 32  1  0  0  0  0
 14 33  1  0  0  0  0
 14 34  1  0  0  0  0
 15 35  1  0  0  0  0
 15 36  1  0  0  0  0
 19 37  1  0  0  0  0
 22 38  1  0  0  0  0
M  END
> <idnumber>
Z1517553983

> <heavy_atoms>
22

> <LogS>
-4.23

> <LogP>
1.829

> <rotating_bonds>
4

> <PSA>
72.95

> <hb_acceptors>
3

> <hb_donors>
2

> <Collection>
Legacy

> <link>
https://www.enaminestore.com/catalog/Z1517553983

> <ROCS_ShapeQuery>
_x1140_x0812_0A_x1140_0A_x1097_0A_x0365_0A_x1097_0A_x0310_0A

> <ROCS_TanimotoCombo>
0.651 

> <ROCS_ShapeTanimoto>
0.276 

> <ROCS_ColorTanimoto>
0.375 

> <ROCS_RefTversky>
0.248 

> <ROCS_RefColorTversky>
0.615 

> <ROCS_RefTverskyCombo>
0.863 

> <ROCS_FitTversky>
1.704 

> <ROCS_FitColorTversky>
0.489 

> <ROCS_FitTverskyCombo>
2.193 

> <ROCS_ColorScore>
-4.993

> <ROCS_Overlap>
2543.783

> <ROCS_Rank>
126                 

$$$$
untitled-dbase-713989_194
  -OEChem-02092421083D

 45 47  0     0  0  0  0  0  0999 V2000
    8.3293   12.3156   23.9859 C   0  0  0  0  0  0  0  0  0  0  0  0
    9.2473   11.4324   23.4554 C   0  0  0  0  0  0  0  0  0  0  0  0
    9.0909   10.1130   23.8283 C   0  0  0  0  0  0  0  0  0  0  0  0
    7.2844   10.6356   25.1052 C   0  0  0  0  0  0  0  0  0  0  0  0
    4.7569   10.1560   30.3319 C   0  0  0  0  0  0  0  0  0  0  0  0
    6.2409    9.8037   30.3171 C   0  0  0  0  0  0  0  0  0  0  0  0
    3.8498    9.2701   29.4835 C   0  0  0  0  0  0  0  0  0  0  0  0
    6.9838    9.9279   28.9862 C   0  0  0  0  0  0  0  0  0  0  0  0
    4.0647    9.2819   27.9693 C   0  0  0  0  0  0  0  0  0  0  0  0
    6.6853   11.2034   28.1924 C   0  0  0  0  0  0  0  0  0  0  0  0
    4.2645   10.6695   27.3528 C   0  0  0  0  0  0  0  0  0  0  0  0
   11.0946    7.0210   24.2145 C   0  0  0  0  0  0  0  0  0  0  0  0
    9.8960    7.3012   25.0743 C   0  0  0  0  0  0  0  0  0  0  0  0
    9.9212    7.7671   23.6467 C   0  0  0  0  0  0  0  0  0  0  0  0
    5.7094   11.0783   27.0073 C   0  0  0  0  0  0  0  0  0  0  0  0
    7.3313   11.9502   24.8170 N   0  0  0  0  0  0  0  0  0  0  0  0
    8.1171    9.6779   24.6546 N   0  0  0  0  0  0  0  0  0  0  0  0
   10.0010    9.1533   23.3194 N   0  0  0  0  0  0  0  0  0  0  0  0
    6.2759   10.2262   25.9555 N   0  0  0  0  0  0  0  0  0  0  0  0
   10.2722   11.8868   22.5866 N   0  3  0  0  0  0  0  0  0  0  0  0
   11.3705   12.2484   23.0759 O   0  5  0  0  0  0  0  0  0  0  0  0
   10.0548   11.9163   21.3503 O   0  0  0  0  0  0  0  0  0  0  0  0
    8.3622   13.3769   23.7572 H   0  0  0  0  0  0  0  0  0  0  0  0
    4.4238   10.0537   31.3804 H   0  0  0  0  0  0  0  0  0  0  0  0
    4.6107   11.2243   30.0978 H   0  0  0  0  0  0  0  0  0  0  0  0
    6.7448   10.4688   31.0363 H   0  0  0  0  0  0  0  0  0  0  0  0
    6.3793    8.7864   30.7169 H   0  0  0  0  0  0  0  0  0  0  0  0
    3.8497    8.2297   29.8603 H   0  0  0  0  0  0  0  0  0  0  0  0
    2.8039    9.5987   29.6499 H   0  0  0  0  0  0  0  0  0  0  0  0
    8.0633    9.7835   29.1294 H   0  0  0  0  0  0  0  0  0  0  0  0
    6.6595    9.0764   28.3681 H   0  0  0  0  0  0  0  0  0  0  0  0
    4.9056    8.6415   27.7260 H   0  0  0  0  0  0  0  0  0  0  0  0
    3.1843    8.8459   27.5033 H   0  0  0  0  0  0  0  0  0  0  0  0
    6.2348   11.9315   28.8960 H   0  0  0  0  0  0  0  0  0  0  0  0
    7.6270   11.6923   27.8824 H   0  0  0  0  0  0  0  0  0  0  0  0
    3.6793   10.7018   26.4271 H   0  0  0  0  0  0  0  0  0  0  0  0
    3.8113   11.4281   27.9928 H   0  0  0  0  0  0  0  0  0  0  0  0
   12.0035    7.5713   24.4239 H   0  0  0  0  0  0  0  0  0  0  0  0
   11.2518    6.0013   23.8847 H   0  0  0  0  0  0  0  0  0  0  0  0
    9.2479    6.4699   25.3227 H   0  0  0  0  0  0  0  0  0  0  0  0
   10.0028    8.0389   25.8602 H   0  0  0  0  0  0  0  0  0  0  0  0
    9.2946    7.2278   22.9448 H   0  0  0  0  0  0  0  0  0  0  0  0
    5.6294   12.1015   26.5642 H   0  0  0  0  0  0  0  0  0  0  0  0
   10.7166    9.4939   22.7104 H   0  0  0  0  0  0  0  0  0  0  0  0
    5.9033    9.2925   25.8566 H   0  0  0  0  0  0  0  0  0  0  0  0
  1  2  1  0  0  0  0
  1 16  2  0  0  0  0
  2  3  2  0  0  0  0
  2 20  1  0  0  0  0
  3 17  1  0  0  0  0
  3 18  1  0  0  0  0
  4 16  1  0  0  0  0
  4 17  2  0  0  0  0
  4 19  1  0  0  0  0
  5  6  1  0  0  0  0
  5  7  1  0  0  0  0
  6  8  1  0  0  0  0
  7  9  1  0  0  0  0
  8 10  1  0  0  0  0
  9 11  1  0  0  0  0
 10 15  1  0  0  0  0
 11 15  1  0  0  0  0
 12 13  1  0  0  0  0
 12 14  1  0  0  0  0
 13 14  1  0  0  0  0
 14 18  1  0  0  0  0
 15 19  1  0  0  0  0
 20 21  1  0  0  0  0
 20 22  2  0  0  0  0
  1 23  1  0  0  0  0
  5 24  1  0  0  0  0
  5 25  1  0  0  0  0
  6 26  1  0  0  0  0
  6 27  1  0  0  0  0
  7 28  1  0  0  0  0
  7 29  1  0  0  0  0
  8 30  1  0  0  0  0
  8 31  1  0  0  0  0
  9 32  1  0  0  0  0
  9 33  1  0  0  0  0
 10 34  1  0  0  0  0
 10 35  1  0  0  0  0
 11 36  1  0  0  0  0
 11 37  1  0  0  0  0
 12 38  1  0  0  0  0
 12 39  1  0  0  0  0
 13 40  1  0  0  0  0
 13 41  1  0  0  0  0
 14 42  1  0  0  0  0
 15 43  1  0  0  0  0
 18 44  1  0  0  0  0
 19 45  1  0  0  0  0
M  CHG  2  20   1  21  -1
M  END
> <idnumber>
Z354264200

> <heavy_atoms>
22

> <LogS>
-5.01

> <LogP>
5.047

> <rotating_bonds>
5

> <PSA>
92.98

> <hb_acceptors>
6

> <hb_donors>
2

> <Collection>
Legacy

> <link>
https://www.enaminestore.com/catalog/Z354264200

> <ROCS_ShapeQuery>
_x1140_x0812_0A_x1140_0A_x1097_0A_x0365_0A_x1097_0A_x0310_0A

> <ROCS_TanimotoCombo>
0.651 

> <ROCS_ShapeTanimoto>
0.244 

> <ROCS_ColorTanimoto>
0.407 

> <ROCS_RefTversky>
0.224 

> <ROCS_RefColorTversky>
0.546 

> <ROCS_RefTverskyCombo>
0.770 

> <ROCS_FitTversky>
1.578 

> <ROCS_FitColorTversky>
0.614 

> <ROCS_FitTverskyCombo>
2.193 

> <ROCS_ColorScore>
-4.342

> <ROCS_Overlap>
2300.021

> <ROCS_Rank>
127                 

$$$$
untitled-dbase-1055330_11
  -OEChem-02092421083D

 24 24  0     0  0  0  0  0  0999 V2000
    8.9909   12.4914   24.4915 C   0  0  0  0  0  0  0  0  0  0  0  0
    7.6971   10.6983   25.3676 C   0  0  0  0  0  0  0  0  0  0  0  0
    9.4841   11.6228   23.5243 C   0  0  0  0  0  0  0  0  0  0  0  0
    8.0801   12.0282   25.4345 C   0  0  0  0  0  0  0  0  0  0  0  0
    9.0385   10.3109   23.5431 C   0  0  0  0  0  0  0  0  0  0  0  0
   11.3296   13.0953   22.7570 C   0  0  0  0  0  0  0  0  0  0  0  0
   11.0508    9.1867   22.5565 C   0  0  0  0  0  0  0  0  0  0  0  0
    9.5323    9.3298   22.5299 C   0  0  0  0  0  0  0  0  0  0  0  0
   12.1584   13.3264   21.5148 C   0  0  0  0  0  0  0  0  0  0  0  0
    8.1545    9.8246   24.4430 N   0  0  0  0  0  0  0  0  0  0  0  0
   10.3982   12.0791   22.5747 N   0  0  0  0  0  0  0  0  0  0  0  0
   11.5110   13.7841   23.7573 O   0  0  0  0  0  0  0  0  0  0  0  0
    7.5893   12.8413   26.3762 F   0  0  0  0  0  0  0  0  0  0  0  0
   13.3042   14.6303   21.8650 Cl  0  0  0  0  0  0  0  0  0  0  0  0
    9.3089   13.5303   24.5201 H   0  0  0  0  0  0  0  0  0  0  0  0
    6.9887   10.2884   26.0799 H   0  0  0  0  0  0  0  0  0  0  0  0
   11.5402   10.1526   22.3912 H   0  0  0  0  0  0  0  0  0  0  0  0
   11.3870    8.4982   21.7750 H   0  0  0  0  0  0  0  0  0  0  0  0
   11.3927    8.7976   23.5215 H   0  0  0  0  0  0  0  0  0  0  0  0
    9.0729    8.3437   22.6987 H   0  0  0  0  0  0  0  0  0  0  0  0
    9.2148    9.6324   21.5201 H   0  0  0  0  0  0  0  0  0  0  0  0
   11.5542   13.6106   20.6496 H   0  0  0  0  0  0  0  0  0  0  0  0
   12.7150   12.4164   21.2738 H   0  0  0  0  0  0  0  0  0  0  0  0
   10.3818   11.6259   21.6628 H   0  0  0  0  0  0  0  0  0  0  0  0
  1  3  1  0  0  0  0
  1  4  2  0  0  0  0
  2  4  1  0  0  0  0
  2 10  2  0  0  0  0
  3  5  2  0  0  0  0
  3 11  1  0  0  0  0
  4 13  1  0  0  0  0
  5  8  1  0  0  0  0
  5 10  1  0  0  0  0
  6  9  1  0  0  0  0
  6 11  1  0  0  0  0
  6 12  2  0  0  0  0
  7  8  1  0  0  0  0
  9 14  1  0  0  0  0
  1 15  1  0  0  0  0
  2 16  1  0  0  0  0
  7 17  1  0  0  0  0
  7 18  1  0  0  0  0
  7 19  1  0  0  0  0
  8 20  1  0  0  0  0
  8 21  1  0  0  0  0
  9 22  1  0  0  0  0
  9 23  1  0  0  0  0
 11 24  1  0  0  0  0
M  END
> <idnumber>
Z3766267336

> <heavy_atoms>
14

> <LogS>
-1.854

> <LogP>
1.521

> <rotating_bonds>
3

> <PSA>
41.99

> <hb_acceptors>
2

> <hb_donors>
1

> <Collection>
Functional

> <link>
https://www.enaminestore.com/catalog/Z3766267336

> <ROCS_ShapeQuery>
_x1140_x0812_0A_x1140_0A_x1097_0A_x0365_0A_x1097_0A_x0310_0A

> <ROCS_TanimotoCombo>
0.650 

> <ROCS_ShapeTanimoto>
0.235 

> <ROCS_ColorTanimoto>
0.415 

> <ROCS_RefTversky>
0.211 

> <ROCS_RefColorTversky>
0.486 

> <ROCS_RefTverskyCombo>
0.697 

> <ROCS_FitTversky>
1.955 

> <ROCS_FitColorTversky>
0.740 

> <ROCS_FitTverskyCombo>
2.695 

> <ROCS_ColorScore>
-3.813

> <ROCS_Overlap>
2164.257

> <ROCS_Rank>
128                 

$$$$
untitled-dbase-1030174_67
  -OEChem-02092421083D

 31 32  0     0  0  0  0  0  0999 V2000
   11.9888   16.0702   21.6246 C   0  0  0  0  0  0  0  0  0  0  0  0
   12.1435   15.6707   23.8817 C   0  0  0  0  0  0  0  0  0  0  0  0
    8.7256   11.6285   23.4206 C   0  0  0  0  0  0  0  0  0  0  0  0
   11.1621   14.0135   22.4865 C   0  0  0  0  0  0  0  0  0  0  0  0
   11.3842   14.8450   21.3944 C   0  0  0  0  0  0  0  0  0  0  0  0
   11.5460   14.4268   23.7574 C   0  0  0  0  0  0  0  0  0  0  0  0
    8.8409   10.2280   23.4505 C   0  0  0  0  0  0  0  0  0  0  0  0
    8.1545   11.9342   24.6274 C   0  0  0  0  0  0  0  0  0  0  0  0
    7.7480   13.1884   25.2748 C   0  0  0  0  0  0  0  0  0  0  0  0
   10.8036    8.8410   22.7359 C   0  0  0  0  0  0  0  0  0  0  0  0
    9.1311   12.5730   22.3262 C   0  0  0  0  0  0  0  0  0  0  0  0
    9.3899    9.3398   22.4121 C   0  0  0  0  0  0  0  0  0  0  0  0
   12.3756   16.5061   22.8444 N   0  0  0  0  0  0  0  0  0  0  0  0
    8.3768    9.7051   24.5889 N   0  0  0  0  0  0  0  0  0  0  0  0
   10.5473   12.7593   22.2779 N   0  0  0  0  0  0  0  0  0  0  0  0
    7.9415   10.7946   25.3338 O   0  0  0  0  0  0  0  0  0  0  0  0
   11.0289   14.4839   20.1550 F   0  0  0  0  0  0  0  0  0  0  0  0
   11.3055   13.4557   25.1577 Cl  0  0  0  0  0  0  0  0  0  0  0  0
   12.1830   16.7558   20.8064 H   0  0  0  0  0  0  0  0  0  0  0  0
   12.4679   16.0513   24.8456 H   0  0  0  0  0  0  0  0  0  0  0  0
    6.7016   13.4480   25.0326 H   0  0  0  0  0  0  0  0  0  0  0  0
    7.8279   13.1386   26.3769 H   0  0  0  0  0  0  0  0  0  0  0  0
    8.3786   14.0440   24.9683 H   0  0  0  0  0  0  0  0  0  0  0  0
   11.4829    9.6840   22.9019 H   0  0  0  0  0  0  0  0  0  0  0  0
   11.2093    8.2342   21.9204 H   0  0  0  0  0  0  0  0  0  0  0  0
   10.7994    8.2291   23.6444 H   0  0  0  0  0  0  0  0  0  0  0  0
    8.8072   12.1951   21.3503 H   0  0  0  0  0  0  0  0  0  0  0  0
    8.6686   13.5560   22.4641 H   0  0  0  0  0  0  0  0  0  0  0  0
    8.7393    8.4565   22.2524 H   0  0  0  0  0  0  0  0  0  0  0  0
    9.4182    9.8436   21.4249 H   0  0  0  0  0  0  0  0  0  0  0  0
   11.1531   11.9838   22.0913 H   0  0  0  0  0  0  0  0  0  0  0  0
  1  5  2  0  0  0  0
  1 13  1  0  0  0  0
  2  6  1  0  0  0  0
  2 13  2  0  0  0  0
  3  7  1  0  0  0  0
  3  8  2  0  0  0  0
  3 11  1  0  0  0  0
  4  5  1  0  0  0  0
  4  6  2  0  0  0  0
  4 15  1  0  0  0  0
  5 17  1  0  0  0  0
  6 18  1  0  0  0  0
  7 12  1  0  0  0  0
  7 14  2  0  0  0  0
  8  9  1  0  0  0  0
  8 16  1  0  0  0  0
 10 12  1  0  0  0  0
 11 15  1  0  0  0  0
 14 16  1  0  0  0  0
  1 19  1  0  0  0  0
  2 20  1  0  0  0  0
  9 21  1  0  0  0  0
  9 22  1  0  0  0  0
  9 23  1  0  0  0  0
 10 24  1  0  0  0  0
 10 25  1  0  0  0  0
 10 26  1  0  0  0  0
 11 27  1  0  0  0  0
 11 28  1  0  0  0  0
 12 29  1  0  0  0  0
 12 30  1  0  0  0  0
 15 31  1  0  0  0  0
M  END
> <idnumber>
Z3392458808

> <heavy_atoms>
18

> <LogS>
-1.945

> <LogP>
2.543

> <rotating_bonds>
4

> <PSA>
50.95

> <hb_acceptors>
3

> <hb_donors>
1

> <Collection>
Advanced

> <link>
https://www.enaminestore.com/catalog/Z3392458808

> <ROCS_ShapeQuery>
_x1140_x0812_0A_x1140_0A_x1097_0A_x0365_0A_x1097_0A_x0310_0A

> <ROCS_TanimotoCombo>
0.650 

> <ROCS_ShapeTanimoto>
0.231 

> <ROCS_ColorTanimoto>
0.418 

> <ROCS_RefTversky>
0.212 

> <ROCS_RefColorTversky>
0.523 

> <ROCS_RefTverskyCombo>
0.734 

> <ROCS_FitTversky>
1.677 

> <ROCS_FitColorTversky>
0.677 

> <ROCS_FitTverskyCombo>
2.354 

> <ROCS_ColorScore>
-4.130

> <ROCS_Overlap>
2171.720

> <ROCS_Rank>
129                 

$$$$
untitled-dbase-917537_25
  -OEChem-02092421083D

 42 43  0     0  0  0  0  0  0999 V2000
    8.4786   12.5287   24.2213 C   0  0  0  0  0  0  0  0  0  0  0  0
    7.5582   12.1001   25.1713 C   0  0  0  0  0  0  0  0  0  0  0  0
    9.2595   11.5960   23.5478 C   0  0  0  0  0  0  0  0  0  0  0  0
    7.4580   10.7389   25.4094 C   0  0  0  0  0  0  0  0  0  0  0  0
    9.0832   10.2573   23.8586 C   0  0  0  0  0  0  0  0  0  0  0  0
   10.2295   12.0598   22.5431 C   0  0  0  0  0  0  0  0  0  0  0  0
   11.5229   15.1510   19.9733 C   0  0  0  0  0  0  0  0  0  0  0  0
   11.8293   16.1195   21.1190 C   0  0  0  0  0  0  0  0  0  0  0  0
   11.1244   13.8325   20.6311 C   0  0  0  0  0  0  0  0  0  0  0  0
   11.6010   15.3339   22.4077 C   0  0  0  0  0  0  0  0  0  0  0  0
   11.8154   13.8846   21.9883 C   0  0  0  0  0  0  0  0  0  0  0  0
    6.4807   10.2433   26.4224 C   0  0  0  0  0  0  0  0  0  0  0  0
   12.9857   12.0251   24.4077 C   0  0  0  0  0  0  0  0  0  0  0  0
    9.7738    7.8995   23.4230 C   0  0  0  0  0  0  0  0  0  0  0  0
   11.8291   12.9589   24.2946 C   0  0  0  0  0  0  0  0  0  0  0  0
    8.1994    9.8031   24.7752 N   0  0  0  0  0  0  0  0  0  0  0  0
    9.8761    9.3005   23.1761 N   0  0  0  0  0  0  0  0  0  0  0  0
   11.2600   12.9372   22.9380 N   0  0  0  0  0  0  0  0  0  0  0  0
   10.0796   11.6268   21.4011 O   0  0  0  0  0  0  0  0  0  0  0  0
    8.5782   13.5910   24.0146 H   0  0  0  0  0  0  0  0  0  0  0  0
    6.9424   12.8176   25.7029 H   0  0  0  0  0  0  0  0  0  0  0  0
   10.7272   15.5277   19.3227 H   0  0  0  0  0  0  0  0  0  0  0  0
   12.4170   15.0136   19.3542 H   0  0  0  0  0  0  0  0  0  0  0  0
   12.8716   16.4527   21.0548 H   0  0  0  0  0  0  0  0  0  0  0  0
   11.1964   17.0117   21.0785 H   0  0  0  0  0  0  0  0  0  0  0  0
   10.0337   13.7963   20.7473 H   0  0  0  0  0  0  0  0  0  0  0  0
   11.4314   12.9673   20.0354 H   0  0  0  0  0  0  0  0  0  0  0  0
   12.2810   15.6471   23.2059 H   0  0  0  0  0  0  0  0  0  0  0  0
   10.5723   15.4944   22.7545 H   0  0  0  0  0  0  0  0  0  0  0  0
   12.8805   13.6641   21.8924 H   0  0  0  0  0  0  0  0  0  0  0  0
    5.5116   10.0419   25.9504 H   0  0  0  0  0  0  0  0  0  0  0  0
    6.8352    9.3202   26.8984 H   0  0  0  0  0  0  0  0  0  0  0  0
    6.3322   10.9780   27.2241 H   0  0  0  0  0  0  0  0  0  0  0  0
   13.7664   12.3191   23.6907 H   0  0  0  0  0  0  0  0  0  0  0  0
   13.3917   12.0666   25.4292 H   0  0  0  0  0  0  0  0  0  0  0  0
   12.6524   11.0004   24.1870 H   0  0  0  0  0  0  0  0  0  0  0  0
    9.0099    7.7173   24.1933 H   0  0  0  0  0  0  0  0  0  0  0  0
    9.4883    7.3836   22.4944 H   0  0  0  0  0  0  0  0  0  0  0  0
   10.7444    7.5169   23.7716 H   0  0  0  0  0  0  0  0  0  0  0  0
   11.0533   12.6584   25.0142 H   0  0  0  0  0  0  0  0  0  0  0  0
   12.1678   13.9797   24.5255 H   0  0  0  0  0  0  0  0  0  0  0  0
   10.5234    9.6550   22.5025 H   0  0  0  0  0  0  0  0  0  0  0  0
  1  2  2  0  0  0  0
  1  3  1  0  0  0  0
  2  4  1  0  0  0  0
  3  5  2  0  0  0  0
  3  6  1  0  0  0  0
  4 12  1  0  0  0  0
  4 16  2  0  0  0  0
  5 16  1  0  0  0  0
  5 17  1  0  0  0  0
  6 18  1  0  0  0  0
  6 19  2  0  0  0  0
  7  8  1  0  0  0  0
  7  9  1  0  0  0  0
  8 10  1  0  0  0  0
  9 11  1  0  0  0  0
 10 11  1  0  0  0  0
 11 18  1  0  0  0  0
 13 15  1  0  0  0  0
 14 17  1  0  0  0  0
 15 18  1  0  0  0  0
  1 20  1  0  0  0  0
  2 21  1  0  0  0  0
  7 22  1  0  0  0  0
  7 23  1  0  0  0  0
  8 24  1  0  0  0  0
  8 25  1  0  0  0  0
  9 26  1  0  0  0  0
  9 27  1  0  0  0  0
 10 28  1  0  0  0  0
 10 29  1  0  0  0  0
 11 30  1  0  0  0  0
 12 31  1  0  0  0  0
 12 32  1  0  0  0  0
 12 33  1  0  0  0  0
 13 34  1  0  0  0  0
 13 35  1  0  0  0  0
 13 36  1  0  0  0  0
 14 37  1  0  0  0  0
 14 38  1  0  0  0  0
 14 39  1  0  0  0  0
 15 40  1  0  0  0  0
 15 41  1  0  0  0  0
 17 42  1  0  0  0  0
M  END
> <idnumber>
Z2523346599

> <heavy_atoms>
19

> <LogS>
-2.64

> <LogP>
2.563

> <rotating_bonds>
4

> <PSA>
45.23

> <hb_acceptors>
3

> <hb_donors>
1

> <Collection>
HTS

> <link>
https://www.enaminestore.com/catalog/Z2523346599

> <ROCS_ShapeQuery>
_x1140_x0812_0A_x1140_0A_x1097_0A_x0365_0A_x1097_0A_x0310_0A

> <ROCS_TanimotoCombo>
0.650 

> <ROCS_ShapeTanimoto>
0.264 

> <ROCS_ColorTanimoto>
0.386 

> <ROCS_RefTversky>
0.236 

> <ROCS_RefColorTversky>
0.461 

> <ROCS_RefTverskyCombo>
0.697 

> <ROCS_FitTversky>
1.818 

> <ROCS_FitColorTversky>
0.703 

> <ROCS_FitTverskyCombo>
2.521 

> <ROCS_ColorScore>
-3.622

> <ROCS_Overlap>
2418.542

> <ROCS_Rank>
130                 

$$$$
untitled-dbase-776218_95
  -OEChem-02092421083D

 38 39  0     0  0  0  0  0  0999 V2000
   12.3717   15.0057   22.7365 C   0  0  0  0  0  0  0  0  0  0  0  0
   11.3628   15.5028   20.8471 C   0  0  0  0  0  0  0  0  0  0  0  0
   11.8619   14.4364   21.5543 C   0  0  0  0  0  0  0  0  0  0  0  0
    9.4670   11.6124   23.7550 C   0  0  0  0  0  0  0  0  0  0  0  0
    9.1216   10.2496   23.8277 C   0  0  0  0  0  0  0  0  0  0  0  0
    8.5851   12.2359   24.6035 C   0  0  0  0  0  0  0  0  0  0  0  0
   10.6250   12.2294   21.6048 C   0  0  0  0  0  0  0  0  0  0  0  0
    9.7426    9.1200   23.1133 C   0  0  0  0  0  0  0  0  0  0  0  0
    8.4213   13.6563   24.9697 C   0  0  0  0  0  0  0  0  0  0  0  0
    5.3518   11.3201   25.3874 C   0  0  0  0  0  0  0  0  0  0  0  0
   11.2463   17.9656   21.2941 C   0  0  0  0  0  0  0  0  0  0  0  0
   11.8643   13.0184   21.1609 C   0  0  0  0  0  0  0  0  0  0  0  0
    6.7131   11.3996   26.0569 C   0  0  0  0  0  0  0  0  0  0  0  0
   12.2114   16.3310   22.7814 N   0  0  0  0  0  0  0  0  0  0  0  0
    8.1001   10.0201   24.6571 N   0  0  0  0  0  0  0  0  0  0  0  0
   11.5953   16.6033   21.6185 N   0  0  0  0  0  0  0  0  0  0  0  0
    7.7961   11.2471   25.1134 N   0  0  0  0  0  0  0  0  0  0  0  0
   10.4839   12.2321   22.9902 N   0  0  0  0  0  0  0  0  0  0  0  0
    9.8921   11.6861   20.7845 O   0  0  0  0  0  0  0  0  0  0  0  0
   12.8545   14.5124   23.5682 H   0  0  0  0  0  0  0  0  0  0  0  0
   10.8754   15.5708   19.8839 H   0  0  0  0  0  0  0  0  0  0  0  0
   10.5736    8.6872   23.6957 H   0  0  0  0  0  0  0  0  0  0  0  0
    9.0210    8.3094   22.9095 H   0  0  0  0  0  0  0  0  0  0  0  0
   10.1457    9.4206   22.1301 H   0  0  0  0  0  0  0  0  0  0  0  0
    7.7166   14.1632   24.2903 H   0  0  0  0  0  0  0  0  0  0  0  0
    8.0407   13.7773   25.9984 H   0  0  0  0  0  0  0  0  0  0  0  0
    9.3773   14.2063   24.9322 H   0  0  0  0  0  0  0  0  0  0  0  0
    5.2397   12.0982   24.6250 H   0  0  0  0  0  0  0  0  0  0  0  0
    4.5567   11.4508   26.1279 H   0  0  0  0  0  0  0  0  0  0  0  0
    5.2075   10.3508   24.8987 H   0  0  0  0  0  0  0  0  0  0  0  0
   10.2408   18.1567   21.6782 H   0  0  0  0  0  0  0  0  0  0  0  0
   11.9675   18.6460   21.7553 H   0  0  0  0  0  0  0  0  0  0  0  0
   11.2735   18.0970   20.2088 H   0  0  0  0  0  0  0  0  0  0  0  0
   11.9448   12.9057   20.0600 H   0  0  0  0  0  0  0  0  0  0  0  0
   12.7512   12.4902   21.5678 H   0  0  0  0  0  0  0  0  0  0  0  0
    6.8157   10.6176   26.8177 H   0  0  0  0  0  0  0  0  0  0  0  0
    6.8392   12.3637   26.5624 H   0  0  0  0  0  0  0  0  0  0  0  0
   11.1948   12.7387   23.5137 H   0  0  0  0  0  0  0  0  0  0  0  0
  1  3  1  0  0  0  0
  1 14  2  0  0  0  0
  2  3  2  0  0  0  0
  2 16  1  0  0  0  0
  3 12  1  0  0  0  0
  4  5  1  0  0  0  0
  4  6  2  0  0  0  0
  4 18  1  0  0  0  0
  5  8  1  0  0  0  0
  5 15  2  0  0  0  0
  6  9  1  0  0  0  0
  6 17  1  0  0  0  0
  7 12  1  0  0  0  0
  7 18  1  0  0  0  0
  7 19  2  0  0  0  0
 10 13  1  0  0  0  0
 11 16  1  0  0  0  0
 13 17  1  0  0  0  0
 14 16  1  0  0  0  0
 15 17  1  0  0  0  0
  1 20  1  0  0  0  0
  2 21  1  0  0  0  0
  8 22  1  0  0  0  0
  8 23  1  0  0  0  0
  8 24  1  0  0  0  0
  9 25  1  0  0  0  0
  9 26  1  0  0  0  0
  9 27  1  0  0  0  0
 10 28  1  0  0  0  0
 10 29  1  0  0  0  0
 10 30  1  0  0  0  0
 11 31  1  0  0  0  0
 11 32  1  0  0  0  0
 11 33  1  0  0  0  0
 12 34  1  0  0  0  0
 12 35  1  0  0  0  0
 13 36  1  0  0  0  0
 13 37  1  0  0  0  0
 18 38  1  0  0  0  0
M  END
> <idnumber>
Z1267462752

> <heavy_atoms>
19

> <LogS>
0.146

> <LogP>
-0.897

> <rotating_bonds>
4

> <PSA>
64.74

> <hb_acceptors>
3

> <hb_donors>
1

> <Collection>
HTS

> <link>
https://www.enaminestore.com/catalog/Z1267462752

> <ROCS_ShapeQuery>
_x1140_x0812_0A_x1140_0A_x1097_0A_x0365_0A_x1097_0A_x0310_0A

> <ROCS_TanimotoCombo>
0.650 

> <ROCS_ShapeTanimoto>
0.249 

> <ROCS_ColorTanimoto>
0.401 

> <ROCS_RefTversky>
0.226 

> <ROCS_RefColorTversky>
0.507 

> <ROCS_RefTverskyCombo>
0.733 

> <ROCS_FitTversky>
1.718 

> <ROCS_FitColorTversky>
0.656 

> <ROCS_FitTverskyCombo>
2.374 

> <ROCS_ColorScore>
-4.004

> <ROCS_Overlap>
2316.186

> <ROCS_Rank>
131                 

$$$$
untitled-dbase-874012_4
  -OEChem-02092421083D

 39 40  0     0  0  0  0  0  0999 V2000
   12.1821   15.3488   20.5458 C   0  0  0  0  0  0  0  0  0  0  0  0
   11.4280   14.3637   21.1738 C   0  0  0  0  0  0  0  0  0  0  0  0
   12.6529   16.3972   21.3197 C   0  0  0  0  0  0  0  0  0  0  0  0
   11.1715   14.4559   22.5373 C   0  0  0  0  0  0  0  0  0  0  0  0
    9.0548   11.4924   23.5604 C   0  0  0  0  0  0  0  0  0  0  0  0
   11.6877   15.5442   23.2221 C   0  0  0  0  0  0  0  0  0  0  0  0
    8.8226   10.1330   23.5792 C   0  0  0  0  0  0  0  0  0  0  0  0
    7.6874   10.6861   25.3723 C   0  0  0  0  0  0  0  0  0  0  0  0
    9.8054   12.2899   22.6487 C   0  0  0  0  0  0  0  0  0  0  0  0
   11.4446   15.7001   24.6885 C   0  0  0  0  0  0  0  0  0  0  0  0
    6.8451   10.5788   26.5832 C   0  0  0  0  0  0  0  0  0  0  0  0
   11.5127    8.6890   23.8378 C   0  0  0  0  0  0  0  0  0  0  0  0
   11.3021    8.0620   21.4240 C   0  0  0  0  0  0  0  0  0  0  0  0
    9.3416    9.1277   22.5801 C   0  0  0  0  0  0  0  0  0  0  0  0
   10.8795    9.0688   22.4969 C   0  0  0  0  0  0  0  0  0  0  0  0
   12.4244   16.5207   22.6464 N   0  0  0  0  0  0  0  0  0  0  0  0
    8.0391    9.6688   24.6176 N   0  0  0  0  0  0  0  0  0  0  0  0
   10.4035   13.4559   23.1855 N   0  0  0  0  0  0  0  0  0  0  0  0
    9.9133   12.0114   21.4302 O   0  0  0  0  0  0  0  0  0  0  0  0
    8.2631   12.2296   24.8913 S   0  0  0  0  0  0  0  0  0  0  0  0
   12.3944   15.2967   19.4841 H   0  0  0  0  0  0  0  0  0  0  0  0
   11.0450   13.5302   20.5908 H   0  0  0  0  0  0  0  0  0  0  0  0
   13.2465   17.1903   20.8770 H   0  0  0  0  0  0  0  0  0  0  0  0
   12.2403   15.2079   25.2588 H   0  0  0  0  0  0  0  0  0  0  0  0
   11.4123   16.7585   24.9735 H   0  0  0  0  0  0  0  0  0  0  0  0
   10.4823   15.2610   24.9784 H   0  0  0  0  0  0  0  0  0  0  0  0
    7.4629   10.4156   27.4801 H   0  0  0  0  0  0  0  0  0  0  0  0
    6.2445   11.4883   26.7479 H   0  0  0  0  0  0  0  0  0  0  0  0
    6.1270    9.7454   26.5116 H   0  0  0  0  0  0  0  0  0  0  0  0
   11.1588    7.7112   24.1817 H   0  0  0  0  0  0  0  0  0  0  0  0
   11.2798    9.4273   24.6114 H   0  0  0  0  0  0  0  0  0  0  0  0
   12.6036    8.6413   23.7513 H   0  0  0  0  0  0  0  0  0  0  0  0
   10.9384    7.0581   21.6675 H   0  0  0  0  0  0  0  0  0  0  0  0
   10.9043    8.3376   20.4413 H   0  0  0  0  0  0  0  0  0  0  0  0
   12.3933    8.0108   21.3466 H   0  0  0  0  0  0  0  0  0  0  0  0
    8.9415    8.1315   22.8107 H   0  0  0  0  0  0  0  0  0  0  0  0
    8.9266    9.3905   21.5976 H   0  0  0  0  0  0  0  0  0  0  0  0
   11.2686   10.0520   22.2032 H   0  0  0  0  0  0  0  0  0  0  0  0
   10.2613   13.5966   24.1827 H   0  0  0  0  0  0  0  0  0  0  0  0
  1  2  2  0  0  0  0
  1  3  1  0  0  0  0
  2  4  1  0  0  0  0
  3 16  2  0  0  0  0
  4  6  2  0  0  0  0
  4 18  1  0  0  0  0
  5  7  2  0  0  0  0
  5  9  1  0  0  0  0
  5 20  1  0  0  0  0
  6 10  1  0  0  0  0
  6 16  1  0  0  0  0
  7 14  1  0  0  0  0
  7 17  1  0  0  0  0
  8 11  1  0  0  0  0
  8 17  2  0  0  0  0
  8 20  1  0  0  0  0
  9 18  1  0  0  0  0
  9 19  2  0  0  0  0
 12 15  1  0  0  0  0
 13 15  1  0  0  0  0
 14 15  1  0  0  0  0
  1 21  1  0  0  0  0
  2 22  1  0  0  0  0
  3 23  1  0  0  0  0
 10 24  1  0  0  0  0
 10 25  1  0  0  0  0
 10 26  1  0  0  0  0
 11 27  1  0  0  0  0
 11 28  1  0  0  0  0
 11 29  1  0  0  0  0
 12 30  1  0  0  0  0
 12 31  1  0  0  0  0
 12 32  1  0  0  0  0
 13 33  1  0  0  0  0
 13 34  1  0  0  0  0
 13 35  1  0  0  0  0
 14 36  1  0  0  0  0
 14 37  1  0  0  0  0
 15 38  1  0  0  0  0
 18 39  1  0  0  0  0
M  END
> <idnumber>
Z1390479257

> <heavy_atoms>
20

> <LogS>
-3.132

> <LogP>
2.595

> <rotating_bonds>
4

> <PSA>
54.88

> <hb_acceptors>
3

> <hb_donors>
1

> <Collection>
Legacy

> <link>
https://www.enaminestore.com/catalog/Z1390479257

> <ROCS_ShapeQuery>
_x1140_x0812_0A_x1140_0A_x1097_0A_x0365_0A_x1097_0A_x0310_0A

> <ROCS_TanimotoCombo>
0.650 

> <ROCS_ShapeTanimoto>
0.237 

> <ROCS_ColorTanimoto>
0.413 

> <ROCS_RefTversky>
0.217 

> <ROCS_RefColorTversky>
0.551 

> <ROCS_RefTverskyCombo>
0.768 

> <ROCS_FitTversky>
1.635 

> <ROCS_FitColorTversky>
0.622 

> <ROCS_FitTverskyCombo>
2.257 

> <ROCS_ColorScore>
-4.384

> <ROCS_Overlap>
2224.337

> <ROCS_Rank>
132                 

$$$$
untitled-dbase-420749_76
  -OEChem-02092421083D

 38 39  0     0  0  0  0  0  0999 V2000
    8.0509   11.9301   25.5384 C   0  0  0  0  0  0  0  0  0  0  0  0
    8.8210   12.3529   24.4607 C   0  0  0  0  0  0  0  0  0  0  0  0
    7.6925   10.5929   25.5943 C   0  0  0  0  0  0  0  0  0  0  0  0
    9.2038   11.4385   23.4856 C   0  0  0  0  0  0  0  0  0  0  0  0
    8.7939   10.1232   23.6336 C   0  0  0  0  0  0  0  0  0  0  0  0
   10.0269   11.9174   22.3454 C   0  0  0  0  0  0  0  0  0  0  0  0
   10.7616   15.9393   21.6687 C   0  0  0  0  0  0  0  0  0  0  0  0
   12.8179   15.3831   23.0280 C   0  0  0  0  0  0  0  0  0  0  0  0
   10.9624   14.6712   20.8383 C   0  0  0  0  0  0  0  0  0  0  0  0
   13.0159   14.1067   22.2090 C   0  0  0  0  0  0  0  0  0  0  0  0
   12.0894   16.4681   22.2251 C   0  0  0  0  0  0  0  0  0  0  0  0
   11.7119   13.5784   21.6045 C   0  0  0  0  0  0  0  0  0  0  0  0
   11.8574   17.7098   23.0840 C   0  0  0  0  0  0  0  0  0  0  0  0
   11.0363    8.9724   22.5564 C   0  0  0  0  0  0  0  0  0  0  0  0
    8.0453    9.6753   24.6664 N   0  0  0  0  0  0  0  0  0  0  0  0
   10.8673   12.9843   22.6155 N   0  0  0  0  0  0  0  0  0  0  0  0
    9.9092   11.3737   21.2503 O   0  0  0  0  0  0  0  0  0  0  0  0
    9.2383    8.8755   22.4304 S   0  0  0  0  0  0  0  0  0  0  0  0
    7.7408   12.6250   26.3100 H   0  0  0  0  0  0  0  0  0  0  0  0
    9.1158   13.3970   24.3935 H   0  0  0  0  0  0  0  0  0  0  0  0
    7.0917   10.2131   26.4141 H   0  0  0  0  0  0  0  0  0  0  0  0
   10.2897   16.7062   21.0425 H   0  0  0  0  0  0  0  0  0  0  0  0
   10.0650   15.7326   22.4909 H   0  0  0  0  0  0  0  0  0  0  0  0
   12.2517   15.1470   23.9379 H   0  0  0  0  0  0  0  0  0  0  0  0
   13.7965   15.7553   23.3548 H   0  0  0  0  0  0  0  0  0  0  0  0
    9.9921   14.2985   20.4885 H   0  0  0  0  0  0  0  0  0  0  0  0
   11.5361   14.9265   19.9378 H   0  0  0  0  0  0  0  0  0  0  0  0
   13.7186   14.3199   21.3929 H   0  0  0  0  0  0  0  0  0  0  0  0
   13.4917   13.3371   22.8291 H   0  0  0  0  0  0  0  0  0  0  0  0
   12.7272   16.7579   21.3790 H   0  0  0  0  0  0  0  0  0  0  0  0
   11.9511   12.7589   20.9065 H   0  0  0  0  0  0  0  0  0  0  0  0
   11.2267   17.4573   23.9347 H   0  0  0  0  0  0  0  0  0  0  0  0
   11.3667   18.4809   22.4925 H   0  0  0  0  0  0  0  0  0  0  0  0
   12.8106   18.0907   23.4469 H   0  0  0  0  0  0  0  0  0  0  0  0
   11.4961    8.2570   21.8702 H   0  0  0  0  0  0  0  0  0  0  0  0
   11.3498    8.7393   23.5770 H   0  0  0  0  0  0  0  0  0  0  0  0
   11.3725    9.9800   22.3005 H   0  0  0  0  0  0  0  0  0  0  0  0
   10.8656   13.4237   23.5292 H   0  0  0  0  0  0  0  0  0  0  0  0
  1  2  2  0  0  0  0
  1  3  1  0  0  0  0
  2  4  1  0  0  0  0
  3 15  2  0  0  0  0
  4  5  2  0  0  0  0
  4  6  1  0  0  0  0
  5 15  1  0  0  0  0
  5 18  1  0  0  0  0
  6 16  1  0  0  0  0
  6 17  2  0  0  0  0
  7  9  1  0  0  0  0
  7 11  1  0  0  0  0
  8 10  1  0  0  0  0
  8 11  1  0  0  0  0
  9 12  1  0  0  0  0
 10 12  1  0  0  0  0
 11 13  1  0  0  0  0
 12 16  1  0  0  0  0
 14 18  1  0  0  0  0
  1 19  1  0  0  0  0
  2 20  1  0  0  0  0
  3 21  1  0  0  0  0
  7 22  1  0  0  0  0
  7 23  1  0  0  0  0
  8 24  1  0  0  0  0
  8 25  1  0  0  0  0
  9 26  1  0  0  0  0
  9 27  1  0  0  0  0
 10 28  1  0  0  0  0
 10 29  1  0  0  0  0
 11 30  1  0  0  0  0
 12 31  1  0  0  0  0
 13 32  1  0  0  0  0
 13 33  1  0  0  0  0
 13 34  1  0  0  0  0
 14 35  1  0  0  0  0
 14 36  1  0  0  0  0
 14 37  1  0  0  0  0
 16 38  1  0  0  0  0
M  END
> <idnumber>
Z54655828

> <heavy_atoms>
18

> <LogS>
-4.01

> <LogP>
3.104

> <rotating_bonds>
3

> <PSA>
41.99

> <hb_acceptors>
2

> <hb_donors>
1

> <Collection>
Functional

> <link>
https://www.enaminestore.com/catalog/Z54655828

> <ROCS_ShapeQuery>
_x1140_x0812_0A_x1140_0A_x1097_0A_x0365_0A_x1097_0A_x0310_0A

> <ROCS_TanimotoCombo>
0.650 

> <ROCS_ShapeTanimoto>
0.230 

> <ROCS_ColorTanimoto>
0.420 

> <ROCS_RefTversky>
0.210 

> <ROCS_RefColorTversky>
0.524 

> <ROCS_RefTverskyCombo>
0.734 

> <ROCS_FitTversky>
1.704 

> <ROCS_FitColorTversky>
0.679 

> <ROCS_FitTverskyCombo>
2.382 

> <ROCS_ColorScore>
-4.141

> <ROCS_Overlap>
2150.896

> <ROCS_Rank>
133                 

$$$$
untitled-dbase-17686_37
  -OEChem-02092421083D

 20 20  0     0  0  0  0  0  0999 V2000
   11.5416   15.6362   22.6307 C   0  0  0  0  0  0  0  0  0  0  0  0
    8.1200   12.0357   25.5818 C   0  0  0  0  0  0  0  0  0  0  0  0
    8.9051   12.4844   24.5256 C   0  0  0  0  0  0  0  0  0  0  0  0
    7.7408   10.7030   25.5875 C   0  0  0  0  0  0  0  0  0  0  0  0
    8.8508   10.2861   23.6197 C   0  0  0  0  0  0  0  0  0  0  0  0
    9.2818   11.5993   23.5216 C   0  0  0  0  0  0  0  0  0  0  0  0
   10.1011   12.0399   22.4063 C   0  0  0  0  0  0  0  0  0  0  0  0
   10.5383   14.5893   22.3868 C   0  0  0  0  0  0  0  0  0  0  0  0
   11.1134   13.1886   22.6014 C   0  0  0  0  0  0  0  0  0  0  0  0
   12.3333   16.4626   22.8220 N   0  0  0  0  0  0  0  0  0  0  0  0
    8.0872    9.8135   24.6303 N   0  0  0  0  0  0  0  0  0  0  0  0
    9.9889   11.5064   21.2832 O   0  0  0  0  0  0  0  0  0  0  0  0
    7.8148   12.7074   26.3758 H   0  0  0  0  0  0  0  0  0  0  0  0
    9.2170   13.5249   24.4943 H   0  0  0  0  0  0  0  0  0  0  0  0
    7.1280   10.3038   26.3889 H   0  0  0  0  0  0  0  0  0  0  0  0
    9.1135    9.5488   22.8670 H   0  0  0  0  0  0  0  0  0  0  0  0
   10.1362   14.6890   21.3722 H   0  0  0  0  0  0  0  0  0  0  0  0
    9.6999   14.7360   23.0778 H   0  0  0  0  0  0  0  0  0  0  0  0
   11.9515   13.0285   21.9131 H   0  0  0  0  0  0  0  0  0  0  0  0
   11.4789   13.1212   23.6327 H   0  0  0  0  0  0  0  0  0  0  0  0
  1  8  1  0  0  0  0
  1 10  3  0  0  0  0
  2  3  2  0  0  0  0
  2  4  1  0  0  0  0
  3  6  1  0  0  0  0
  4 11  2  0  0  0  0
  5  6  2  0  0  0  0
  5 11  1  0  0  0  0
  6  7  1  0  0  0  0
  7  9  1  0  0  0  0
  7 12  2  0  0  0  0
  8  9  1  0  0  0  0
  2 13  1  0  0  0  0
  3 14  1  0  0  0  0
  4 15  1  0  0  0  0
  5 16  1  0  0  0  0
  8 17  1  0  0  0  0
  8 18  1  0  0  0  0
  9 19  1  0  0  0  0
  9 20  1  0  0  0  0
M  END
> <idnumber>
Z155070388

> <heavy_atoms>
12

> <LogS>
-0.94

> <LogP>
0.006

> <rotating_bonds>
3

> <PSA>
53.75

> <hb_acceptors>
3

> <hb_donors>
0

> <Collection>
Legacy

> <link>
https://www.enaminestore.com/catalog/Z155070388

> <ROCS_ShapeQuery>
_x1140_x0812_0A_x1140_0A_x1097_0A_x0365_0A_x1097_0A_x0310_0A

> <ROCS_TanimotoCombo>
0.649 

> <ROCS_ShapeTanimoto>
0.192 

> <ROCS_ColorTanimoto>
0.457 

> <ROCS_RefTversky>
0.177 

> <ROCS_RefColorTversky>
0.483 

> <ROCS_RefTverskyCombo>
0.660 

> <ROCS_FitTversky>
1.774 

> <ROCS_FitColorTversky>
0.896 

> <ROCS_FitTverskyCombo>
2.670 

> <ROCS_ColorScore>
-3.765

> <ROCS_Overlap>
1816.376

> <ROCS_Rank>
134                 

$$$$
untitled-dbase-1132907_1
  -OEChem-02092421083D

 27 28  0     0  0  0  0  0  0999 V2000
   12.1513   16.0184   21.9355 C   0  0  0  0  0  0  0  0  0  0  0  0
    8.4762   12.5282   24.1800 C   0  0  0  0  0  0  0  0  0  0  0  0
    9.1616   10.3027   23.6962 C   0  0  0  0  0  0  0  0  0  0  0  0
    7.5121   10.6408   25.2592 C   0  0  0  0  0  0  0  0  0  0  0  0
    9.2928   11.6620   23.4616 C   0  0  0  0  0  0  0  0  0  0  0  0
    7.5662   12.0159   25.0981 C   0  0  0  0  0  0  0  0  0  0  0  0
   10.7655   15.8753   19.8344 C   0  0  0  0  0  0  0  0  0  0  0  0
   12.1840   15.5674   19.4554 C   0  0  0  0  0  0  0  0  0  0  0  0
   11.6829   15.2129   20.8376 C   0  0  0  0  0  0  0  0  0  0  0  0
   11.4531   13.7627   21.1562 C   0  0  0  0  0  0  0  0  0  0  0  0
   10.3985   13.5383   22.2441 C   0  0  0  0  0  0  0  0  0  0  0  0
   12.5287   16.6675   22.8201 N   0  0  0  0  0  0  0  0  0  0  0  0
    8.2892    9.7679   24.5796 N   0  0  0  0  0  0  0  0  0  0  0  0
   10.2111   12.1443   22.5369 N   0  0  0  0  0  0  0  0  0  0  0  0
    6.5428   13.0534   26.0023 Cl  0  0  0  0  0  0  0  0  0  0  0  0
    8.5514   13.6016   24.0219 H   0  0  0  0  0  0  0  0  0  0  0  0
    9.7711    9.5775   23.1654 H   0  0  0  0  0  0  0  0  0  0  0  0
    6.8224   10.1789   25.9592 H   0  0  0  0  0  0  0  0  0  0  0  0
   10.4979   16.9166   19.9744 H   0  0  0  0  0  0  0  0  0  0  0  0
    9.9826   15.2815   19.3769 H   0  0  0  0  0  0  0  0  0  0  0  0
   12.3511   14.7677   18.7431 H   0  0  0  0  0  0  0  0  0  0  0  0
   12.8651   16.4030   19.3409 H   0  0  0  0  0  0  0  0  0  0  0  0
   12.3964   13.3050   21.4976 H   0  0  0  0  0  0  0  0  0  0  0  0
   11.1557   13.2162   20.2454 H   0  0  0  0  0  0  0  0  0  0  0  0
   10.6977   14.0239   23.1783 H   0  0  0  0  0  0  0  0  0  0  0  0
    9.4309   13.9502   21.9406 H   0  0  0  0  0  0  0  0  0  0  0  0
   10.7811   11.4640   22.0397 H   0  0  0  0  0  0  0  0  0  0  0  0
  1  9  1  0  0  0  0
  1 12  3  0  0  0  0
  2  5  1  0  0  0  0
  2  6  2  0  0  0  0
  3  5  2  0  0  0  0
  3 13  1  0  0  0  0
  4  6  1  0  0  0  0
  4 13  2  0  0  0  0
  5 14  1  0  0  0  0
  6 15  1  0  0  0  0
  7  8  1  0  0  0  0
  7  9  1  0  0  0  0
  8  9  1  0  0  0  0
  9 10  1  0  0  0  0
 10 11  1  0  0  0  0
 11 14  1  0  0  0  0
  2 16  1  0  0  0  0
  3 17  1  0  0  0  0
  4 18  1  0  0  0  0
  7 19  1  0  0  0  0
  7 20  1  0  0  0  0
  8 21  1  0  0  0  0
  8 22  1  0  0  0  0
 10 23  1  0  0  0  0
 10 24  1  0  0  0  0
 11 25  1  0  0  0  0
 11 26  1  0  0  0  0
 14 27  1  0  0  0  0
M  END
> <idnumber>
Z5794693510

> <heavy_atoms>
15

> <LogS>
-1.616

> <LogP>
2.205

> <rotating_bonds>
4

> <PSA>
48.71

> <hb_acceptors>
3

> <hb_donors>
1

> <Collection>
Advanced

> <link>
https://www.enaminestore.com/catalog/Z5794693510

> <ROCS_ShapeQuery>
_x1140_x0812_0A_x1140_0A_x1097_0A_x0365_0A_x1097_0A_x0310_0A

> <ROCS_TanimotoCombo>
0.649 

> <ROCS_ShapeTanimoto>
0.205 

> <ROCS_ColorTanimoto>
0.444 

> <ROCS_RefTversky>
0.189 

> <ROCS_RefColorTversky>
0.473 

> <ROCS_RefTverskyCombo>
0.662 

> <ROCS_FitTversky>
1.692 

> <ROCS_FitColorTversky>
0.879 

> <ROCS_FitTverskyCombo>
2.571 

> <ROCS_ColorScore>
-3.692

> <ROCS_Overlap>
1938.090

> <ROCS_Rank>
135                 

$$$$
untitled-dbase-1004738_21
  -OEChem-02092421083D

 31 31  0     0  0  0  0  0  0999 V2000
    9.4101   11.6231   23.7317 C   0  0  0  0  0  0  0  0  0  0  0  0
    9.0271   10.2732   23.6179 C   0  0  0  0  0  0  0  0  0  0  0  0
    8.7188   12.0852   24.8248 C   0  0  0  0  0  0  0  0  0  0  0  0
   10.5286   12.1472   21.5783 C   0  0  0  0  0  0  0  0  0  0  0  0
   10.9851    9.0943   22.5869 C   0  0  0  0  0  0  0  0  0  0  0  0
    7.4135   14.2048   25.1249 C   0  0  0  0  0  0  0  0  0  0  0  0
    7.1005   11.0084   26.4179 C   0  0  0  0  0  0  0  0  0  0  0  0
    9.4646    9.2909   22.6101 C   0  0  0  0  0  0  0  0  0  0  0  0
    8.6812   13.4141   25.4658 C   0  0  0  0  0  0  0  0  0  0  0  0
   11.5406   13.1271   21.0315 C   0  0  0  0  0  0  0  0  0  0  0  0
    8.1598    9.9018   24.5634 N   0  0  0  0  0  0  0  0  0  0  0  0
    7.9923   11.0252   25.2818 N   0  0  0  0  0  0  0  0  0  0  0  0
   10.2745   12.3442   22.9438 N   0  0  0  0  0  0  0  0  0  0  0  0
   10.0432   11.2883   20.8470 O   0  0  0  0  0  0  0  0  0  0  0  0
   13.0501   12.9022   21.9295 Cl  0  0  0  0  0  0  0  0  0  0  0  0
   11.4966   10.0487   22.4222 H   0  0  0  0  0  0  0  0  0  0  0  0
   11.2857    8.4067   21.7902 H   0  0  0  0  0  0  0  0  0  0  0  0
   11.3372    8.6845   23.5396 H   0  0  0  0  0  0  0  0  0  0  0  0
    7.3037   14.3132   24.0405 H   0  0  0  0  0  0  0  0  0  0  0  0
    7.4401   15.2066   25.5648 H   0  0  0  0  0  0  0  0  0  0  0  0
    6.5228   13.6917   25.5032 H   0  0  0  0  0  0  0  0  0  0  0  0
    6.1017   11.2807   26.0668 H   0  0  0  0  0  0  0  0  0  0  0  0
    7.0912   10.0077   26.8588 H   0  0  0  0  0  0  0  0  0  0  0  0
    7.4531   11.7254   27.1647 H   0  0  0  0  0  0  0  0  0  0  0  0
    8.9897    8.3039   22.7785 H   0  0  0  0  0  0  0  0  0  0  0  0
    9.1373    9.5857   21.5932 H   0  0  0  0  0  0  0  0  0  0  0  0
    8.7529   13.3285   26.5675 H   0  0  0  0  0  0  0  0  0  0  0  0
    9.5600   14.0225   25.1759 H   0  0  0  0  0  0  0  0  0  0  0  0
   11.2209   14.1672   21.1337 H   0  0  0  0  0  0  0  0  0  0  0  0
   11.7188   12.9143   19.9736 H   0  0  0  0  0  0  0  0  0  0  0  0
   10.7880   13.1071   23.4023 H   0  0  0  0  0  0  0  0  0  0  0  0
  1  2  1  0  0  0  0
  1  3  2  0  0  0  0
  1 13  1  0  0  0  0
  2  8  1  0  0  0  0
  2 11  2  0  0  0  0
  3  9  1  0  0  0  0
  3 12  1  0  0  0  0
  4 10  1  0  0  0  0
  4 13  1  0  0  0  0
  4 14  2  0  0  0  0
  5  8  1  0  0  0  0
  6  9  1  0  0  0  0
  7 12  1  0  0  0  0
 10 15  1  0  0  0  0
 11 12  1  0  0  0  0
  5 16  1  0  0  0  0
  5 17  1  0  0  0  0
  5 18  1  0  0  0  0
  6 19  1  0  0  0  0
  6 20  1  0  0  0  0
  6 21  1  0  0  0  0
  7 22  1  0  0  0  0
  7 23  1  0  0  0  0
  7 24  1  0  0  0  0
  8 25  1  0  0  0  0
  8 26  1  0  0  0  0
  9 27  1  0  0  0  0
  9 28  1  0  0  0  0
 10 29  1  0  0  0  0
 10 30  1  0  0  0  0
 13 31  1  0  0  0  0
M  END
> <idnumber>
Z3064921282

> <heavy_atoms>
15

> <LogS>
-1.4

> <LogP>
0.152

> <rotating_bonds>
4

> <PSA>
46.92

> <hb_acceptors>
2

> <hb_donors>
1

> <Collection>
Functional

> <link>
https://www.enaminestore.com/catalog/Z3064921282

> <ROCS_ShapeQuery>
_x1140_x0812_0A_x1140_0A_x1097_0A_x0365_0A_x1097_0A_x0310_0A

> <ROCS_TanimotoCombo>
0.649 

> <ROCS_ShapeTanimoto>
0.234 

> <ROCS_ColorTanimoto>
0.415 

> <ROCS_RefTversky>
0.211 

> <ROCS_RefColorTversky>
0.520 

> <ROCS_RefTverskyCombo>
0.731 

> <ROCS_FitTversky>
1.887 

> <ROCS_FitColorTversky>
0.673 

> <ROCS_FitTverskyCombo>
2.560 

> <ROCS_ColorScore>
-4.107

> <ROCS_Overlap>
2161.808

> <ROCS_Rank>
136                 

$$$$
untitled-dbase-162575_31
  -OEChem-02092421083D

 26 27  0     0  0  0  0  0  0999 V2000
   12.2413   15.2099   22.7477 C   0  0  0  0  0  0  0  0  0  0  0  0
   13.0490   12.9426   23.1796 C   0  0  0  0  0  0  0  0  0  0  0  0
   12.8682   11.5605   23.1292 C   0  0  0  0  0  0  0  0  0  0  0  0
   10.8818   13.2633   22.1610 C   0  0  0  0  0  0  0  0  0  0  0  0
    8.3485   10.3350   25.4992 C   0  0  0  0  0  0  0  0  0  0  0  0
   12.0558   13.7941   22.6955 C   0  0  0  0  0  0  0  0  0  0  0  0
   10.7010   11.8811   22.1106 C   0  0  0  0  0  0  0  0  0  0  0  0
   11.6942   11.0297   22.5947 C   0  0  0  0  0  0  0  0  0  0  0  0
    8.5771   11.6623   25.7650 C   0  0  0  0  0  0  0  0  0  0  0  0
    8.3678   11.3526   23.6587 C   0  0  0  0  0  0  0  0  0  0  0  0
    8.7944   12.4509   26.9819 C   0  0  0  0  0  0  0  0  0  0  0  0
    8.3271   11.7939   22.2252 C   0  0  0  0  0  0  0  0  0  0  0  0
   12.3921   16.3598   22.7901 N   0  0  0  0  0  0  0  0  0  0  0  0
    8.2150   10.1427   24.1479 N   0  0  0  0  0  0  0  0  0  0  0  0
    8.5915   12.3309   24.5783 O   0  0  0  0  0  0  0  0  0  0  0  0
    9.5383   11.4023   21.5832 O   0  0  0  0  0  0  0  0  0  0  0  0
   11.4734    8.9524   22.5424 I   0  0  0  0  0  0  0  0  0  0  0  0
   13.9698   13.3412   23.5989 H   0  0  0  0  0  0  0  0  0  0  0  0
   13.6570   10.9175   23.5114 H   0  0  0  0  0  0  0  0  0  0  0  0
   10.1023   13.9211   21.7821 H   0  0  0  0  0  0  0  0  0  0  0  0
    8.2734    9.5157   26.1987 H   0  0  0  0  0  0  0  0  0  0  0  0
    9.8676   12.5110   27.2418 H   0  0  0  0  0  0  0  0  0  0  0  0
    8.4228   13.4894   26.8856 H   0  0  0  0  0  0  0  0  0  0  0  0
    8.2686   12.0284   27.8599 H   0  0  0  0  0  0  0  0  0  0  0  0
    7.4808   11.3392   21.6992 H   0  0  0  0  0  0  0  0  0  0  0  0
    8.2201   12.8819   22.1574 H   0  0  0  0  0  0  0  0  0  0  0  0
  1  6  1  0  0  0  0
  1 13  3  0  0  0  0
  2  3  2  0  0  0  0
  2  6  1  0  0  0  0
  3  8  1  0  0  0  0
  4  6  2  0  0  0  0
  4  7  1  0  0  0  0
  5  9  2  0  0  0  0
  5 14  1  0  0  0  0
  7  8  2  0  0  0  0
  7 16  1  0  0  0  0
  8 17  1  0  0  0  0
  9 11  1  0  0  0  0
  9 15  1  0  0  0  0
 10 12  1  0  0  0  0
 10 14  2  0  0  0  0
 10 15  1  0  0  0  0
 12 16  1  0  0  0  0
  2 18  1  0  0  0  0
  3 19  1  0  0  0  0
  4 20  1  0  0  0  0
  5 21  1  0  0  0  0
 11 22  1  0  0  0  0
 11 23  1  0  0  0  0
 11 24  1  0  0  0  0
 12 25  1  0  0  0  0
 12 26  1  0  0  0  0
M  END
> <idnumber>
Z1983259271

> <heavy_atoms>
17

> <LogS>
-2.826

> <LogP>
2.427

> <rotating_bonds>
3

> <PSA>
59.05

> <hb_acceptors>
3

> <hb_donors>
0

> <Collection>
Legacy

> <link>
https://www.enaminestore.com/catalog/Z1983259271

> <ROCS_ShapeQuery>
_x1140_x0812_0A_x1140_0A_x1097_0A_x0365_0A_x1097_0A_x0310_0A

> <ROCS_TanimotoCombo>
0.649 

> <ROCS_ShapeTanimoto>
0.198 

> <ROCS_ColorTanimoto>
0.451 

> <ROCS_RefTversky>
0.186 

> <ROCS_RefColorTversky>
0.550 

> <ROCS_RefTverskyCombo>
0.736 

> <ROCS_FitTversky>
1.524 

> <ROCS_FitColorTversky>
0.713 

> <ROCS_FitTverskyCombo>
2.237 

> <ROCS_ColorScore>
-4.349

> <ROCS_Overlap>
1904.836

> <ROCS_Rank>
137                 

$$$$
untitled-dbase-94194_34
  -OEChem-02092421083D

 32 33  0     0  0  0  0  0  0999 V2000
    8.3585   12.3672   24.0551 C   0  0  0  0  0  0  0  0  0  0  0  0
    7.3269   11.9237   24.8751 C   0  0  0  0  0  0  0  0  0  0  0  0
    9.1068   10.1174   23.8676 C   0  0  0  0  0  0  0  0  0  0  0  0
   12.0710   15.1382   23.0821 C   0  0  0  0  0  0  0  0  0  0  0  0
   13.6363   14.9095   21.5548 C   0  0  0  0  0  0  0  0  0  0  0  0
    9.2696   11.4533   23.5376 C   0  0  0  0  0  0  0  0  0  0  0  0
   12.8315   14.1756   22.3915 C   0  0  0  0  0  0  0  0  0  0  0  0
    7.2509   10.5668   25.1451 C   0  0  0  0  0  0  0  0  0  0  0  0
   10.3720   11.8910   22.6668 C   0  0  0  0  0  0  0  0  0  0  0  0
   13.9079   17.3656   21.1398 C   0  0  0  0  0  0  0  0  0  0  0  0
   11.7169   12.1862   24.7109 C   0  0  0  0  0  0  0  0  0  0  0  0
   12.7787   12.6822   22.5371 C   0  0  0  0  0  0  0  0  0  0  0  0
    8.1174    9.6490   24.6608 N   0  0  0  0  0  0  0  0  0  0  0  0
   12.3664   16.3883   22.7160 N   0  0  0  0  0  0  0  0  0  0  0  0
   13.3215   16.2162   21.7863 N   0  0  0  0  0  0  0  0  0  0  0  0
   11.5874   12.2452   23.2617 N   0  0  0  0  0  0  0  0  0  0  0  0
   10.1405   11.9000   21.4583 O   0  0  0  0  0  0  0  0  0  0  0  0
    6.2430   10.1053   25.9506 O   0  0  0  0  0  0  0  0  0  0  0  0
    8.4433   13.4260   23.8256 H   0  0  0  0  0  0  0  0  0  0  0  0
    6.6081   12.6239   25.2866 H   0  0  0  0  0  0  0  0  0  0  0  0
    9.7863    9.3572   23.4942 H   0  0  0  0  0  0  0  0  0  0  0  0
   11.3140   14.9834   23.8378 H   0  0  0  0  0  0  0  0  0  0  0  0
   14.3885   14.6204   20.8333 H   0  0  0  0  0  0  0  0  0  0  0  0
   13.3160   17.5898   20.2485 H   0  0  0  0  0  0  0  0  0  0  0  0
   13.8985   18.2150   21.8286 H   0  0  0  0  0  0  0  0  0  0  0  0
   14.9419   17.1380   20.8662 H   0  0  0  0  0  0  0  0  0  0  0  0
   12.0698   11.1875   25.0076 H   0  0  0  0  0  0  0  0  0  0  0  0
   12.4397   12.9448   25.0454 H   0  0  0  0  0  0  0  0  0  0  0  0
   10.7388   12.3820   25.1745 H   0  0  0  0  0  0  0  0  0  0  0  0
   12.7721   12.1985   21.5542 H   0  0  0  0  0  0  0  0  0  0  0  0
   13.6550   12.3088   23.0774 H   0  0  0  0  0  0  0  0  0  0  0  0
    5.6885   10.8445   26.2367 H   0  0  0  0  0  0  0  0  0  0  0  0
  1  2  2  0  0  0  0
  1  6  1  0  0  0  0
  2  8  1  0  0  0  0
  3  6  2  0  0  0  0
  3 13  1  0  0  0  0
  4  7  1  0  0  0  0
  4 14  2  0  0  0  0
  5  7  2  0  0  0  0
  5 15  1  0  0  0  0
  6  9  1  0  0  0  0
  7 12  1  0  0  0  0
  8 13  2  0  0  0  0
  8 18  1  0  0  0  0
  9 16  1  0  0  0  0
  9 17  2  0  0  0  0
 10 15  1  0  0  0  0
 11 16  1  0  0  0  0
 12 16  1  0  0  0  0
 14 15  1  0  0  0  0
  1 19  1  0  0  0  0
  2 20  1  0  0  0  0
  3 21  1  0  0  0  0
  4 22  1  0  0  0  0
  5 23  1  0  0  0  0
 10 24  1  0  0  0  0
 10 25  1  0  0  0  0
 10 26  1  0  0  0  0
 11 27  1  0  0  0  0
 11 28  1  0  0  0  0
 11 29  1  0  0  0  0
 12 30  1  0  0  0  0
 12 31  1  0  0  0  0
 18 32  1  0  0  0  0
M  END
> <idnumber>
Z240530268

> <heavy_atoms>
18

> <LogS>
-0.577

> <LogP>
0.178

> <rotating_bonds>
3

> <PSA>
71.25

> <hb_acceptors>
4

> <hb_donors>
1

> <Collection>
Legacy

> <link>
https://www.enaminestore.com/catalog/Z240530268

> <ROCS_ShapeQuery>
_x1140_x0812_0A_x1140_0A_x1097_0A_x0365_0A_x1097_0A_x0310_0A

> <ROCS_TanimotoCombo>
0.649 

> <ROCS_ShapeTanimoto>
0.230 

> <ROCS_ColorTanimoto>
0.419 

> <ROCS_RefTversky>
0.211 

> <ROCS_RefColorTversky>
0.557 

> <ROCS_RefTverskyCombo>
0.768 

> <ROCS_FitTversky>
1.652 

> <ROCS_FitColorTversky>
0.627 

> <ROCS_FitTverskyCombo>
2.279 

> <ROCS_ColorScore>
-4.429

> <ROCS_Overlap>
2164.765

> <ROCS_Rank>
138                 

$$$$
untitled-dbase-1192885_23
  -OEChem-02092421083D

 31 31  0     0  0  0  0  0  0999 V2000
    7.4434   10.6848   25.2177 C   0  0  0  0  0  0  0  0  0  0  0  0
    9.0824   10.1294   23.7887 C   0  0  0  0  0  0  0  0  0  0  0  0
    8.9557   12.2209   24.5927 C   0  0  0  0  0  0  0  0  0  0  0  0
    5.0780   12.2832   26.6675 C   0  0  0  0  0  0  0  0  0  0  0  0
   11.4808    8.0217   21.7990 C   0  0  0  0  0  0  0  0  0  0  0  0
   11.4868   10.5209   22.0055 C   0  0  0  0  0  0  0  0  0  0  0  0
   11.9161    9.0924   24.0213 C   0  0  0  0  0  0  0  0  0  0  0  0
    5.8459   11.0784   27.0935 C   0  0  0  0  0  0  0  0  0  0  0  0
   11.1331    9.2060   22.7082 C   0  0  0  0  0  0  0  0  0  0  0  0
    8.0001    9.7189   24.4691 N   0  0  0  0  0  0  0  0  0  0  0  0
    7.8646   11.9551   25.3289 N   0  0  0  0  0  0  0  0  0  0  0  0
    9.6168   11.3612   23.8010 N   0  0  0  0  0  0  0  0  0  0  0  0
    6.2989   10.3292   25.9634 N   0  0  0  0  0  0  0  0  0  0  0  0
    9.7102    9.1891   22.9950 N   0  0  0  0  0  0  0  0  0  0  0  0
    9.5634   13.8156   24.6706 Cl  0  0  0  0  0  0  0  0  0  0  0  0
    4.2049   11.9716   26.0754 H   0  0  0  0  0  0  0  0  0  0  0  0
    4.7397   12.8355   27.5566 H   0  0  0  0  0  0  0  0  0  0  0  0
    5.7229   12.9317   26.0564 H   0  0  0  0  0  0  0  0  0  0  0  0
   11.2364    7.0676   22.2803 H   0  0  0  0  0  0  0  0  0  0  0  0
   10.9316    8.0711   20.8522 H   0  0  0  0  0  0  0  0  0  0  0  0
   12.5521    8.0027   21.5674 H   0  0  0  0  0  0  0  0  0  0  0  0
   11.2467   11.3839   22.6374 H   0  0  0  0  0  0  0  0  0  0  0  0
   10.9218   10.6353   21.0731 H   0  0  0  0  0  0  0  0  0  0  0  0
   12.5538   10.5682   21.7612 H   0  0  0  0  0  0  0  0  0  0  0  0
   11.6861    9.9284   24.6920 H   0  0  0  0  0  0  0  0  0  0  0  0
   11.6784    8.1617   24.5482 H   0  0  0  0  0  0  0  0  0  0  0  0
   12.9972    9.1102   23.8406 H   0  0  0  0  0  0  0  0  0  0  0  0
    6.7167   11.3982   27.6847 H   0  0  0  0  0  0  0  0  0  0  0  0
    5.1978   10.4395   27.7114 H   0  0  0  0  0  0  0  0  0  0  0  0
    5.8012    9.5114   25.6675 H   0  0  0  0  0  0  0  0  0  0  0  0
    9.1578    8.4479   22.5876 H   0  0  0  0  0  0  0  0  0  0  0  0
  1 10  2  0  0  0  0
  1 11  1  0  0  0  0
  1 13  1  0  0  0  0
  2 10  1  0  0  0  0
  2 12  2  0  0  0  0
  2 14  1  0  0  0  0
  3 11  2  0  0  0  0
  3 12  1  0  0  0  0
  3 15  1  0  0  0  0
  4  8  1  0  0  0  0
  5  9  1  0  0  0  0
  6  9  1  0  0  0  0
  7  9  1  0  0  0  0
  8 13  1  0  0  0  0
  9 14  1  0  0  0  0
  4 16  1  0  0  0  0
  4 17  1  0  0  0  0
  4 18  1  0  0  0  0
  5 19  1  0  0  0  0
  5 20  1  0  0  0  0
  5 21  1  0  0  0  0
  6 22  1  0  0  0  0
  6 23  1  0  0  0  0
  6 24  1  0  0  0  0
  7 25  1  0  0  0  0
  7 26  1  0  0  0  0
  7 27  1  0  0  0  0
  8 28  1  0  0  0  0
  8 29  1  0  0  0  0
 13 30  1  0  0  0  0
 14 31  1  0  0  0  0
M  END
> <idnumber>
Z1431019580

> <heavy_atoms>
15

> <LogS>
-3.978

> <LogP>
3.102

> <rotating_bonds>
4

> <PSA>
62.73

> <hb_acceptors>
5

> <hb_donors>
2

> <Collection>
Functional

> <link>
https://www.enaminestore.com/catalog/Z1431019580

> <ROCS_ShapeQuery>
_x1140_x0812_0A_x1140_0A_x1097_0A_x0365_0A_x1097_0A_x0310_0A

> <ROCS_TanimotoCombo>
0.649 

> <ROCS_ShapeTanimoto>
0.231 

> <ROCS_ColorTanimoto>
0.418 

> <ROCS_RefTversky>
0.208 

> <ROCS_RefColorTversky>
0.557 

> <ROCS_RefTverskyCombo>
0.765 

> <ROCS_FitTversky>
1.855 

> <ROCS_FitColorTversky>
0.626 

> <ROCS_FitTverskyCombo>
2.481 

> <ROCS_ColorScore>
-4.427

> <ROCS_Overlap>
2137.152

> <ROCS_Rank>
139                 

$$$$
untitled-dbase-795078_30
  -OEChem-02092421083D

 46 47  0     1  0  0  0  0  0999 V2000
    7.4510   10.5514   25.7331 C   0  0  0  0  0  0  0  0  0  0  0  0
    8.6503    9.9177   25.4083 C   0  0  0  0  0  0  0  0  0  0  0  0
    7.8275   12.1651   23.9748 C   0  0  0  0  0  0  0  0  0  0  0  0
    9.0269   11.5313   23.6500 C   0  0  0  0  0  0  0  0  0  0  0  0
    7.0395   11.6751   25.0163 C   0  0  0  0  0  0  0  0  0  0  0  0
    9.4383   10.4076   24.3668 C   0  0  0  0  0  0  0  0  0  0  0  0
    9.8345   12.0726   22.5460 C   0  0  0  0  0  0  0  0  0  0  0  0
   10.9820   14.7634   21.3241 C   0  0  0  0  0  0  0  0  0  0  0  0
   12.9231   13.8803   22.4579 C   0  0  0  0  0  0  0  0  0  0  0  0
   11.0454   15.9876   22.2360 C   0  0  0  0  0  0  0  0  0  0  0  0
   12.9363   15.1274   23.3402 C   0  0  0  0  0  0  0  0  0  0  0  0
    5.7568   12.3519   25.3636 C   0  0  0  0  0  0  0  0  0  0  0  0
   11.0691    7.6740   22.8832 C   0  0  0  0  0  0  0  0  0  0  0  0
   12.0372    9.8560   22.0785 C   0  0  0  0  0  0  0  0  0  0  0  0
   11.6965    9.6339   25.0466 C   0  0  0  0  0  0  0  0  0  0  0  0
   10.8494    9.1731   22.7404 C   0  0  0  0  0  0  0  0  0  0  0  0
   11.5896   13.5707   21.9274 N   0  0  0  0  0  0  0  0  0  0  0  0
   10.7736   13.0332   22.9054 N   0  0  0  0  0  0  0  0  0  0  0  0
   10.6486    9.7503   24.0536 N   0  0  3  0  0  0  0  0  0  0  0  0
    9.7020   11.6814   21.3845 O   0  0  0  0  0  0  0  0  0  0  0  0
   12.3930   16.2424   22.6328 O   0  0  0  0  0  0  0  0  0  0  0  0
    6.8433   10.1623   26.5459 H   0  0  0  0  0  0  0  0  0  0  0  0
    8.9604    9.0424   25.9735 H   0  0  0  0  0  0  0  0  0  0  0  0
    7.5031   13.0408   23.4170 H   0  0  0  0  0  0  0  0  0  0  0  0
    9.9208   14.5606   21.0725 H   0  0  0  0  0  0  0  0  0  0  0  0
   11.4862   15.0012   20.3626 H   0  0  0  0  0  0  0  0  0  0  0  0
   13.6413   14.0208   21.6213 H   0  0  0  0  0  0  0  0  0  0  0  0
   13.3036   13.0215   23.0482 H   0  0  0  0  0  0  0  0  0  0  0  0
   10.6835   16.8702   21.6991 H   0  0  0  0  0  0  0  0  0  0  0  0
   10.4186   15.8607   23.1269 H   0  0  0  0  0  0  0  0  0  0  0  0
   12.3725   14.9719   24.2680 H   0  0  0  0  0  0  0  0  0  0  0  0
   13.9657   15.3770   23.6159 H   0  0  0  0  0  0  0  0  0  0  0  0
    5.9278   13.1315   26.1161 H   0  0  0  0  0  0  0  0  0  0  0  0
    5.2989   12.8156   24.4802 H   0  0  0  0  0  0  0  0  0  0  0  0
    5.0247   11.6377   25.7627 H   0  0  0  0  0  0  0  0  0  0  0  0
   11.9680    7.4660   23.4725 H   0  0  0  0  0  0  0  0  0  0  0  0
   10.2183    7.1902   23.3760 H   0  0  0  0  0  0  0  0  0  0  0  0
   11.1911    7.2040   21.9012 H   0  0  0  0  0  0  0  0  0  0  0  0
   12.9535    9.6854   22.6542 H   0  0  0  0  0  0  0  0  0  0  0  0
   11.8768   10.9369   22.0093 H   0  0  0  0  0  0  0  0  0  0  0  0
   12.2079    9.4709   21.0669 H   0  0  0  0  0  0  0  0  0  0  0  0
   12.5525    9.0940   24.6156 H   0  0  0  0  0  0  0  0  0  0  0  0
   12.0171   10.6383   25.3605 H   0  0  0  0  0  0  0  0  0  0  0  0
   11.3158    9.0814   25.9182 H   0  0  0  0  0  0  0  0  0  0  0  0
    9.9463    9.3571   22.1483 H   0  0  0  0  0  0  0  0  0  0  0  0
   10.8586   13.3349   23.8705 H   0  0  0  0  0  0  0  0  0  0  0  0
  1  2  2  0  0  0  0
  1  5  1  0  0  0  0
  2  6  1  0  0  0  0
  3  4  1  0  0  0  0
  3  5  2  0  0  0  0
  4  6  2  0  0  0  0
  4  7  1  0  0  0  0
  5 12  1  0  0  0  0
  6 19  1  0  0  0  0
  7 18  1  0  0  0  0
  7 20  2  0  0  0  0
  8 10  1  0  0  0  0
  8 17  1  0  0  0  0
  9 11  1  0  0  0  0
  9 17  1  0  0  0  0
 10 21  1  0  0  0  0
 11 21  1  0  0  0  0
 13 16  1  0  0  0  0
 14 16  1  0  0  0  0
 15 19  1  0  0  0  0
 16 19  1  0  0  0  0
 17 18  1  0  0  0  0
  1 22  1  0  0  0  0
  2 23  1  0  0  0  0
  3 24  1  0  0  0  0
  8 25  1  0  0  0  0
  8 26  1  0  0  0  0
  9 27  1  0  0  0  0
  9 28  1  0  0  0  0
 10 29  1  0  0  0  0
 10 30  1  0  0  0  0
 11 31  1  0  0  0  0
 11 32  1  0  0  0  0
 12 33  1  0  0  0  0
 12 34  1  0  0  0  0
 12 35  1  0  0  0  0
 13 36  1  0  0  0  0
 13 37  1  0  0  0  0
 13 38  1  0  0  0  0
 14 39  1  0  0  0  0
 14 40  1  0  0  0  0
 14 41  1  0  0  0  0
 15 42  1  0  0  0  0
 15 43  1  0  0  0  0
 15 44  1  0  0  0  0
 16 45  1  0  0  0  0
 18 46  1  0  0  0  0
M  END
> <idnumber>
Z1279284890

> <heavy_atoms>
21

> <LogS>
-3.13

> <LogP>
2.686

> <rotating_bonds>
4

> <PSA>
44.81

> <hb_acceptors>
4

> <hb_donors>
1

> <Collection>
Legacy

> <link>
https://www.enaminestore.com/catalog/Z1279284890

> <ROCS_ShapeQuery>
_x1140_x0812_0A_x1140_0A_x1097_0A_x0365_0A_x1097_0A_x0310_0A

> <ROCS_TanimotoCombo>
0.649 

> <ROCS_ShapeTanimoto>
0.254 

> <ROCS_ColorTanimoto>
0.394 

> <ROCS_RefTversky>
0.231 

> <ROCS_RefColorTversky>
0.501 

> <ROCS_RefTverskyCombo>
0.732 

> <ROCS_FitTversky>
1.673 

> <ROCS_FitColorTversky>
0.649 

> <ROCS_FitTverskyCombo>
2.322 

> <ROCS_ColorScore>
-3.960

> <ROCS_Overlap>
2367.029

> <ROCS_Rank>
140                 

$$$$
untitled-dbase-967163_43
  -OEChem-02092421083D

 41 42  0     0  0  0  0  0  0999 V2000
    8.0275   12.3835   24.2790 C   0  0  0  0  0  0  0  0  0  0  0  0
    7.2081   11.7807   25.2270 C   0  0  0  0  0  0  0  0  0  0  0  0
   10.9297   18.0466   23.2184 C   0  0  0  0  0  0  0  0  0  0  0  0
    8.9359   11.6124   23.5624 C   0  0  0  0  0  0  0  0  0  0  0  0
    7.3350   10.4144   25.4192 C   0  0  0  0  0  0  0  0  0  0  0  0
   12.2283   17.5905   23.1308 C   0  0  0  0  0  0  0  0  0  0  0  0
    8.9856   10.2537   23.8293 C   0  0  0  0  0  0  0  0  0  0  0  0
   11.1975   15.7883   22.4241 C   0  0  0  0  0  0  0  0  0  0  0  0
    9.8057   12.2659   22.5507 C   0  0  0  0  0  0  0  0  0  0  0  0
    6.4717    9.7343   26.4286 C   0  0  0  0  0  0  0  0  0  0  0  0
   13.4382   18.3618   23.4784 C   0  0  0  0  0  0  0  0  0  0  0  0
   10.2276   14.4174   20.5438 C   0  0  0  0  0  0  0  0  0  0  0  0
   12.2942   13.6257   21.7330 C   0  0  0  0  0  0  0  0  0  0  0  0
   10.0411    8.0550   23.3024 C   0  0  0  0  0  0  0  0  0  0  0  0
   10.9547   14.3666   21.9003 C   0  0  0  0  0  0  0  0  0  0  0  0
    8.2058    9.6326   24.7424 N   0  0  0  0  0  0  0  0  0  0  0  0
   12.3838   16.2957   22.6760 N   0  0  0  0  0  0  0  0  0  0  0  0
    9.9096    9.4611   23.1027 N   0  0  0  0  0  0  0  0  0  0  0  0
   10.1301   13.5810   22.8103 N   0  0  0  0  0  0  0  0  0  0  0  0
   10.1595   11.6287   21.5621 O   0  0  0  0  0  0  0  0  0  0  0  0
    9.8514   16.8132   22.7113 S   0  0  0  0  0  0  0  0  0  0  0  0
    7.9491   13.4539   24.1078 H   0  0  0  0  0  0  0  0  0  0  0  0
    6.4947   12.3709   25.7919 H   0  0  0  0  0  0  0  0  0  0  0  0
   10.5711   19.0129   23.5440 H   0  0  0  0  0  0  0  0  0  0  0  0
    5.5389    9.3928   25.9640 H   0  0  0  0  0  0  0  0  0  0  0  0
    6.9808    8.8666   26.8672 H   0  0  0  0  0  0  0  0  0  0  0  0
    6.2219   10.4091   27.2573 H   0  0  0  0  0  0  0  0  0  0  0  0
   13.7070   18.2225   24.5382 H   0  0  0  0  0  0  0  0  0  0  0  0
   14.3084   18.0626   22.8697 H   0  0  0  0  0  0  0  0  0  0  0  0
   13.3029   19.4432   23.3060 H   0  0  0  0  0  0  0  0  0  0  0  0
   10.0469   13.4073   20.1565 H   0  0  0  0  0  0  0  0  0  0  0  0
    9.2510   14.9083   20.6370 H   0  0  0  0  0  0  0  0  0  0  0  0
   10.8002   14.9612   19.7847 H   0  0  0  0  0  0  0  0  0  0  0  0
   12.1360   12.6070   21.3587 H   0  0  0  0  0  0  0  0  0  0  0  0
   12.8212   13.5408   22.6913 H   0  0  0  0  0  0  0  0  0  0  0  0
   12.9650   14.1318   21.0304 H   0  0  0  0  0  0  0  0  0  0  0  0
    9.3325    7.7263   24.0769 H   0  0  0  0  0  0  0  0  0  0  0  0
    9.8247    7.5292   22.3608 H   0  0  0  0  0  0  0  0  0  0  0  0
   11.0678    7.8249   23.6234 H   0  0  0  0  0  0  0  0  0  0  0  0
   10.4772    9.9376   22.4323 H   0  0  0  0  0  0  0  0  0  0  0  0
    9.7552   14.0683   23.6105 H   0  0  0  0  0  0  0  0  0  0  0  0
  1  2  2  0  0  0  0
  1  4  1  0  0  0  0
  2  5  1  0  0  0  0
  3  6  2  0  0  0  0
  3 21  1  0  0  0  0
  4  7  2  0  0  0  0
  4  9  1  0  0  0  0
  5 10  1  0  0  0  0
  5 16  2  0  0  0  0
  6 11  1  0  0  0  0
  6 17  1  0  0  0  0
  7 16  1  0  0  0  0
  7 18  1  0  0  0  0
  8 15  1  0  0  0  0
  8 17  2  0  0  0  0
  8 21  1  0  0  0  0
  9 19  1  0  0  0  0
  9 20  2  0  0  0  0
 12 15  1  0  0  0  0
 13 15  1  0  0  0  0
 14 18  1  0  0  0  0
 15 19  1  0  0  0  0
  1 22  1  0  0  0  0
  2 23  1  0  0  0  0
  3 24  1  0  0  0  0
 10 25  1  0  0  0  0
 10 26  1  0  0  0  0
 10 27  1  0  0  0  0
 11 28  1  0  0  0  0
 11 29  1  0  0  0  0
 11 30  1  0  0  0  0
 12 31  1  0  0  0  0
 12 32  1  0  0  0  0
 12 33  1  0  0  0  0
 13 34  1  0  0  0  0
 13 35  1  0  0  0  0
 13 36  1  0  0  0  0
 14 37  1  0  0  0  0
 14 38  1  0  0  0  0
 14 39  1  0  0  0  0
 18 40  1  0  0  0  0
 19 41  1  0  0  0  0
M  END
> <idnumber>
Z2892467209

> <heavy_atoms>
21

> <LogS>
-2.218

> <LogP>
3.051

> <rotating_bonds>
4

> <PSA>
66.91

> <hb_acceptors>
4

> <hb_donors>
2

> <Collection>
Advanced

> <link>
https://www.enaminestore.com/catalog/Z2892467209

> <ROCS_ShapeQuery>
_x1140_x0812_0A_x1140_0A_x1097_0A_x0365_0A_x1097_0A_x0310_0A

> <ROCS_TanimotoCombo>
0.648 

> <ROCS_ShapeTanimoto>
0.250 

> <ROCS_ColorTanimoto>
0.399 

> <ROCS_RefTversky>
0.228 

> <ROCS_RefColorTversky>
0.570 

> <ROCS_RefTverskyCombo>
0.797 

> <ROCS_FitTversky>
1.652 

> <ROCS_FitColorTversky>
0.570 

> <ROCS_FitTverskyCombo>
2.222 

> <ROCS_ColorScore>
-4.559

> <ROCS_Overlap>
2335.803

> <ROCS_Rank>
141                 

$$$$
untitled-dbase-840556_71
  -OEChem-02092421083D

 32 33  0     0  0  0  0  0  0999 V2000
   10.3075   16.0204   21.4064 C   0  0  0  0  0  0  0  0  0  0  0  0
    8.6722   12.0563   24.6837 C   0  0  0  0  0  0  0  0  0  0  0  0
   10.4073   17.3618   21.6843 C   0  0  0  0  0  0  0  0  0  0  0  0
    7.9895   11.0356   25.3035 C   0  0  0  0  0  0  0  0  0  0  0  0
    9.3084   11.4777   23.5595 C   0  0  0  0  0  0  0  0  0  0  0  0
   11.3949   15.4386   22.0853 C   0  0  0  0  0  0  0  0  0  0  0  0
    8.9694   10.1447   23.5727 C   0  0  0  0  0  0  0  0  0  0  0  0
   10.1425   12.1150   22.5840 C   0  0  0  0  0  0  0  0  0  0  0  0
   10.8042    8.7568   22.5759 C   0  0  0  0  0  0  0  0  0  0  0  0
   12.0173   18.7283   23.0330 C   0  0  0  0  0  0  0  0  0  0  0  0
   11.7744   13.9866   22.1284 C   0  0  0  0  0  0  0  0  0  0  0  0
    9.2955    9.0087   22.6971 C   0  0  0  0  0  0  0  0  0  0  0  0
   12.1313   16.3368   22.7448 N   0  0  0  0  0  0  0  0  0  0  0  0
   11.5057   17.4966   22.4815 N   0  0  0  0  0  0  0  0  0  0  0  0
   10.9054   13.2259   22.9973 N   0  0  0  0  0  0  0  0  0  0  0  0
   10.1802   11.7141   21.3956 O   0  0  0  0  0  0  0  0  0  0  0  0
    8.1657    9.8671   24.6327 O   0  0  0  0  0  0  0  0  0  0  0  0
    9.5552   15.5383   20.7995 H   0  0  0  0  0  0  0  0  0  0  0  0
    8.7043   13.0876   25.0054 H   0  0  0  0  0  0  0  0  0  0  0  0
    9.8042   18.2091   21.3883 H   0  0  0  0  0  0  0  0  0  0  0  0
    7.3655   10.9798   26.1834 H   0  0  0  0  0  0  0  0  0  0  0  0
   11.3196    9.6577   22.2259 H   0  0  0  0  0  0  0  0  0  0  0  0
   11.0194    7.9477   21.8710 H   0  0  0  0  0  0  0  0  0  0  0  0
   11.2294    8.4825   23.5473 H   0  0  0  0  0  0  0  0  0  0  0  0
   11.5414   18.8862   24.0044 H   0  0  0  0  0  0  0  0  0  0  0  0
   13.1024   18.6534   23.1465 H   0  0  0  0  0  0  0  0  0  0  0  0
   11.7844   19.5528   22.3534 H   0  0  0  0  0  0  0  0  0  0  0  0
   11.7223   13.5440   21.1277 H   0  0  0  0  0  0  0  0  0  0  0  0
   12.8012   13.8593   22.4872 H   0  0  0  0  0  0  0  0  0  0  0  0
    8.8173    8.0733   23.0530 H   0  0  0  0  0  0  0  0  0  0  0  0
    8.8871    9.1546   21.6762 H   0  0  0  0  0  0  0  0  0  0  0  0
   10.7995   13.5584   23.9502 H   0  0  0  0  0  0  0  0  0  0  0  0
  1  3  2  0  0  0  0
  1  6  1  0  0  0  0
  2  4  2  0  0  0  0
  2  5  1  0  0  0  0
  3 14  1  0  0  0  0
  4 17  1  0  0  0  0
  5  7  2  0  0  0  0
  5  8  1  0  0  0  0
  6 11  1  0  0  0  0
  6 13  2  0  0  0  0
  7 12  1  0  0  0  0
  7 17  1  0  0  0  0
  8 15  1  0  0  0  0
  8 16  2  0  0  0  0
  9 12  1  0  0  0  0
 10 14  1  0  0  0  0
 11 15  1  0  0  0  0
 13 14  1  0  0  0  0
  1 18  1  0  0  0  0
  2 19  1  0  0  0  0
  3 20  1  0  0  0  0
  4 21  1  0  0  0  0
  9 22  1  0  0  0  0
  9 23  1  0  0  0  0
  9 24  1  0  0  0  0
 10 25  1  0  0  0  0
 10 26  1  0  0  0  0
 10 27  1  0  0  0  0
 11 28  1  0  0  0  0
 11 29  1  0  0  0  0
 12 30  1  0  0  0  0
 12 31  1  0  0  0  0
 15 32  1  0  0  0  0
M  END
> <idnumber>
Z1966944011

> <heavy_atoms>
17

> <LogS>
-1.4

> <LogP>
0.808

> <rotating_bonds>
4

> <PSA>
60.06

> <hb_acceptors>
2

> <hb_donors>
1

> <Collection>
Advanced

> <link>
https://www.enaminestore.com/catalog/Z1966944011

> <ROCS_ShapeQuery>
_x1140_x0812_0A_x1140_0A_x1097_0A_x0365_0A_x1097_0A_x0310_0A

> <ROCS_TanimotoCombo>
0.648 

> <ROCS_ShapeTanimoto>
0.212 

> <ROCS_ColorTanimoto>
0.436 

> <ROCS_RefTversky>
0.196 

> <ROCS_RefColorTversky>
0.573 

> <ROCS_RefTverskyCombo>
0.770 

> <ROCS_FitTversky>
1.592 

> <ROCS_FitColorTversky>
0.646 

> <ROCS_FitTverskyCombo>
2.239 

> <ROCS_ColorScore>
-4.557

> <ROCS_Overlap>
2014.234

> <ROCS_Rank>
142                 

$$$$
untitled-dbase-1148402_86
  -OEChem-02092421083D

 34 36  0     0  0  0  0  0  0999 V2000
    5.8417   12.1492   25.3745 C   0  0  0  0  0  0  0  0  0  0  0  0
    8.0098   12.4774   23.9470 C   0  0  0  0  0  0  0  0  0  0  0  0
   12.0879   14.2777   22.6329 C   0  0  0  0  0  0  0  0  0  0  0  0
   14.6530   13.6684   21.7211 C   0  0  0  0  0  0  0  0  0  0  0  0
    9.2406   10.4252   23.8784 C   0  0  0  0  0  0  0  0  0  0  0  0
    5.3815   11.0255   26.0266 C   0  0  0  0  0  0  0  0  0  0  0  0
    7.0666   11.8073   24.7428 C   0  0  0  0  0  0  0  0  0  0  0  0
   12.4377   12.9537   22.3680 C   0  0  0  0  0  0  0  0  0  0  0  0
    9.1206   11.7583   23.5097 C   0  0  0  0  0  0  0  0  0  0  0  0
   13.0206   15.2971   22.4418 C   0  0  0  0  0  0  0  0  0  0  0  0
   13.7203   12.6490   21.9121 C   0  0  0  0  0  0  0  0  0  0  0  0
   14.3032   14.9924   21.9859 C   0  0  0  0  0  0  0  0  0  0  0  0
    7.3120   10.4692   25.0369 C   0  0  0  0  0  0  0  0  0  0  0  0
   12.8713   17.0570   24.0344 C   0  0  0  0  0  0  0  0  0  0  0  0
   11.4304   11.8591   22.5713 C   0  0  0  0  0  0  0  0  0  0  0  0
    8.3655    9.7298   24.6413 N   0  0  0  0  0  0  0  0  0  0  0  0
    6.2811   10.0130   25.8155 N   0  0  0  0  0  0  0  0  0  0  0  0
   10.1008   12.3732   22.7100 N   0  0  0  0  0  0  0  0  0  0  0  0
   12.6519   16.5823   22.7080 O   0  0  0  0  0  0  0  0  0  0  0  0
   14.0649   11.3796   21.6538 F   0  0  0  0  0  0  0  0  0  0  0  0
   15.4770   16.2326   21.7419 Cl  0  0  0  0  0  0  0  0  0  0  0  0
    5.3466   13.1104   25.3571 H   0  0  0  0  0  0  0  0  0  0  0  0
    7.8744   13.5219   23.6829 H   0  0  0  0  0  0  0  0  0  0  0  0
   11.0878   14.5183   22.9851 H   0  0  0  0  0  0  0  0  0  0  0  0
   15.6485   13.4149   21.3658 H   0  0  0  0  0  0  0  0  0  0  0  0
   10.0975    9.8405   23.5509 H   0  0  0  0  0  0  0  0  0  0  0  0
    4.4951   10.8564   26.6215 H   0  0  0  0  0  0  0  0  0  0  0  0
   12.5342   18.0935   24.1117 H   0  0  0  0  0  0  0  0  0  0  0  0
   13.9353   16.9898   24.2751 H   0  0  0  0  0  0  0  0  0  0  0  0
   12.3022   16.4381   24.7321 H   0  0  0  0  0  0  0  0  0  0  0  0
   11.4371   11.1657   21.7232 H   0  0  0  0  0  0  0  0  0  0  0  0
   11.6593   11.2762   23.4697 H   0  0  0  0  0  0  0  0  0  0  0  0
    6.1962    9.0738   26.1787 H   0  0  0  0  0  0  0  0  0  0  0  0
    9.8358   13.2109   22.2234 H   0  0  0  0  0  0  0  0  0  0  0  0
  1  6  2  0  0  0  0
  1  7  1  0  0  0  0
  2  7  1  0  0  0  0
  2  9  2  0  0  0  0
  3  8  2  0  0  0  0
  3 10  1  0  0  0  0
  4 11  2  0  0  0  0
  4 12  1  0  0  0  0
  5  9  1  0  0  0  0
  5 16  2  0  0  0  0
  6 17  1  0  0  0  0
  7 13  2  0  0  0  0
  8 11  1  0  0  0  0
  8 15  1  0  0  0  0
  9 18  1  0  0  0  0
 10 12  2  0  0  0  0
 10 19  1  0  0  0  0
 11 20  1  0  0  0  0
 12 21  1  0  0  0  0
 13 16  1  0  0  0  0
 13 17  1  0  0  0  0
 14 19  1  0  0  0  0
 15 18  1  0  0  0  0
  1 22  1  0  0  0  0
  2 23  1  0  0  0  0
  3 24  1  0  0  0  0
  4 25  1  0  0  0  0
  5 26  1  0  0  0  0
  6 27  1  0  0  0  0
 14 28  1  0  0  0  0
 14 29  1  0  0  0  0
 14 30  1  0  0  0  0
 15 31  1  0  0  0  0
 15 32  1  0  0  0  0
 17 33  1  0  0  0  0
 18 34  1  0  0  0  0
M  END
> <idnumber>
Z6795733986

> <heavy_atoms>
21

> <LogS>
-4.667

> <LogP>
3.828

> <rotating_bonds>
4

> <PSA>
49.94

> <hb_acceptors>
3

> <hb_donors>
2

> <Collection>
Advanced

> <link>
https://www.enaminestore.com/catalog/Z6795733986

> <ROCS_ShapeQuery>
_x1140_x0812_0A_x1140_0A_x1097_0A_x0365_0A_x1097_0A_x0310_0A

> <ROCS_TanimotoCombo>
0.648 

> <ROCS_ShapeTanimoto>
0.234 

> <ROCS_ColorTanimoto>
0.414 

> <ROCS_RefTversky>
0.216 

> <ROCS_RefColorTversky>
0.553 

> <ROCS_RefTverskyCombo>
0.770 

> <ROCS_FitTversky>
1.532 

> <ROCS_FitColorTversky>
0.622 

> <ROCS_FitTverskyCombo>
2.154 

> <ROCS_ColorScore>
-4.400

> <ROCS_Overlap>
2220.108

> <ROCS_Rank>
143                 

$$$$
untitled-dbase-94196_27
  -OEChem-02092421083D

 31 32  0     0  0  0  0  0  0999 V2000
    8.3517   12.3509   24.0640 C   0  0  0  0  0  0  0  0  0  0  0  0
    7.3190   11.9083   24.8832 C   0  0  0  0  0  0  0  0  0  0  0  0
    9.0935   10.0995   23.8706 C   0  0  0  0  0  0  0  0  0  0  0  0
   12.1103   15.1284   23.0587 C   0  0  0  0  0  0  0  0  0  0  0  0
    9.2601   11.4357   23.5440 C   0  0  0  0  0  0  0  0  0  0  0  0
   12.8296   14.1506   22.4040 C   0  0  0  0  0  0  0  0  0  0  0  0
    7.2392   10.5509   25.1496 C   0  0  0  0  0  0  0  0  0  0  0  0
   13.3341   16.4212   21.7777 C   0  0  0  0  0  0  0  0  0  0  0  0
   10.3635   11.8725   22.6740 C   0  0  0  0  0  0  0  0  0  0  0  0
   13.9020   17.6337   21.1483 C   0  0  0  0  0  0  0  0  0  0  0  0
   11.7097   12.1585   24.7185 C   0  0  0  0  0  0  0  0  0  0  0  0
   12.7725   12.6570   22.5457 C   0  0  0  0  0  0  0  0  0  0  0  0
    8.1029    9.6319   24.6628 N   0  0  0  0  0  0  0  0  0  0  0  0
   12.3985   16.4311   22.7011 N   0  0  0  0  0  0  0  0  0  0  0  0
   11.5800   12.2216   23.2695 N   0  0  0  0  0  0  0  0  0  0  0  0
   10.1317   11.8853   21.4656 O   0  0  0  0  0  0  0  0  0  0  0  0
    6.2302   10.0903   25.9543 O   0  0  0  0  0  0  0  0  0  0  0  0
   13.9124   14.8802   21.2920 S   0  0  0  0  0  0  0  0  0  0  0  0
    8.4395   13.4101   23.8373 H   0  0  0  0  0  0  0  0  0  0  0  0
    6.6024   12.6095   25.2966 H   0  0  0  0  0  0  0  0  0  0  0  0
    9.7706    9.3383   23.4950 H   0  0  0  0  0  0  0  0  0  0  0  0
   11.3565   14.9467   23.8133 H   0  0  0  0  0  0  0  0  0  0  0  0
   14.7752   17.9978   21.7118 H   0  0  0  0  0  0  0  0  0  0  0  0
   14.2237   17.4454   20.1111 H   0  0  0  0  0  0  0  0  0  0  0  0
   13.1664   18.4530   21.0982 H   0  0  0  0  0  0  0  0  0  0  0  0
   12.0598   11.1580   25.0126 H   0  0  0  0  0  0  0  0  0  0  0  0
   12.4349   12.9141   25.0548 H   0  0  0  0  0  0  0  0  0  0  0  0
   10.7323   12.3560   25.1829 H   0  0  0  0  0  0  0  0  0  0  0  0
   12.7642   12.1758   21.5616 H   0  0  0  0  0  0  0  0  0  0  0  0
   13.6478   12.2797   23.0849 H   0  0  0  0  0  0  0  0  0  0  0  0
    5.6778   10.8304   26.2424 H   0  0  0  0  0  0  0  0  0  0  0  0
  1  2  2  0  0  0  0
  1  5  1  0  0  0  0
  2  7  1  0  0  0  0
  3  5  2  0  0  0  0
  3 13  1  0  0  0  0
  4  6  2  0  0  0  0
  4 14  1  0  0  0  0
  5  9  1  0  0  0  0
  6 12  1  0  0  0  0
  6 18  1  0  0  0  0
  7 13  2  0  0  0  0
  7 17  1  0  0  0  0
  8 10  1  0  0  0  0
  8 14  2  0  0  0  0
  8 18  1  0  0  0  0
  9 15  1  0  0  0  0
  9 16  2  0  0  0  0
 11 15  1  0  0  0  0
 12 15  1  0  0  0  0
  1 19  1  0  0  0  0
  2 20  1  0  0  0  0
  3 21  1  0  0  0  0
  4 22  1  0  0  0  0
 10 23  1  0  0  0  0
 10 24  1  0  0  0  0
 10 25  1  0  0  0  0
 11 26  1  0  0  0  0
 11 27  1  0  0  0  0
 11 28  1  0  0  0  0
 12 29  1  0  0  0  0
 12 30  1  0  0  0  0
 17 31  1  0  0  0  0
M  END
> <idnumber>
Z512785064

> <heavy_atoms>
18

> <LogS>
-1.563

> <LogP>
0.906

> <rotating_bonds>
3

> <PSA>
66.32

> <hb_acceptors>
4

> <hb_donors>
1

> <Collection>
HTS

> <link>
https://www.enaminestore.com/catalog/Z512785064

> <ROCS_ShapeQuery>
_x1140_x0812_0A_x1140_0A_x1097_0A_x0365_0A_x1097_0A_x0310_0A

> <ROCS_TanimotoCombo>
0.648 

> <ROCS_ShapeTanimoto>
0.229 

> <ROCS_ColorTanimoto>
0.418 

> <ROCS_RefTversky>
0.210 

> <ROCS_RefColorTversky>
0.557 

> <ROCS_RefTverskyCombo>
0.767 

> <ROCS_FitTversky>
1.673 

> <ROCS_FitColorTversky>
0.627 

> <ROCS_FitTverskyCombo>
2.300 

> <ROCS_ColorScore>
-4.428

> <ROCS_Overlap>
2153.911

> <ROCS_Rank>
144                 

$$$$
untitled-dbase-174277_38
  -OEChem-02092421083D

 31 32  0     0  0  0  0  0  0999 V2000
   11.0786   18.0115   21.8010 C   0  0  0  0  0  0  0  0  0  0  0  0
    8.0033   12.4106   23.8971 C   0  0  0  0  0  0  0  0  0  0  0  0
   10.2909   17.1385   21.0590 C   0  0  0  0  0  0  0  0  0  0  0  0
    7.0672   11.8906   24.7840 C   0  0  0  0  0  0  0  0  0  0  0  0
   12.0608   17.4678   22.6131 C   0  0  0  0  0  0  0  0  0  0  0  0
    9.0045   11.5892   23.3910 C   0  0  0  0  0  0  0  0  0  0  0  0
   10.5064   15.7679   21.1504 C   0  0  0  0  0  0  0  0  0  0  0  0
    9.0257   10.2654   23.7997 C   0  0  0  0  0  0  0  0  0  0  0  0
   11.5143   15.3247   21.9915 C   0  0  0  0  0  0  0  0  0  0  0  0
    7.1749   10.5533   25.1302 C   0  0  0  0  0  0  0  0  0  0  0  0
    9.9864   12.1321   22.4648 C   0  0  0  0  0  0  0  0  0  0  0  0
   10.0795    9.3356   23.2925 C   0  0  0  0  0  0  0  0  0  0  0  0
   11.7766   13.8518   22.1184 C   0  0  0  0  0  0  0  0  0  0  0  0
   12.2998   16.1422   22.7279 N   0  0  0  0  0  0  0  0  0  0  0  0
    8.1335    9.7244   24.6593 N   0  0  0  0  0  0  0  0  0  0  0  0
   10.7758   13.1918   22.9256 N   0  0  0  0  0  0  0  0  0  0  0  0
   10.0881   11.6739   21.3133 O   0  0  0  0  0  0  0  0  0  0  0  0
    6.2675   10.0189   26.0069 O   0  0  0  0  0  0  0  0  0  0  0  0
    9.7576   14.9124   20.4439 F   0  0  0  0  0  0  0  0  0  0  0  0
   10.9286   19.0836   21.7453 H   0  0  0  0  0  0  0  0  0  0  0  0
    7.9422   13.4563   23.6072 H   0  0  0  0  0  0  0  0  0  0  0  0
    9.5105   17.5251   20.4108 H   0  0  0  0  0  0  0  0  0  0  0  0
    6.2804   12.5186   25.1875 H   0  0  0  0  0  0  0  0  0  0  0  0
   12.7021   18.1055   23.2123 H   0  0  0  0  0  0  0  0  0  0  0  0
   10.9521    9.3537   23.9553 H   0  0  0  0  0  0  0  0  0  0  0  0
    9.7048    8.3065   23.2349 H   0  0  0  0  0  0  0  0  0  0  0  0
   10.4013    9.6158   22.2820 H   0  0  0  0  0  0  0  0  0  0  0  0
   11.7832   13.3745   21.1325 H   0  0  0  0  0  0  0  0  0  0  0  0
   12.7533   13.6647   22.5770 H   0  0  0  0  0  0  0  0  0  0  0  0
   10.6083   13.5690   23.8527 H   0  0  0  0  0  0  0  0  0  0  0  0
    5.6358   10.6991   26.2789 H   0  0  0  0  0  0  0  0  0  0  0  0
  1  3  2  0  0  0  0
  1  5  1  0  0  0  0
  2  4  2  0  0  0  0
  2  6  1  0  0  0  0
  3  7  1  0  0  0  0
  4 10  1  0  0  0  0
  5 14  2  0  0  0  0
  6  8  2  0  0  0  0
  6 11  1  0  0  0  0
  7  9  2  0  0  0  0
  7 19  1  0  0  0  0
  8 12  1  0  0  0  0
  8 15  1  0  0  0  0
  9 13  1  0  0  0  0
  9 14  1  0  0  0  0
 10 15  2  0  0  0  0
 10 18  1  0  0  0  0
 11 16  1  0  0  0  0
 11 17  2  0  0  0  0
 13 16  1  0  0  0  0
  1 20  1  0  0  0  0
  2 21  1  0  0  0  0
  3 22  1  0  0  0  0
  4 23  1  0  0  0  0
  5 24  1  0  0  0  0
 12 25  1  0  0  0  0
 12 26  1  0  0  0  0
 12 27  1  0  0  0  0
 13 28  1  0  0  0  0
 13 29  1  0  0  0  0
 16 30  1  0  0  0  0
 18 31  1  0  0  0  0
M  END
> <idnumber>
Z1499268248

> <heavy_atoms>
19

> <LogS>
-1.96

> <LogP>
1.304

> <rotating_bonds>
3

> <PSA>
75.11

> <hb_acceptors>
4

> <hb_donors>
2

> <Collection>
Legacy

> <link>
https://www.enaminestore.com/catalog/Z1499268248

> <ROCS_ShapeQuery>
_x1140_x0812_0A_x1140_0A_x1097_0A_x0365_0A_x1097_0A_x0310_0A

> <ROCS_TanimotoCombo>
0.648 

> <ROCS_ShapeTanimoto>
0.241 

> <ROCS_ColorTanimoto>
0.406 

> <ROCS_RefTversky>
0.220 

> <ROCS_RefColorTversky>
0.578 

> <ROCS_RefTverskyCombo>
0.798 

> <ROCS_FitTversky>
1.668 

> <ROCS_FitColorTversky>
0.578 

> <ROCS_FitTverskyCombo>
2.246 

> <ROCS_ColorScore>
-4.625

> <ROCS_Overlap>
2259.500

> <ROCS_Rank>
145                 

$$$$
untitled-dbase-1133228_4
  -OEChem-02092421083D

 38 40  0     0  0  0  0  0  0999 V2000
   12.0448   12.3216   21.1803 C   0  0  0  0  0  0  0  0  0  0  0  0
   10.9854   11.7588   21.8920 C   0  0  0  0  0  0  0  0  0  0  0  0
   12.6368   13.5024   21.6284 C   0  0  0  0  0  0  0  0  0  0  0  0
    8.5472   12.6020   24.5155 C   0  0  0  0  0  0  0  0  0  0  0  0
   11.1100   13.5577   23.5000 C   0  0  0  0  0  0  0  0  0  0  0  0
    9.2146   10.4210   23.7878 C   0  0  0  0  0  0  0  0  0  0  0  0
    5.7278   11.2839   26.4270 C   0  0  0  0  0  0  0  0  0  0  0  0
    7.4998   11.9762   25.2107 C   0  0  0  0  0  0  0  0  0  0  0  0
   10.5180   12.3768   23.0518 C   0  0  0  0  0  0  0  0  0  0  0  0
    9.4203   11.7941   23.7893 C   0  0  0  0  0  0  0  0  0  0  0  0
   12.1694   14.1205   22.7883 C   0  0  0  0  0  0  0  0  0  0  0  0
    6.4292   12.4051   26.0391 C   0  0  0  0  0  0  0  0  0  0  0  0
    7.4109   10.5900   25.1226 C   0  0  0  0  0  0  0  0  0  0  0  0
   12.7861   15.3525   23.2540 C   0  0  0  0  0  0  0  0  0  0  0  0
    6.1150   13.7965   26.4207 C   0  0  0  0  0  0  0  0  0  0  0  0
   14.5540   16.4634   24.6402 C   0  0  0  0  0  0  0  0  0  0  0  0
   14.3956   13.9990   24.6256 C   0  0  0  0  0  0  0  0  0  0  0  0
    8.2251    9.7650   24.4375 N   0  0  0  0  0  0  0  0  0  0  0  0
    6.3321   10.1889   25.8658 N   0  0  0  0  0  0  0  0  0  0  0  0
   13.8743   15.2757   24.1425 N   0  0  0  0  0  0  0  0  0  0  0  0
   12.3161   16.4137   22.8226 O   0  0  0  0  0  0  0  0  0  0  0  0
   12.4086   11.8404   20.2771 H   0  0  0  0  0  0  0  0  0  0  0  0
   10.5343   10.8380   21.5297 H   0  0  0  0  0  0  0  0  0  0  0  0
   13.4613   13.9320   21.0654 H   0  0  0  0  0  0  0  0  0  0  0  0
    8.6676   13.6810   24.5462 H   0  0  0  0  0  0  0  0  0  0  0  0
   10.7472   14.0428   24.4042 H   0  0  0  0  0  0  0  0  0  0  0  0
    9.8788    9.7637   23.2304 H   0  0  0  0  0  0  0  0  0  0  0  0
    4.8531   11.1658   27.0519 H   0  0  0  0  0  0  0  0  0  0  0  0
    6.6336   14.0796   27.3511 H   0  0  0  0  0  0  0  0  0  0  0  0
    6.4113   14.5164   25.6391 H   0  0  0  0  0  0  0  0  0  0  0  0
    5.0337   13.9471   26.5800 H   0  0  0  0  0  0  0  0  0  0  0  0
   14.0716   16.8001   25.5697 H   0  0  0  0  0  0  0  0  0  0  0  0
   15.6091   16.2251   24.8404 H   0  0  0  0  0  0  0  0  0  0  0  0
   14.4952   17.2624   23.8864 H   0  0  0  0  0  0  0  0  0  0  0  0
   15.1804   13.6409   23.9430 H   0  0  0  0  0  0  0  0  0  0  0  0
   14.8184   14.1330   25.6322 H   0  0  0  0  0  0  0  0  0  0  0  0
   13.5802   13.2617   24.6656 H   0  0  0  0  0  0  0  0  0  0  0  0
    6.0292    9.2319   25.9821 H   0  0  0  0  0  0  0  0  0  0  0  0
  1  2  1  0  0  0  0
  1  3  2  0  0  0  0
  2  9  2  0  0  0  0
  3 11  1  0  0  0  0
  4  8  1  0  0  0  0
  4 10  2  0  0  0  0
  5  9  1  0  0  0  0
  5 11  2  0  0  0  0
  6 10  1  0  0  0  0
  6 18  2  0  0  0  0
  7 12  2  0  0  0  0
  7 19  1  0  0  0  0
  8 12  1  0  0  0  0
  8 13  2  0  0  0  0
  9 10  1  0  0  0  0
 11 14  1  0  0  0  0
 12 15  1  0  0  0  0
 13 18  1  0  0  0  0
 13 19  1  0  0  0  0
 14 20  1  0  0  0  0
 14 21  2  0  0  0  0
 16 20  1  0  0  0  0
 17 20  1  0  0  0  0
  1 22  1  0  0  0  0
  2 23  1  0  0  0  0
  3 24  1  0  0  0  0
  4 25  1  0  0  0  0
  5 26  1  0  0  0  0
  6 27  1  0  0  0  0
  7 28  1  0  0  0  0
 15 29  1  0  0  0  0
 15 30  1  0  0  0  0
 15 31  1  0  0  0  0
 16 32  1  0  0  0  0
 16 33  1  0  0  0  0
 16 34  1  0  0  0  0
 17 35  1  0  0  0  0
 17 36  1  0  0  0  0
 17 37  1  0  0  0  0
 19 38  1  0  0  0  0
M  END
> <idnumber>
Z5865375750

> <heavy_atoms>
21

> <LogS>
-4.836

> <LogP>
2.106

> <rotating_bonds>
2

> <PSA>
48.99

> <hb_acceptors>
2

> <hb_donors>
1

> <Collection>
Advanced

> <link>
https://www.enaminestore.com/catalog/Z5865375750

> <ROCS_ShapeQuery>
_x1140_x0812_0A_x1140_0A_x1097_0A_x0365_0A_x1097_0A_x0310_0A

> <ROCS_TanimotoCombo>
0.647 

> <ROCS_ShapeTanimoto>
0.267 

> <ROCS_ColorTanimoto>
0.380 

> <ROCS_RefTversky>
0.241 

> <ROCS_RefColorTversky>
0.489 

> <ROCS_RefTverskyCombo>
0.730 

> <ROCS_FitTversky>
1.693 

> <ROCS_FitColorTversky>
0.631 

> <ROCS_FitTverskyCombo>
2.324 

> <ROCS_ColorScore>
-3.864

> <ROCS_Overlap>
2469.741

> <ROCS_Rank>
146                 

$$$$
untitled-dbase-1026537_49
  -OEChem-02092421083D

 41 43  0     1  0  0  0  0  0999 V2000
    9.0993   11.4713   23.4417 C   0  0  0  0  0  0  0  0  0  0  0  0
    8.1072   12.0634   24.1838 C   0  0  0  0  0  0  0  0  0  0  0  0
    9.0999   10.1336   23.8647 C   0  0  0  0  0  0  0  0  0  0  0  0
    7.5694   13.3782   24.2711 C   0  0  0  0  0  0  0  0  0  0  0  0
    6.5655   13.6294   25.1319 C   0  0  0  0  0  0  0  0  0  0  0  0
    6.0155   12.5856   25.9781 C   0  0  0  0  0  0  0  0  0  0  0  0
    6.5199   11.3443   25.8987 C   0  0  0  0  0  0  0  0  0  0  0  0
    9.9505   12.1489   22.4301 C   0  0  0  0  0  0  0  0  0  0  0  0
   12.2924   14.9264   22.9593 C   0  0  0  0  0  0  0  0  0  0  0  0
   14.0498   14.1210   26.0873 C   0  0  0  0  0  0  0  0  0  0  0  0
   14.1737   12.8004   25.3378 C   0  0  0  0  0  0  0  0  0  0  0  0
   13.7328   15.1111   24.9771 C   0  0  0  0  0  0  0  0  0  0  0  0
   13.0846   12.9051   24.2795 C   0  0  0  0  0  0  0  0  0  0  0  0
   10.8029   14.7389   20.9805 C   0  0  0  0  0  0  0  0  0  0  0  0
   11.5788   13.9777   22.0298 C   0  0  2  0  0  0  0  0  0  0  0  0
    8.1859    9.8789   24.8019 N   0  0  0  0  0  0  0  0  0  0  0  0
    7.5637   11.0715   25.0072 N   0  0  0  0  0  0  0  0  0  0  0  0
   12.9870   14.3339   23.9981 N   0  0  0  0  0  0  0  0  0  0  0  0
    9.9637    9.2214   23.3453 N   0  0  0  0  0  0  0  0  0  0  0  0
   10.7265   13.2112   22.8881 N   0  0  0  0  0  0  0  0  0  0  0  0
    9.9168   11.7655   21.2638 O   0  0  0  0  0  0  0  0  0  0  0  0
   12.2411   16.1427   22.7695 O   0  0  0  0  0  0  0  0  0  0  0  0
    7.9695   14.1685   23.6452 H   0  0  0  0  0  0  0  0  0  0  0  0
    6.1406   14.6241   25.2142 H   0  0  0  0  0  0  0  0  0  0  0  0
    5.2081   12.8310   26.6574 H   0  0  0  0  0  0  0  0  0  0  0  0
    6.1537   10.5229   26.5023 H   0  0  0  0  0  0  0  0  0  0  0  0
   13.2204   14.0735   26.8026 H   0  0  0  0  0  0  0  0  0  0  0  0
   14.9633   14.3788   26.6302 H   0  0  0  0  0  0  0  0  0  0  0  0
   15.1589   12.7269   24.8624 H   0  0  0  0  0  0  0  0  0  0  0  0
   14.0384   11.9356   25.9932 H   0  0  0  0  0  0  0  0  0  0  0  0
   13.1494   15.9706   25.3202 H   0  0  0  0  0  0  0  0  0  0  0  0
   14.6439   15.4745   24.4891 H   0  0  0  0  0  0  0  0  0  0  0  0
   13.3209   12.3392   23.3744 H   0  0  0  0  0  0  0  0  0  0  0  0
   12.1158   12.5733   24.6682 H   0  0  0  0  0  0  0  0  0  0  0  0
   10.0607   15.4096   21.4287 H   0  0  0  0  0  0  0  0  0  0  0  0
   11.4804   15.3516   20.3763 H   0  0  0  0  0  0  0  0  0  0  0  0
   10.2691   14.0548   20.3125 H   0  0  0  0  0  0  0  0  0  0  0  0
   12.3162   13.3113   21.5847 H   0  0  0  0  0  0  0  0  0  0  0  0
   10.6154    9.4648   22.5914 H   0  0  0  0  0  0  0  0  0  0  0  0
    9.9331    8.2335   23.6198 H   0  0  0  0  0  0  0  0  0  0  0  0
   10.6467   13.5043   23.8628 H   0  0  0  0  0  0  0  0  0  0  0  0
  1  2  2  0  0  0  0
  1  3  1  0  0  0  0
  1  8  1  0  0  0  0
  2  4  1  0  0  0  0
  2 17  1  0  0  0  0
  3 16  2  0  0  0  0
  3 19  1  0  0  0  0
  4  5  2  0  0  0  0
  5  6  1  0  0  0  0
  6  7  2  0  0  0  0
  7 17  1  0  0  0  0
  8 20  1  0  0  0  0
  8 21  2  0  0  0  0
  9 15  1  0  0  0  0
  9 18  1  0  0  0  0
  9 22  2  0  0  0  0
 10 11  1  0  0  0  0
 10 12  1  0  0  0  0
 11 13  1  0  0  0  0
 12 18  1  0  0  0  0
 13 18  1  0  0  0  0
 14 15  1  6  0  0  0
 15 20  1  0  0  0  0
 16 17  1  0  0  0  0
  4 23  1  0  0  0  0
  5 24  1  0  0  0  0
  6 25  1  0  0  0  0
  7 26  1  0  0  0  0
 10 27  1  0  0  0  0
 10 28  1  0  0  0  0
 11 29  1  0  0  0  0
 11 30  1  0  0  0  0
 12 31  1  0  0  0  0
 12 32  1  0  0  0  0
 13 33  1  0  0  0  0
 13 34  1  0  0  0  0
 14 35  1  0  0  0  0
 14 36  1  0  0  0  0
 14 37  1  0  0  0  0
 15 38  1  0  0  0  0
 19 39  1  0  0  0  0
 19 40  1  0  0  0  0
 20 41  1  0  0  0  0
M  END
> <idnumber>
Z3354020541

> <heavy_atoms>
22

> <LogS>
-3.011

> <LogP>
0.336

> <rotating_bonds>
3

> <PSA>
92.73

> <hb_acceptors>
4

> <hb_donors>
2

> <Collection>
Advanced

> <link>
https://www.enaminestore.com/catalog/Z3354020541

> <ROCS_ShapeQuery>
_x1140_x0812_0A_x1140_0A_x1097_0A_x0365_0A_x1097_0A_x0310_0A

> <ROCS_TanimotoCombo>
0.647 

> <ROCS_ShapeTanimoto>
0.278 

> <ROCS_ColorTanimoto>
0.369 

> <ROCS_RefTversky>
0.249 

> <ROCS_RefColorTversky>
0.570 

> <ROCS_RefTverskyCombo>
0.819 

> <ROCS_FitTversky>
1.712 

> <ROCS_FitColorTversky>
0.511 

> <ROCS_FitTverskyCombo>
2.223 

> <ROCS_ColorScore>
-4.588

> <ROCS_Overlap>
2561.828

> <ROCS_Rank>
147                 

$$$$
untitled-dbase-1124489_57
  -OEChem-02092421083D

 29 30  0     0  0  0  0  0  0999 V2000
    7.4609   11.9807   25.1924 C   0  0  0  0  0  0  0  0  0  0  0  0
    7.3911   10.6180   25.4332 C   0  0  0  0  0  0  0  0  0  0  0  0
    9.1418   11.5076   23.5386 C   0  0  0  0  0  0  0  0  0  0  0  0
    8.3554   12.4258   24.2254 C   0  0  0  0  0  0  0  0  0  0  0  0
    8.9970   10.1661   23.8536 C   0  0  0  0  0  0  0  0  0  0  0  0
   12.5760   14.7282   22.5116 C   0  0  0  0  0  0  0  0  0  0  0  0
   13.7994   16.5411   23.3971 C   0  0  0  0  0  0  0  0  0  0  0  0
   10.0854   11.9581   22.5211 C   0  0  0  0  0  0  0  0  0  0  0  0
   12.0825   13.3896   22.0439 C   0  0  0  0  0  0  0  0  0  0  0  0
    8.4487   13.8905   23.9478 C   0  0  0  0  0  0  0  0  0  0  0  0
    8.1388    9.6959   24.7865 N   0  0  0  0  0  0  0  0  0  0  0  0
   11.9102   15.8593   22.4155 N   0  0  0  0  0  0  0  0  0  0  0  0
   12.6282   16.9228   22.9340 N   0  0  0  0  0  0  0  0  0  0  0  0
    9.7944    9.2219   23.1591 N   0  0  0  0  0  0  0  0  0  0  0  0
   11.0891   12.8374   22.9367 N   0  0  0  0  0  0  0  0  0  0  0  0
    9.9668   11.5792   21.3448 O   0  0  0  0  0  0  0  0  0  0  0  0
    7.6062   14.6451   24.7121 F   0  0  0  0  0  0  0  0  0  0  0  0
    9.6923   14.4083   24.1681 F   0  0  0  0  0  0  0  0  0  0  0  0
    8.1460   14.1976   22.6537 F   0  0  0  0  0  0  0  0  0  0  0  0
   14.1229   14.8642   23.2399 S   0  0  0  0  0  0  0  0  0  0  0  0
   14.9231   17.6688   24.1124 S   0  0  0  0  0  0  0  0  0  0  0  0
    6.8332   12.6708   25.7458 H   0  0  0  0  0  0  0  0  0  0  0  0
    6.7094   10.2198   26.1774 H   0  0  0  0  0  0  0  0  0  0  0  0
   11.6334   13.4701   21.0480 H   0  0  0  0  0  0  0  0  0  0  0  0
   12.9052   12.6705   21.9726 H   0  0  0  0  0  0  0  0  0  0  0  0
   10.3987    9.5433   22.4350 H   0  0  0  0  0  0  0  0  0  0  0  0
    9.6628    8.2520   23.3460 H   0  0  0  0  0  0  0  0  0  0  0  0
   11.1002   13.1631   23.8977 H   0  0  0  0  0  0  0  0  0  0  0  0
   15.9179   16.8108   24.4090 H   0  0  0  0  0  0  0  0  0  0  0  0
  1  2  1  0  0  0  0
  1  4  2  0  0  0  0
  2 11  2  0  0  0  0
  3  4  1  0  0  0  0
  3  5  2  0  0  0  0
  3  8  1  0  0  0  0
  4 10  1  0  0  0  0
  5 11  1  0  0  0  0
  5 14  1  0  0  0  0
  6  9  1  0  0  0  0
  6 12  2  0  0  0  0
  6 20  1  0  0  0  0
  7 13  2  0  0  0  0
  7 20  1  0  0  0  0
  7 21  1  0  0  0  0
  8 15  1  0  0  0  0
  8 16  2  0  0  0  0
  9 15  1  0  0  0  0
 10 17  1  0  0  0  0
 10 18  1  0  0  0  0
 10 19  1  0  0  0  0
 12 13  1  0  0  0  0
  1 22  1  0  0  0  0
  2 23  1  0  0  0  0
  9 24  1  0  0  0  0
  9 25  1  0  0  0  0
 14 26  1  0  0  0  0
 14 27  1  0  0  0  0
 15 28  1  0  0  0  0
 21 29  1  0  0  0  0
M  END
> <idnumber>
Z5370419413

> <heavy_atoms>
21

> <LogS>
-4.076

> <LogP>
0.531

> <rotating_bonds>
4

> <PSA>
93.79

> <hb_acceptors>
5

> <hb_donors>
3

> <Collection>
Advanced

> <link>
https://www.enaminestore.com/catalog/Z5370419413

> <ROCS_ShapeQuery>
_x1140_x0812_0A_x1140_0A_x1097_0A_x0365_0A_x1097_0A_x0310_0A

> <ROCS_TanimotoCombo>
0.647 

> <ROCS_ShapeTanimoto>
0.255 

> <ROCS_ColorTanimoto>
0.392 

> <ROCS_RefTversky>
0.231 

> <ROCS_RefColorTversky>
0.635 

> <ROCS_RefTverskyCombo>
0.866 

> <ROCS_FitTversky>
1.663 

> <ROCS_FitColorTversky>
0.506 

> <ROCS_FitTverskyCombo>
2.169 

> <ROCS_ColorScore>
-5.153

> <ROCS_Overlap>
2375.262

> <ROCS_Rank>
148                 

$$$$
untitled-dbase-1161578_70
  -OEChem-02092421083D

 29 30  0     0  0  0  0  0  0999 V2000
   12.1095   16.2244   21.7403 C   0  0  0  0  0  0  0  0  0  0  0  0
    6.7629   12.6107   25.5543 C   0  0  0  0  0  0  0  0  0  0  0  0
    8.4302   12.2227   23.5755 C   0  0  0  0  0  0  0  0  0  0  0  0
    8.8265    9.8764   23.3118 C   0  0  0  0  0  0  0  0  0  0  0  0
    6.1498   11.6921   26.3788 C   0  0  0  0  0  0  0  0  0  0  0  0
    7.5752   11.8906   24.6388 C   0  0  0  0  0  0  0  0  0  0  0  0
    9.0664   11.1812   22.9024 C   0  0  0  0  0  0  0  0  0  0  0  0
    7.4258   10.5407   24.9429 C   0  0  0  0  0  0  0  0  0  0  0  0
   11.8029   15.7651   20.3789 C   0  0  0  0  0  0  0  0  0  0  0  0
   10.6062   14.8134   20.3443 C   0  0  0  0  0  0  0  0  0  0  0  0
   10.8308   13.5451   21.1700 C   0  0  0  0  0  0  0  0  0  0  0  0
    9.6376   12.6029   21.0836 C   0  0  0  0  0  0  0  0  0  0  0  0
   12.3534   16.5886   22.8147 N   0  0  0  0  0  0  0  0  0  0  0  0
    8.0151    9.4985   24.3268 N   0  0  0  0  0  0  0  0  0  0  0  0
    6.5593   10.4401   25.9994 N   0  0  0  0  0  0  0  0  0  0  0  0
    9.9121   11.4420   21.8556 O   0  0  0  0  0  0  0  0  0  0  0  0
    6.6370   13.6834   25.6087 H   0  0  0  0  0  0  0  0  0  0  0  0
    8.5911   13.2564   23.2861 H   0  0  0  0  0  0  0  0  0  0  0  0
    9.3115    9.0480   22.8012 H   0  0  0  0  0  0  0  0  0  0  0  0
    5.4597   11.8185   27.2010 H   0  0  0  0  0  0  0  0  0  0  0  0
   12.6792   15.2434   19.9765 H   0  0  0  0  0  0  0  0  0  0  0  0
   11.6187   16.6252   19.7253 H   0  0  0  0  0  0  0  0  0  0  0  0
    9.7317   15.3440   20.7412 H   0  0  0  0  0  0  0  0  0  0  0  0
   10.3713   14.5423   19.3072 H   0  0  0  0  0  0  0  0  0  0  0  0
   11.0124   13.8041   22.2207 H   0  0  0  0  0  0  0  0  0  0  0  0
   11.7297   13.0155   20.8320 H   0  0  0  0  0  0  0  0  0  0  0  0
    9.4556   12.2975   20.0483 H   0  0  0  0  0  0  0  0  0  0  0  0
    8.7345   13.0784   21.4792 H   0  0  0  0  0  0  0  0  0  0  0  0
    6.2678    9.5750   26.4328 H   0  0  0  0  0  0  0  0  0  0  0  0
  1  9  1  0  0  0  0
  1 13  3  0  0  0  0
  2  5  2  0  0  0  0
  2  6  1  0  0  0  0
  3  6  1  0  0  0  0
  3  7  2  0  0  0  0
  4  7  1  0  0  0  0
  4 14  2  0  0  0  0
  5 15  1  0  0  0  0
  6  8  2  0  0  0  0
  7 16  1  0  0  0  0
  8 14  1  0  0  0  0
  8 15  1  0  0  0  0
  9 10  1  0  0  0  0
 10 11  1  0  0  0  0
 11 12  1  0  0  0  0
 12 16  1  0  0  0  0
  2 17  1  0  0  0  0
  3 18  1  0  0  0  0
  4 19  1  0  0  0  0
  5 20  1  0  0  0  0
  9 21  1  0  0  0  0
  9 22  1  0  0  0  0
 10 23  1  0  0  0  0
 10 24  1  0  0  0  0
 11 25  1  0  0  0  0
 11 26  1  0  0  0  0
 12 27  1  0  0  0  0
 12 28  1  0  0  0  0
 15 29  1  0  0  0  0
M  END
> <idnumber>
Z7993685784

> <heavy_atoms>
16

> <LogS>
-2.997

> <LogP>
1.565

> <rotating_bonds>
5

> <PSA>
61.7

> <hb_acceptors>
3

> <hb_donors>
1

> <Collection>
Advanced

> <link>
https://www.enaminestore.com/catalog/Z7993685784

> <ROCS_ShapeQuery>
_x1140_x0812_0A_x1140_0A_x1097_0A_x0365_0A_x1097_0A_x0310_0A

> <ROCS_TanimotoCombo>
0.647 

> <ROCS_ShapeTanimoto>
0.227 

> <ROCS_ColorTanimoto>
0.420 

> <ROCS_RefTversky>
0.206 

> <ROCS_RefColorTversky>
0.525 

> <ROCS_RefTverskyCombo>
0.732 

> <ROCS_FitTversky>
1.749 

> <ROCS_FitColorTversky>
0.678 

> <ROCS_FitTverskyCombo>
2.427 

> <ROCS_ColorScore>
-4.149

> <ROCS_Overlap>
2117.569

> <ROCS_Rank>
149                 

$$$$
untitled-dbase-827105_11
  -OEChem-02092421083D

 35 37  0     0  0  0  0  0  0999 V2000
    5.7025   12.4202   26.7943 C   0  0  0  0  0  0  0  0  0  0  0  0
    5.6991   11.0708   27.1251 C   0  0  0  0  0  0  0  0  0  0  0  0
    6.5517   12.8797   25.7918 C   0  0  0  0  0  0  0  0  0  0  0  0
    6.5444   10.1844   26.4531 C   0  0  0  0  0  0  0  0  0  0  0  0
    7.4018   11.9879   25.1160 C   0  0  0  0  0  0  0  0  0  0  0  0
    9.0938   11.5178   23.4543 C   0  0  0  0  0  0  0  0  0  0  0  0
    8.2667   12.4234   24.1029 C   0  0  0  0  0  0  0  0  0  0  0  0
    7.4036   10.6165   25.4465 C   0  0  0  0  0  0  0  0  0  0  0  0
    9.0251   10.1964   23.8467 C   0  0  0  0  0  0  0  0  0  0  0  0
   10.0033   11.9367   22.3951 C   0  0  0  0  0  0  0  0  0  0  0  0
   13.7116   13.2393   23.6696 C   0  0  0  0  0  0  0  0  0  0  0  0
   13.6332   11.8889   23.0139 C   0  0  0  0  0  0  0  0  0  0  0  0
   13.3272   13.1286   22.2202 C   0  0  0  0  0  0  0  0  0  0  0  0
    8.3202   13.8662   23.6976 C   0  0  0  0  0  0  0  0  0  0  0  0
   11.9296   13.4178   21.7893 C   0  0  0  0  0  0  0  0  0  0  0  0
    8.2052    9.7353   24.8189 N   0  0  0  0  0  0  0  0  0  0  0  0
   10.9725   12.8862   22.7329 N   0  0  0  0  0  0  0  0  0  0  0  0
    9.8884   11.4725   21.2487 O   0  0  0  0  0  0  0  0  0  0  0  0
    9.8187    9.2603   23.2356 O   0  0  0  0  0  0  0  0  0  0  0  0
    5.0473   13.1118   27.3153 H   0  0  0  0  0  0  0  0  0  0  0  0
    5.0394   10.7032   27.9058 H   0  0  0  0  0  0  0  0  0  0  0  0
    6.5341   13.9406   25.5547 H   0  0  0  0  0  0  0  0  0  0  0  0
    6.5245    9.1326   26.7329 H   0  0  0  0  0  0  0  0  0  0  0  0
   12.9455   13.4937   24.3916 H   0  0  0  0  0  0  0  0  0  0  0  0
   14.6945   13.6307   23.9017 H   0  0  0  0  0  0  0  0  0  0  0  0
   14.5636   11.3747   22.8060 H   0  0  0  0  0  0  0  0  0  0  0  0
   12.8147   11.2386   23.2969 H   0  0  0  0  0  0  0  0  0  0  0  0
   14.0542   13.4454   21.4821 H   0  0  0  0  0  0  0  0  0  0  0  0
    9.0678   14.3950   24.2962 H   0  0  0  0  0  0  0  0  0  0  0  0
    8.5796   13.9647   22.6385 H   0  0  0  0  0  0  0  0  0  0  0  0
    7.3471   14.3476   23.8393 H   0  0  0  0  0  0  0  0  0  0  0  0
   11.7945   14.5070   21.7160 H   0  0  0  0  0  0  0  0  0  0  0  0
   11.7554   12.9596   20.8046 H   0  0  0  0  0  0  0  0  0  0  0  0
   10.9805   13.2782   23.6688 H   0  0  0  0  0  0  0  0  0  0  0  0
   10.3627    9.6856   22.5584 H   0  0  0  0  0  0  0  0  0  0  0  0
  1  2  1  0  0  0  0
  1  3  2  0  0  0  0
  2  4  2  0  0  0  0
  3  5  1  0  0  0  0
  4  8  1  0  0  0  0
  5  7  2  0  0  0  0
  5  8  1  0  0  0  0
  6  7  1  0  0  0  0
  6  9  2  0  0  0  0
  6 10  1  0  0  0  0
  7 14  1  0  0  0  0
  8 16  2  0  0  0  0
  9 16  1  0  0  0  0
  9 19  1  0  0  0  0
 10 17  1  0  0  0  0
 10 18  2  0  0  0  0
 11 12  1  0  0  0  0
 11 13  1  0  0  0  0
 12 13  1  0  0  0  0
 13 15  1  0  0  0  0
 15 17  1  0  0  0  0
  1 20  1  0  0  0  0
  2 21  1  0  0  0  0
  3 22  1  0  0  0  0
  4 23  1  0  0  0  0
 11 24  1  0  0  0  0
 11 25  1  0  0  0  0
 12 26  1  0  0  0  0
 12 27  1  0  0  0  0
 13 28  1  0  0  0  0
 14 29  1  0  0  0  0
 14 30  1  0  0  0  0
 14 31  1  0  0  0  0
 15 32  1  0  0  0  0
 15 33  1  0  0  0  0
 17 34  1  0  0  0  0
 19 35  1  0  0  0  0
M  END
> <idnumber>
Z1343688359

> <heavy_atoms>
19

> <LogS>
-3.618

> <LogP>
3.913

> <rotating_bonds>
3

> <PSA>
62.22

> <hb_acceptors>
3

> <hb_donors>
2

> <Collection>
Advanced

> <link>
https://www.enaminestore.com/catalog/Z1343688359

> <ROCS_ShapeQuery>
_x1140_x0812_0A_x1140_0A_x1097_0A_x0365_0A_x1097_0A_x0310_0A

> <ROCS_TanimotoCombo>
0.646 

> <ROCS_ShapeTanimoto>
0.286 

> <ROCS_ColorTanimoto>
0.360 

> <ROCS_RefTversky>
0.252 

> <ROCS_RefColorTversky>
0.500 

> <ROCS_RefTverskyCombo>
0.752 

> <ROCS_FitTversky>
1.906 

> <ROCS_FitColorTversky>
0.562 

> <ROCS_FitTverskyCombo>
2.468 

> <ROCS_ColorScore>
-3.974

> <ROCS_Overlap>
2588.043

> <ROCS_Rank>
150                 

$$$$
untitled-dbase-55643_120
  -OEChem-02092421083D

 31 31  0     0  0  0  0  0  0999 V2000
    8.0541   11.9356   25.5321 C   0  0  0  0  0  0  0  0  0  0  0  0
    8.8217   12.3563   24.4517 C   0  0  0  0  0  0  0  0  0  0  0  0
    7.6974   10.5981   25.5925 C   0  0  0  0  0  0  0  0  0  0  0  0
    9.2037   11.4396   23.4786 C   0  0  0  0  0  0  0  0  0  0  0  0
    8.7956   10.1242   23.6310 C   0  0  0  0  0  0  0  0  0  0  0  0
   10.0241   11.9162   22.3354 C   0  0  0  0  0  0  0  0  0  0  0  0
   11.6566   15.8659   22.6976 C   0  0  0  0  0  0  0  0  0  0  0  0
   13.5447   14.2797   23.1909 C   0  0  0  0  0  0  0  0  0  0  0  0
   11.0374    8.9730   22.5529 C   0  0  0  0  0  0  0  0  0  0  0  0
   11.7060   13.5787   21.5849 C   0  0  0  0  0  0  0  0  0  0  0  0
   12.5338   14.7436   22.1412 C   0  0  0  0  0  0  0  0  0  0  0  0
    8.0496    9.6783   24.6665 N   0  0  0  0  0  0  0  0  0  0  0  0
   10.8441   12.9717   22.6240 N   0  0  0  0  0  0  0  0  0  0  0  0
    9.9051   11.3692   21.2422 O   0  0  0  0  0  0  0  0  0  0  0  0
    9.2393    8.8737   22.4305 S   0  0  0  0  0  0  0  0  0  0  0  0
    7.7446   12.6323   26.3023 H   0  0  0  0  0  0  0  0  0  0  0  0
    9.1151   13.4005   24.3810 H   0  0  0  0  0  0  0  0  0  0  0  0
    7.0986   10.2199   26.4145 H   0  0  0  0  0  0  0  0  0  0  0  0
   11.0522   15.5287   23.5459 H   0  0  0  0  0  0  0  0  0  0  0  0
   12.2756   16.7010   23.0432 H   0  0  0  0  0  0  0  0  0  0  0  0
   10.9801   16.2497   21.9267 H   0  0  0  0  0  0  0  0  0  0  0  0
   13.0505   13.8472   24.0671 H   0  0  0  0  0  0  0  0  0  0  0  0
   14.1561   15.1211   23.5346 H   0  0  0  0  0  0  0  0  0  0  0  0
   14.2203   13.5257   22.7734 H   0  0  0  0  0  0  0  0  0  0  0  0
   11.4968    8.2562   21.8678 H   0  0  0  0  0  0  0  0  0  0  0  0
   11.3531    8.7432   23.5735 H   0  0  0  0  0  0  0  0  0  0  0  0
   11.3719    9.9803   22.2935 H   0  0  0  0  0  0  0  0  0  0  0  0
   11.0691   13.9168   20.7604 H   0  0  0  0  0  0  0  0  0  0  0  0
   12.3690   12.7991   21.1937 H   0  0  0  0  0  0  0  0  0  0  0  0
   13.1028   15.1619   21.3003 H   0  0  0  0  0  0  0  0  0  0  0  0
   10.8627   13.4273   23.5133 H   0  0  0  0  0  0  0  0  0  0  0  0
  1  2  2  0  0  0  0
  1  3  1  0  0  0  0
  2  4  1  0  0  0  0
  3 12  2  0  0  0  0
  4  5  2  0  0  0  0
  4  6  1  0  0  0  0
  5 12  1  0  0  0  0
  5 15  1  0  0  0  0
  6 13  1  0  0  0  0
  6 14  2  0  0  0  0
  7 11  1  0  0  0  0
  8 11  1  0  0  0  0
  9 15  1  0  0  0  0
 10 11  1  0  0  0  0
 10 13  1  0  0  0  0
  1 16  1  0  0  0  0
  2 17  1  0  0  0  0
  3 18  1  0  0  0  0
  7 19  1  0  0  0  0
  7 20  1  0  0  0  0
  7 21  1  0  0  0  0
  8 22  1  0  0  0  0
  8 23  1  0  0  0  0
  8 24  1  0  0  0  0
  9 25  1  0  0  0  0
  9 26  1  0  0  0  0
  9 27  1  0  0  0  0
 10 28  1  0  0  0  0
 10 29  1  0  0  0  0
 11 30  1  0  0  0  0
 13 31  1  0  0  0  0
M  END
> <idnumber>
Z54932396

> <heavy_atoms>
15

> <LogS>
-2.91

> <LogP>
2.011

> <rotating_bonds>
4

> <PSA>
41.99

> <hb_acceptors>
2

> <hb_donors>
1

> <Collection>
Functional

> <link>
https://www.enaminestore.com/catalog/Z54932396

> <ROCS_ShapeQuery>
_x1140_x0812_0A_x1140_0A_x1097_0A_x0365_0A_x1097_0A_x0310_0A

> <ROCS_TanimotoCombo>
0.646 

> <ROCS_ShapeTanimoto>
0.224 

> <ROCS_ColorTanimoto>
0.422 

> <ROCS_RefTversky>
0.203 

> <ROCS_RefColorTversky>
0.526 

> <ROCS_RefTverskyCombo>
0.729 

> <ROCS_FitTversky>
1.846 

> <ROCS_FitColorTversky>
0.682 

> <ROCS_FitTverskyCombo>
2.527 

> <ROCS_ColorScore>
-4.158

> <ROCS_Overlap>
2080.658

> <ROCS_Rank>
151                 

$$$$
untitled-dbase-483729_30
  -OEChem-02092421083D

 39 41  0     0  0  0  0  0  0999 V2000
    9.9229   16.8209   23.9808 C   0  0  0  0  0  0  0  0  0  0  0  0
   11.0039   17.6247   24.3252 C   0  0  0  0  0  0  0  0  0  0  0  0
    6.4931   10.0501   26.4305 C   0  0  0  0  0  0  0  0  0  0  0  0
    5.7340   10.9420   27.1923 C   0  0  0  0  0  0  0  0  0  0  0  0
   10.0748   15.8414   23.0057 C   0  0  0  0  0  0  0  0  0  0  0  0
    8.3308   12.3313   24.2119 C   0  0  0  0  0  0  0  0  0  0  0  0
    6.6942   12.7809   25.9786 C   0  0  0  0  0  0  0  0  0  0  0  0
   12.2060   17.4106   23.6702 C   0  0  0  0  0  0  0  0  0  0  0  0
    7.4576   11.8837   25.2125 C   0  0  0  0  0  0  0  0  0  0  0  0
    9.0708   11.4200   23.4726 C   0  0  0  0  0  0  0  0  0  0  0  0
    7.3606   10.4943   25.4363 C   0  0  0  0  0  0  0  0  0  0  0  0
    5.8344   12.3091   26.9663 C   0  0  0  0  0  0  0  0  0  0  0  0
   11.3184   15.7072   22.4096 C   0  0  0  0  0  0  0  0  0  0  0  0
    8.9088   10.0807   23.7639 C   0  0  0  0  0  0  0  0  0  0  0  0
    9.9754   11.8893   22.4344 C   0  0  0  0  0  0  0  0  0  0  0  0
    9.6735    9.0443   23.0065 C   0  0  0  0  0  0  0  0  0  0  0  0
   11.5195   14.6547   21.3472 C   0  0  0  0  0  0  0  0  0  0  0  0
   11.9727   13.3126   21.9167 C   0  0  0  0  0  0  0  0  0  0  0  0
   12.3917   16.4692   22.7179 N   0  0  0  0  0  0  0  0  0  0  0  0
    8.0775    9.6075   24.7204 N   0  0  0  0  0  0  0  0  0  0  0  0
   11.0092   12.7448   22.8321 N   0  0  0  0  0  0  0  0  0  0  0  0
    9.8068   11.5500   21.2500 O   0  0  0  0  0  0  0  0  0  0  0  0
    4.9023   13.4113   27.9015 Cl  0  0  0  0  0  0  0  0  0  0  0  0
    8.9639   16.9577   24.4715 H   0  0  0  0  0  0  0  0  0  0  0  0
   10.9086   18.3944   25.0824 H   0  0  0  0  0  0  0  0  0  0  0  0
    6.3968    8.9839   26.6272 H   0  0  0  0  0  0  0  0  0  0  0  0
    5.0695   10.5505   27.9584 H   0  0  0  0  0  0  0  0  0  0  0  0
    9.2393   15.2078   22.7279 H   0  0  0  0  0  0  0  0  0  0  0  0
    8.4311   13.3967   24.0115 H   0  0  0  0  0  0  0  0  0  0  0  0
    6.7755   13.8516   25.7989 H   0  0  0  0  0  0  0  0  0  0  0  0
   13.0795   18.0108   23.9024 H   0  0  0  0  0  0  0  0  0  0  0  0
   10.6285    8.8391   23.5034 H   0  0  0  0  0  0  0  0  0  0  0  0
    9.1073    8.1077   22.9357 H   0  0  0  0  0  0  0  0  0  0  0  0
    9.8764    9.3737   21.9801 H   0  0  0  0  0  0  0  0  0  0  0  0
   12.2706   15.0185   20.6347 H   0  0  0  0  0  0  0  0  0  0  0  0
   10.5940   14.5273   20.7712 H   0  0  0  0  0  0  0  0  0  0  0  0
   12.1029   12.5885   21.1063 H   0  0  0  0  0  0  0  0  0  0  0  0
   12.9240   13.4013   22.4515 H   0  0  0  0  0  0  0  0  0  0  0  0
   11.0635   13.0405   23.8014 H   0  0  0  0  0  0  0  0  0  0  0  0
  1  2  1  0  0  0  0
  1  5  2  0  0  0  0
  2  8  2  0  0  0  0
  3  4  2  0  0  0  0
  3 11  1  0  0  0  0
  4 12  1  0  0  0  0
  5 13  1  0  0  0  0
  6  9  2  0  0  0  0
  6 10  1  0  0  0  0
  7  9  1  0  0  0  0
  7 12  2  0  0  0  0
  8 19  1  0  0  0  0
  9 11  1  0  0  0  0
 10 14  2  0  0  0  0
 10 15  1  0  0  0  0
 11 20  2  0  0  0  0
 12 23  1  0  0  0  0
 13 17  1  0  0  0  0
 13 19  2  0  0  0  0
 14 16  1  0  0  0  0
 14 20  1  0  0  0  0
 15 21  1  0  0  0  0
 15 22  2  0  0  0  0
 17 18  1  0  0  0  0
 18 21  1  0  0  0  0
  1 24  1  0  0  0  0
  2 25  1  0  0  0  0
  3 26  1  0  0  0  0
  4 27  1  0  0  0  0
  5 28  1  0  0  0  0
  6 29  1  0  0  0  0
  7 30  1  0  0  0  0
  8 31  1  0  0  0  0
 16 32  1  0  0  0  0
 16 33  1  0  0  0  0
 16 34  1  0  0  0  0
 17 35  1  0  0  0  0
 17 36  1  0  0  0  0
 18 37  1  0  0  0  0
 18 38  1  0  0  0  0
 21 39  1  0  0  0  0
M  END
> <idnumber>
Z212389242

> <heavy_atoms>
23

> <LogS>
-4.06

> <LogP>
3.024

> <rotating_bonds>
4

> <PSA>
54.88

> <hb_acceptors>
3

> <hb_donors>
1

> <Collection>
HTS

> <link>
https://www.enaminestore.com/catalog/Z212389242

> <ROCS_ShapeQuery>
_x1140_x0812_0A_x1140_0A_x1097_0A_x0365_0A_x1097_0A_x0310_0A

> <ROCS_TanimotoCombo>
0.646 

> <ROCS_ShapeTanimoto>
0.281 

> <ROCS_ColorTanimoto>
0.365 

> <ROCS_RefTversky>
0.252 

> <ROCS_RefColorTversky>
0.505 

> <ROCS_RefTverskyCombo>
0.757 

> <ROCS_FitTversky>
1.697 

> <ROCS_FitColorTversky>
0.569 

> <ROCS_FitTverskyCombo>
2.266 

> <ROCS_ColorScore>
-4.012

> <ROCS_Overlap>
2590.433

> <ROCS_Rank>
152                 

$$$$
untitled-dbase-85105_25
  -OEChem-02092421083D

 37 38  0     0  0  0  0  0  0999 V2000
    7.7516   11.8262   25.5366 C   0  0  0  0  0  0  0  0  0  0  0  0
    8.4885   12.6146   24.6599 C   0  0  0  0  0  0  0  0  0  0  0  0
    7.7394   10.4571   25.3238 C   0  0  0  0  0  0  0  0  0  0  0  0
    9.1810   12.0183   23.6120 C   0  0  0  0  0  0  0  0  0  0  0  0
    9.1050   10.6406   23.4854 C   0  0  0  0  0  0  0  0  0  0  0  0
   11.1144   16.3407   22.1217 C   0  0  0  0  0  0  0  0  0  0  0  0
   12.2320   14.7691   22.8588 C   0  0  0  0  0  0  0  0  0  0  0  0
   10.9958   14.8154   21.9407 C   0  0  0  0  0  0  0  0  0  0  0  0
   11.2642   14.3393   20.5173 C   0  0  0  0  0  0  0  0  0  0  0  0
   10.8171    7.9661   21.7732 C   0  0  0  0  0  0  0  0  0  0  0  0
   12.0910    9.7459   23.0226 C   0  0  0  0  0  0  0  0  0  0  0  0
    9.7376   14.1981   22.5328 C   0  0  0  0  0  0  0  0  0  0  0  0
   10.7507    9.0508   22.8375 C   0  0  0  0  0  0  0  0  0  0  0  0
    8.3995    9.8418   24.3171 N   0  0  0  0  0  0  0  0  0  0  0  0
    9.9255   12.7976   22.7252 N   0  0  0  0  0  0  0  0  0  0  0  0
   12.4091   16.2031   22.7567 O   0  0  0  0  0  0  0  0  0  0  0  0
    9.7717   10.0128   22.4649 O   0  0  0  0  0  0  0  0  0  0  0  0
    7.2034   12.2695   26.3599 H   0  0  0  0  0  0  0  0  0  0  0  0
    8.5160   13.6916   24.8022 H   0  0  0  0  0  0  0  0  0  0  0  0
    7.1773    9.7986   25.9777 H   0  0  0  0  0  0  0  0  0  0  0  0
   11.1771   16.9324   21.2036 H   0  0  0  0  0  0  0  0  0  0  0  0
   10.3939   16.8064   22.8021 H   0  0  0  0  0  0  0  0  0  0  0  0
   12.0549   14.4710   23.8974 H   0  0  0  0  0  0  0  0  0  0  0  0
   13.1003   14.2276   22.4717 H   0  0  0  0  0  0  0  0  0  0  0  0
   11.1635   13.2557   20.4627 H   0  0  0  0  0  0  0  0  0  0  0  0
   12.2741   14.6171   20.2167 H   0  0  0  0  0  0  0  0  0  0  0  0
   10.5515   14.7968   19.8317 H   0  0  0  0  0  0  0  0  0  0  0  0
   11.1327    8.3750   20.8085 H   0  0  0  0  0  0  0  0  0  0  0  0
   11.5240    7.1838   22.0699 H   0  0  0  0  0  0  0  0  0  0  0  0
    9.8443    7.4784   21.6457 H   0  0  0  0  0  0  0  0  0  0  0  0
   12.4370   10.1973   22.0877 H   0  0  0  0  0  0  0  0  0  0  0  0
   12.8465    9.0316   23.3670 H   0  0  0  0  0  0  0  0  0  0  0  0
   12.0268   10.5285   23.7866 H   0  0  0  0  0  0  0  0  0  0  0  0
    9.5478   14.6906   23.4869 H   0  0  0  0  0  0  0  0  0  0  0  0
    8.9219   14.3793   21.8322 H   0  0  0  0  0  0  0  0  0  0  0  0
   10.4329    8.6107   23.7883 H   0  0  0  0  0  0  0  0  0  0  0  0
   10.6480   12.3162   22.1853 H   0  0  0  0  0  0  0  0  0  0  0  0
  1  2  2  0  0  0  0
  1  3  1  0  0  0  0
  2  4  1  0  0  0  0
  3 14  2  0  0  0  0
  4  5  2  0  0  0  0
  4 15  1  0  0  0  0
  5 14  1  0  0  0  0
  5 17  1  0  0  0  0
  6  8  1  0  0  0  0
  6 16  1  0  0  0  0
  7  8  1  0  0  0  0
  7 16  1  0  0  0  0
  8  9  1  0  0  0  0
  8 12  1  0  0  0  0
 10 13  1  0  0  0  0
 11 13  1  0  0  0  0
 12 15  1  0  0  0  0
 13 17  1  0  0  0  0
  1 18  1  0  0  0  0
  2 19  1  0  0  0  0
  3 20  1  0  0  0  0
  6 21  1  0  0  0  0
  6 22  1  0  0  0  0
  7 23  1  0  0  0  0
  7 24  1  0  0  0  0
  9 25  1  0  0  0  0
  9 26  1  0  0  0  0
  9 27  1  0  0  0  0
 10 28  1  0  0  0  0
 10 29  1  0  0  0  0
 10 30  1  0  0  0  0
 11 31  1  0  0  0  0
 11 32  1  0  0  0  0
 11 33  1  0  0  0  0
 12 34  1  0  0  0  0
 12 35  1  0  0  0  0
 13 36  1  0  0  0  0
 15 37  1  0  0  0  0
M  END
> <idnumber>
Z1224473851

> <heavy_atoms>
17

> <LogS>
-1.78

> <LogP>
2.455

> <rotating_bonds>
5

> <PSA>
43.38

> <hb_acceptors>
4

> <hb_donors>
1

> <Collection>
HTS

> <link>
https://www.enaminestore.com/catalog/Z1224473851

> <ROCS_ShapeQuery>
_x1140_x0812_0A_x1140_0A_x1097_0A_x0365_0A_x1097_0A_x0310_0A

> <ROCS_TanimotoCombo>
0.646 

> <ROCS_ShapeTanimoto>
0.232 

> <ROCS_ColorTanimoto>
0.414 

> <ROCS_RefTversky>
0.211 

> <ROCS_RefColorTversky>
0.553 

> <ROCS_RefTverskyCombo>
0.764 

> <ROCS_FitTversky>
1.742 

> <ROCS_FitColorTversky>
0.622 

> <ROCS_FitTverskyCombo>
2.364 

> <ROCS_ColorScore>
-4.393

> <ROCS_Overlap>
2167.926

> <ROCS_Rank>
153                 

$$$$
untitled-dbase-146212_46
  -OEChem-02092421083D

 36 37  0     0  0  0  0  0  0999 V2000
    8.9695   12.4063   24.3399 C   0  0  0  0  0  0  0  0  0  0  0  0
    8.0785   12.1181   25.3677 C   0  0  0  0  0  0  0  0  0  0  0  0
    8.8988   10.1150   23.7062 C   0  0  0  0  0  0  0  0  0  0  0  0
    9.3924   11.3913   23.4889 C   0  0  0  0  0  0  0  0  0  0  0  0
   12.1393   14.4927   22.1095 C   0  0  0  0  0  0  0  0  0  0  0  0
    7.6436   10.8093   25.5008 C   0  0  0  0  0  0  0  0  0  0  0  0
   12.9563   15.4104   22.7921 C   0  0  0  0  0  0  0  0  0  0  0  0
   11.0501   15.2373   21.7416 C   0  0  0  0  0  0  0  0  0  0  0  0
   10.3339   11.6634   22.3912 C   0  0  0  0  0  0  0  0  0  0  0  0
   14.2683   15.1690   23.4159 C   0  0  0  0  0  0  0  0  0  0  0  0
    9.8125   14.9405   21.0085 C   0  0  0  0  0  0  0  0  0  0  0  0
   12.1959   11.8435   23.9957 C   0  0  0  0  0  0  0  0  0  0  0  0
   12.3946   13.0374   21.8431 C   0  0  0  0  0  0  0  0  0  0  0  0
    6.6882   10.4638   26.5941 C   0  0  0  0  0  0  0  0  0  0  0  0
    8.0322    9.7967   24.6937 N   0  0  0  0  0  0  0  0  0  0  0  0
   12.4153   16.6308   22.8436 N   0  0  0  0  0  0  0  0  0  0  0  0
   11.5961   12.1743   22.7108 N   0  0  0  0  0  0  0  0  0  0  0  0
    9.9364   11.4039   21.2560 O   0  0  0  0  0  0  0  0  0  0  0  0
   11.2030   16.5151   22.1739 O   0  0  0  0  0  0  0  0  0  0  0  0
    6.3389   11.5305   27.3719 F   0  0  0  0  0  0  0  0  0  0  0  0
    5.5067    9.9483   26.1437 F   0  0  0  0  0  0  0  0  0  0  0  0
    7.1912    9.5316   27.4543 F   0  0  0  0  0  0  0  0  0  0  0  0
    9.3277   13.4240   24.2106 H   0  0  0  0  0  0  0  0  0  0  0  0
    7.7397   12.9004   26.0383 H   0  0  0  0  0  0  0  0  0  0  0  0
    9.1926    9.2813   23.0753 H   0  0  0  0  0  0  0  0  0  0  0  0
   15.0905   15.3468   22.7016 H   0  0  0  0  0  0  0  0  0  0  0  0
   14.4410   15.8216   24.2903 H   0  0  0  0  0  0  0  0  0  0  0  0
   14.3692   14.1335   23.7877 H   0  0  0  0  0  0  0  0  0  0  0  0
    9.0064   14.6152   21.6906 H   0  0  0  0  0  0  0  0  0  0  0  0
    9.4352   15.8159   20.4473 H   0  0  0  0  0  0  0  0  0  0  0  0
    9.9500   14.1408   20.2566 H   0  0  0  0  0  0  0  0  0  0  0  0
   12.7924   10.9246   23.8969 H   0  0  0  0  0  0  0  0  0  0  0  0
   12.8461   12.6694   24.3202 H   0  0  0  0  0  0  0  0  0  0  0  0
   11.4023   11.6870   24.7412 H   0  0  0  0  0  0  0  0  0  0  0  0
   12.1536   12.7870   20.8042 H   0  0  0  0  0  0  0  0  0  0  0  0
   13.4491   12.7880   22.0015 H   0  0  0  0  0  0  0  0  0  0  0  0
  1  2  2  0  0  0  0
  1  4  1  0  0  0  0
  2  6  1  0  0  0  0
  3  4  2  0  0  0  0
  3 15  1  0  0  0  0
  4  9  1  0  0  0  0
  5  7  1  0  0  0  0
  5  8  2  0  0  0  0
  5 13  1  0  0  0  0
  6 14  1  0  0  0  0
  6 15  2  0  0  0  0
  7 10  1  0  0  0  0
  7 16  2  0  0  0  0
  8 11  1  0  0  0  0
  8 19  1  0  0  0  0
  9 17  1  0  0  0  0
  9 18  2  0  0  0  0
 12 17  1  0  0  0  0
 13 17  1  0  0  0  0
 14 20  1  0  0  0  0
 14 21  1  0  0  0  0
 14 22  1  0  0  0  0
 16 19  1  0  0  0  0
  1 23  1  0  0  0  0
  2 24  1  0  0  0  0
  3 25  1  0  0  0  0
 10 26  1  0  0  0  0
 10 27  1  0  0  0  0
 10 28  1  0  0  0  0
 11 29  1  0  0  0  0
 11 30  1  0  0  0  0
 11 31  1  0  0  0  0
 12 32  1  0  0  0  0
 12 33  1  0  0  0  0
 12 34  1  0  0  0  0
 13 35  1  0  0  0  0
 13 36  1  0  0  0  0
M  END
> <idnumber>
Z383556222

> <heavy_atoms>
22

> <LogS>
-2.34

> <LogP>
1.059

> <rotating_bonds>
4

> <PSA>
59.23

> <hb_acceptors>
3

> <hb_donors>
0

> <Collection>
HTS

> <link>
https://www.enaminestore.com/catalog/Z383556222

> <ROCS_ShapeQuery>
_x1140_x0812_0A_x1140_0A_x1097_0A_x0365_0A_x1097_0A_x0310_0A

> <ROCS_TanimotoCombo>
0.646 

> <ROCS_ShapeTanimoto>
0.251 

> <ROCS_ColorTanimoto>
0.395 

> <ROCS_RefTversky>
0.230 

> <ROCS_RefColorTversky>
0.469 

> <ROCS_RefTverskyCombo>
0.699 

> <ROCS_FitTversky>
1.588 

> <ROCS_FitColorTversky>
0.714 

> <ROCS_FitTverskyCombo>
2.302 

> <ROCS_ColorScore>
-3.678

> <ROCS_Overlap>
2362.373

> <ROCS_Rank>
154                 

$$$$
untitled-dbase-173100_149
  -OEChem-02092421083D

 26 26  0     0  0  0  0  0  0999 V2000
   12.1298   15.0479   22.4338 C   0  0  0  0  0  0  0  0  0  0  0  0
    7.9019   12.2776   25.2212 C   0  0  0  0  0  0  0  0  0  0  0  0
    8.7815   12.6221   24.2009 C   0  0  0  0  0  0  0  0  0  0  0  0
    7.6626   10.9312   25.4442 C   0  0  0  0  0  0  0  0  0  0  0  0
    9.3863   11.6237   23.4454 C   0  0  0  0  0  0  0  0  0  0  0  0
    9.0806   10.3065   23.7480 C   0  0  0  0  0  0  0  0  0  0  0  0
   10.3133   12.0163   22.3722 C   0  0  0  0  0  0  0  0  0  0  0  0
   12.0405   12.5875   24.0349 C   0  0  0  0  0  0  0  0  0  0  0  0
   12.1219   13.7130   21.8382 C   0  0  0  0  0  0  0  0  0  0  0  0
   11.2948    8.6449   23.7979 C   0  0  0  0  0  0  0  0  0  0  0  0
   12.1383   16.1088   22.9038 N   0  0  0  0  0  0  0  0  0  0  0  0
    8.2313    9.9332   24.7313 N   0  0  0  0  0  0  0  0  0  0  0  0
   11.4500   12.7559   22.7146 N   0  0  0  0  0  0  0  0  0  0  0  0
   10.0191   11.6460   21.2362 O   0  0  0  0  0  0  0  0  0  0  0  0
   11.0098    8.3082   25.0787 F   0  0  0  0  0  0  0  0  0  0  0  0
   12.1175    9.7199   23.8282 F   0  0  0  0  0  0  0  0  0  0  0  0
   12.0056    7.6194   23.2669 F   0  0  0  0  0  0  0  0  0  0  0  0
    9.8104    8.9541   22.8313 S   0  0  0  0  0  0  0  0  0  0  0  0
    7.4188   13.0387   25.8228 H   0  0  0  0  0  0  0  0  0  0  0  0
    8.9865   13.6716   24.0058 H   0  0  0  0  0  0  0  0  0  0  0  0
    6.9841   10.6104   26.2277 H   0  0  0  0  0  0  0  0  0  0  0  0
   12.7935   11.7864   24.0010 H   0  0  0  0  0  0  0  0  0  0  0  0
   12.5195   13.5279   24.3449 H   0  0  0  0  0  0  0  0  0  0  0  0
   11.2543   12.3212   24.7568 H   0  0  0  0  0  0  0  0  0  0  0  0
   11.5938   13.7118   20.8804 H   0  0  0  0  0  0  0  0  0  0  0  0
   13.1400   13.3500   21.6711 H   0  0  0  0  0  0  0  0  0  0  0  0
  1  9  1  0  0  0  0
  1 11  3  0  0  0  0
  2  3  2  0  0  0  0
  2  4  1  0  0  0  0
  3  5  1  0  0  0  0
  4 12  2  0  0  0  0
  5  6  2  0  0  0  0
  5  7  1  0  0  0  0
  6 12  1  0  0  0  0
  6 18  1  0  0  0  0
  7 13  1  0  0  0  0
  7 14  2  0  0  0  0
  8 13  1  0  0  0  0
  9 13  1  0  0  0  0
 10 15  1  0  0  0  0
 10 16  1  0  0  0  0
 10 17  1  0  0  0  0
 10 18  1  0  0  0  0
  2 19  1  0  0  0  0
  3 20  1  0  0  0  0
  4 21  1  0  0  0  0
  8 22  1  0  0  0  0
  8 23  1  0  0  0  0
  8 24  1  0  0  0  0
  9 25  1  0  0  0  0
  9 26  1  0  0  0  0
M  END
> <idnumber>
Z1000009190

> <heavy_atoms>
18

> <LogS>
-3.777

> <LogP>
1.457

> <rotating_bonds>
4

> <PSA>
56.99

> <hb_acceptors>
3

> <hb_donors>
0

> <Collection>
Functional

> <link>
https://www.enaminestore.com/catalog/Z1000009190

> <ROCS_ShapeQuery>
_x1140_x0812_0A_x1140_0A_x1097_0A_x0365_0A_x1097_0A_x0310_0A

> <ROCS_TanimotoCombo>
0.646 

> <ROCS_ShapeTanimoto>
0.238 

> <ROCS_ColorTanimoto>
0.408 

> <ROCS_RefTversky>
0.216 

> <ROCS_RefColorTversky>
0.445 

> <ROCS_RefTverskyCombo>
0.662 

> <ROCS_FitTversky>
1.739 

> <ROCS_FitColorTversky>
0.827 

> <ROCS_FitTverskyCombo>
2.567 

> <ROCS_ColorScore>
-3.475

> <ROCS_Overlap>
2220.747

> <ROCS_Rank>
155                 

$$$$
untitled-dbase-712059_20
  -OEChem-02092421083D

 25 26  0     0  0  0  0  0  0999 V2000
    8.0039   12.9179   24.9897 C   0  0  0  0  0  0  0  0  0  0  0  0
    8.8545   12.4153   24.0067 C   0  0  0  0  0  0  0  0  0  0  0  0
    6.1791   12.0968   26.6755 C   0  0  0  0  0  0  0  0  0  0  0  0
    5.6916   10.8259   26.8915 C   0  0  0  0  0  0  0  0  0  0  0  0
    7.1599   12.0119   25.6522 C   0  0  0  0  0  0  0  0  0  0  0  0
    8.8271   11.0547   23.7318 C   0  0  0  0  0  0  0  0  0  0  0  0
    7.2358   10.6739   25.2765 C   0  0  0  0  0  0  0  0  0  0  0  0
    9.7109   10.5202   22.7074 C   0  0  0  0  0  0  0  0  0  0  0  0
   11.0441    8.5364   21.9522 C   0  0  0  0  0  0  0  0  0  0  0  0
   12.3629    9.2759   21.8683 C   0  0  0  0  0  0  0  0  0  0  0  0
    8.0370   10.1375   24.3368 N   0  0  0  0  0  0  0  0  0  0  0  0
    6.3396    9.9710   26.0381 N   0  0  0  0  0  0  0  0  0  0  0  0
   10.1467    9.2002   22.8703 N   0  0  0  0  0  0  0  0  0  0  0  0
   10.0673   11.2285   21.7494 O   0  0  0  0  0  0  0  0  0  0  0  0
   12.2558   10.3159   21.0039 F   0  0  0  0  0  0  0  0  0  0  0  0
   13.3064    8.4450   21.3559 F   0  0  0  0  0  0  0  0  0  0  0  0
    7.9994   13.9761   25.2296 H   0  0  0  0  0  0  0  0  0  0  0  0
    9.5203   13.0860   23.4723 H   0  0  0  0  0  0  0  0  0  0  0  0
    5.8608   12.9873   27.2000 H   0  0  0  0  0  0  0  0  0  0  0  0
    4.9424   10.4547   27.5766 H   0  0  0  0  0  0  0  0  0  0  0  0
   10.5809    8.4993   20.9610 H   0  0  0  0  0  0  0  0  0  0  0  0
   11.2146    7.5036   22.2734 H   0  0  0  0  0  0  0  0  0  0  0  0
   12.7129    9.6483   22.8356 H   0  0  0  0  0  0  0  0  0  0  0  0
    6.1806    8.9749   25.9784 H   0  0  0  0  0  0  0  0  0  0  0  0
    9.8762    8.6875   23.7032 H   0  0  0  0  0  0  0  0  0  0  0  0
  1  2  2  0  0  0  0
  1  5  1  0  0  0  0
  2  6  1  0  0  0  0
  3  4  2  0  0  0  0
  3  5  1  0  0  0  0
  4 12  1  0  0  0  0
  5  7  2  0  0  0  0
  6  8  1  0  0  0  0
  6 11  2  0  0  0  0
  7 11  1  0  0  0  0
  7 12  1  0  0  0  0
  8 13  1  0  0  0  0
  8 14  2  0  0  0  0
  9 10  1  0  0  0  0
  9 13  1  0  0  0  0
 10 15  1  0  0  0  0
 10 16  1  0  0  0  0
  1 17  1  0  0  0  0
  2 18  1  0  0  0  0
  3 19  1  0  0  0  0
  4 20  1  0  0  0  0
  9 21  1  0  0  0  0
  9 22  1  0  0  0  0
 10 23  1  0  0  0  0
 12 24  1  0  0  0  0
 13 25  1  0  0  0  0
M  END
> <idnumber>
Z1625511334

> <heavy_atoms>
16

> <LogS>
-3.059

> <LogP>
1.563

> <rotating_bonds>
3

> <PSA>
57.78

> <hb_acceptors>
2

> <hb_donors>
2

> <Collection>
HTS

> <link>
https://www.enaminestore.com/catalog/Z1625511334

> <ROCS_ShapeQuery>
_x1140_x0812_0A_x1140_0A_x1097_0A_x0365_0A_x1097_0A_x0310_0A

> <ROCS_TanimotoCombo>
0.646 

> <ROCS_ShapeTanimoto>
0.240 

> <ROCS_ColorTanimoto>
0.406 

> <ROCS_RefTversky>
0.217 

> <ROCS_RefColorTversky>
0.512 

> <ROCS_RefTverskyCombo>
0.729 

> <ROCS_FitTversky>
1.799 

> <ROCS_FitColorTversky>
0.661 

> <ROCS_FitTverskyCombo>
2.460 

> <ROCS_ColorScore>
-4.049

> <ROCS_Overlap>
2224.820

> <ROCS_Rank>
156                 

$$$$
untitled-dbase-88185_11
  -OEChem-02092421083D

 33 34  0     0  0  0  0  0  0999 V2000
    8.5074   12.3834   24.3029 C   0  0  0  0  0  0  0  0  0  0  0  0
    8.7181   10.1511   23.5098 C   0  0  0  0  0  0  0  0  0  0  0  0
    9.0834   11.4841   23.4125 C   0  0  0  0  0  0  0  0  0  0  0  0
    7.5965   11.9286   25.2500 C   0  0  0  0  0  0  0  0  0  0  0  0
    7.2976   10.5758   25.2648 C   0  0  0  0  0  0  0  0  0  0  0  0
   10.0600   11.9376   22.3889 C   0  0  0  0  0  0  0  0  0  0  0  0
   11.2964   14.1231   20.4411 C   0  0  0  0  0  0  0  0  0  0  0  0
   11.6693   15.1311   21.4888 C   0  0  0  0  0  0  0  0  0  0  0  0
   11.7534   13.6542   21.8046 C   0  0  0  0  0  0  0  0  0  0  0  0
   13.1242   13.0424   21.9052 C   0  0  0  0  0  0  0  0  0  0  0  0
    4.8669    8.8332   24.8299 C   0  0  0  0  0  0  0  0  0  0  0  0
    5.6871    8.8507   26.0747 C   0  0  0  0  0  0  0  0  0  0  0  0
    7.8369    9.6721   24.4162 N   0  0  0  0  0  0  0  0  0  0  0  0
    6.3713   10.0937   26.2228 N   0  0  0  0  0  0  0  0  0  0  0  0
   10.7941   13.0820   22.6972 N   0  0  0  0  0  0  0  0  0  0  0  0
   10.1595   11.3127   21.3362 O   0  0  0  0  0  0  0  0  0  0  0  0
    6.8919   13.0561   26.3459 Cl  0  0  0  0  0  0  0  0  0  0  0  0
    8.7721   13.4373   24.2542 H   0  0  0  0  0  0  0  0  0  0  0  0
    9.1339    9.4021   22.8426 H   0  0  0  0  0  0  0  0  0  0  0  0
   10.2471   14.0274   20.1873 H   0  0  0  0  0  0  0  0  0  0  0  0
   11.9663   14.0018   19.5982 H   0  0  0  0  0  0  0  0  0  0  0  0
   12.5892   15.6861   21.3486 H   0  0  0  0  0  0  0  0  0  0  0  0
   10.8694   15.7097   21.9359 H   0  0  0  0  0  0  0  0  0  0  0  0
   13.3445   12.7418   22.9366 H   0  0  0  0  0  0  0  0  0  0  0  0
   13.8955   13.7548   21.5884 H   0  0  0  0  0  0  0  0  0  0  0  0
   13.2037   12.1525   21.2691 H   0  0  0  0  0  0  0  0  0  0  0  0
    5.5198    8.9848   23.9577 H   0  0  0  0  0  0  0  0  0  0  0  0
    4.3561    7.8630   24.7411 H   0  0  0  0  0  0  0  0  0  0  0  0
    4.1190    9.6388   24.8723 H   0  0  0  0  0  0  0  0  0  0  0  0
    5.0273    8.6986   26.9416 H   0  0  0  0  0  0  0  0  0  0  0  0
    6.4261    8.0372   26.0291 H   0  0  0  0  0  0  0  0  0  0  0  0
    6.2124   10.6720   27.0223 H   0  0  0  0  0  0  0  0  0  0  0  0
   10.6018   13.5756   23.5711 H   0  0  0  0  0  0  0  0  0  0  0  0
  1  3  2  0  0  0  0
  1  4  1  0  0  0  0
  2  3  1  0  0  0  0
  2 13  2  0  0  0  0
  3  6  1  0  0  0  0
  4  5  2  0  0  0  0
  4 17  1  0  0  0  0
  5 13  1  0  0  0  0
  5 14  1  0  0  0  0
  6 15  1  0  0  0  0
  6 16  2  0  0  0  0
  7  8  1  0  0  0  0
  7  9  1  0  0  0  0
  8  9  1  0  0  0  0
  9 10  1  0  0  0  0
  9 15  1  0  0  0  0
 11 12  1  0  0  0  0
 12 14  1  0  0  0  0
  1 18  1  0  0  0  0
  2 19  1  0  0  0  0
  7 20  1  0  0  0  0
  7 21  1  0  0  0  0
  8 22  1  0  0  0  0
  8 23  1  0  0  0  0
 10 24  1  0  0  0  0
 10 25  1  0  0  0  0
 10 26  1  0  0  0  0
 11 27  1  0  0  0  0
 11 28  1  0  0  0  0
 11 29  1  0  0  0  0
 12 30  1  0  0  0  0
 12 31  1  0  0  0  0
 14 32  1  0  0  0  0
 15 33  1  0  0  0  0
M  END
> <idnumber>
Z1705875725

> <heavy_atoms>
17

> <LogS>
-2.796

> <LogP>
2.809

> <rotating_bonds>
4

> <PSA>
54.02

> <hb_acceptors>
3

> <hb_donors>
2

> <Collection>
Advanced

> <link>
https://www.enaminestore.com/catalog/Z1705875725

> <ROCS_ShapeQuery>
_x1140_x0812_0A_x1140_0A_x1097_0A_x0365_0A_x1097_0A_x0310_0A

> <ROCS_TanimotoCombo>
0.646 

> <ROCS_ShapeTanimoto>
0.235 

> <ROCS_ColorTanimoto>
0.411 

> <ROCS_RefTversky>
0.213 

> <ROCS_RefColorTversky>
0.482 

> <ROCS_RefTverskyCombo>
0.695 

> <ROCS_FitTversky>
1.771 

> <ROCS_FitColorTversky>
0.735 

> <ROCS_FitTverskyCombo>
2.505 

> <ROCS_ColorScore>
-3.784

> <ROCS_Overlap>
2189.234

> <ROCS_Rank>
157                 

$$$$
untitled-dbase-1006150_177
  -OEChem-02092421083D

 39 41  0     1  0  0  0  0  0999 V2000
    8.5923   12.2796   24.2016 C   0  0  0  0  0  0  0  0  0  0  0  0
    9.0770    9.9736   23.8785 C   0  0  0  0  0  0  0  0  0  0  0  0
    9.3924   11.2990   23.6258 C   0  0  0  0  0  0  0  0  0  0  0  0
    7.5165   11.9102   25.0012 C   0  0  0  0  0  0  0  0  0  0  0  0
    7.2850   10.5575   25.1922 C   0  0  0  0  0  0  0  0  0  0  0  0
   12.2119   15.3343   23.0544 C   0  0  0  0  0  0  0  0  0  0  0  0
   11.1848   14.4226   22.4219 C   0  0  0  0  0  0  0  0  0  0  0  0
   15.3166   14.3661   24.8590 C   0  0  0  0  0  0  0  0  0  0  0  0
   15.2277   15.6993   24.1741 C   0  0  0  0  0  0  0  0  0  0  0  0
   12.4314   13.2658   24.1202 C   0  0  0  0  0  0  0  0  0  0  0  0
   14.0072   15.1005   24.8127 C   0  0  0  0  0  0  0  0  0  0  0  0
    4.6794    8.6713   27.1356 C   0  0  0  0  0  0  0  0  0  0  0  0
    5.8777    8.7936   26.2571 C   0  0  0  0  0  0  0  0  0  0  0  0
    8.0402    9.5762   24.6497 N   0  0  0  0  0  0  0  0  0  0  0  0
   12.9028   14.6141   24.0144 N   0  0  0  0  0  0  0  0  0  0  0  0
   11.2136   13.2160   23.2893 N   0  0  2  0  0  0  0  0  0  0  0  0
    6.1930   10.1617   26.0040 N   0  0  0  0  0  0  0  0  0  0  0  0
   12.3878   16.4985   22.7218 O   0  0  0  0  0  0  0  0  0  0  0  0
   11.8131   10.7485   22.8443 O   0  0  0  0  0  0  0  0  0  0  0  0
   10.2646   11.9464   21.2584 O   0  0  0  0  0  0  0  0  0  0  0  0
   10.7692   11.7294   22.6031 S   0  0  0  0  0  0  0  0  0  0  0  0
    6.5351   13.1378   25.7072 Cl  0  0  0  0  0  0  0  0  0  0  0  0
    8.8121   13.3297   24.0236 H   0  0  0  0  0  0  0  0  0  0  0  0
    9.6646    9.1640   23.4570 H   0  0  0  0  0  0  0  0  0  0  0  0
   10.1967   14.8867   22.4521 H   0  0  0  0  0  0  0  0  0  0  0  0
   11.4927   14.1897   21.3993 H   0  0  0  0  0  0  0  0  0  0  0  0
   15.4407   13.4888   24.2360 H   0  0  0  0  0  0  0  0  0  0  0  0
   15.8356   14.3192   25.8088 H   0  0  0  0  0  0  0  0  0  0  0  0
   15.6866   16.5495   24.6633 H   0  0  0  0  0  0  0  0  0  0  0  0
   15.2904   15.7147   23.0929 H   0  0  0  0  0  0  0  0  0  0  0  0
   13.2069   12.5935   23.7403 H   0  0  0  0  0  0  0  0  0  0  0  0
   12.1925   13.0363   25.1620 H   0  0  0  0  0  0  0  0  0  0  0  0
   13.6713   15.5532   25.7395 H   0  0  0  0  0  0  0  0  0  0  0  0
    3.8169    9.1500   26.6488 H   0  0  0  0  0  0  0  0  0  0  0  0
    4.4588    7.6077   27.3087 H   0  0  0  0  0  0  0  0  0  0  0  0
    4.8783    9.1659   28.0978 H   0  0  0  0  0  0  0  0  0  0  0  0
    6.7352    8.3129   26.7506 H   0  0  0  0  0  0  0  0  0  0  0  0
    5.6748    8.2891   25.3009 H   0  0  0  0  0  0  0  0  0  0  0  0
    5.6402   10.8946   26.3994 H   0  0  0  0  0  0  0  0  0  0  0  0
  1  3  2  0  0  0  0
  1  4  1  0  0  0  0
  2  3  1  0  0  0  0
  2 14  2  0  0  0  0
  3 21  1  0  0  0  0
  4  5  2  0  0  0  0
  4 22  1  0  0  0  0
  5 14  1  0  0  0  0
  5 17  1  0  0  0  0
  6  7  1  0  0  0  0
  6 15  1  0  0  0  0
  6 18  2  0  0  0  0
  7 16  1  0  0  0  0
  8  9  1  0  0  0  0
  8 11  1  0  0  0  0
  9 11  1  0  0  0  0
 10 15  1  0  0  0  0
 10 16  1  0  0  0  0
 11 15  1  0  0  0  0
 12 13  1  0  0  0  0
 13 17  1  0  0  0  0
 16 21  1  0  0  0  0
 19 21  2  0  0  0  0
 20 21  2  0  0  0  0
  1 23  1  0  0  0  0
  2 24  1  0  0  0  0
  7 25  1  0  0  0  0
  7 26  1  0  0  0  0
  8 27  1  0  0  0  0
  8 28  1  0  0  0  0
  9 29  1  0  0  0  0
  9 30  1  0  0  0  0
 10 31  1  0  0  0  0
 10 32  1  0  0  0  0
 11 33  1  0  0  0  0
 12 34  1  0  0  0  0
 12 35  1  0  0  0  0
 12 36  1  0  0  0  0
 13 37  1  0  0  0  0
 13 38  1  0  0  0  0
 17 39  1  0  0  0  0
M  END
> <idnumber>
Z3074667795

> <heavy_atoms>
22

> <LogS>
-2.763

> <LogP>
1.973

> <rotating_bonds>
4

> <PSA>
82.61

> <hb_acceptors>
5

> <hb_donors>
1

> <Collection>
HTS

> <link>
https://www.enaminestore.com/catalog/Z3074667795

> <ROCS_ShapeQuery>
_x1140_x0812_0A_x1140_0A_x1097_0A_x0365_0A_x1097_0A_x0310_0A

> <ROCS_TanimotoCombo>
0.646 

> <ROCS_ShapeTanimoto>
0.248 

> <ROCS_ColorTanimoto>
0.398 

> <ROCS_RefTversky>
0.226 

> <ROCS_RefColorTversky>
0.537 

> <ROCS_RefTverskyCombo>
0.764 

> <ROCS_FitTversky>
1.610 

> <ROCS_FitColorTversky>
0.606 

> <ROCS_FitTverskyCombo>
2.215 

> <ROCS_ColorScore>
-4.272

> <ROCS_Overlap>
2325.678

> <ROCS_Rank>
158                 

$$$$
untitled-dbase-423596_25
  -OEChem-02092421083D

 39 41  0     0  0  0  0  0  0999 V2000
    9.9206   16.8218   23.9777 C   0  0  0  0  0  0  0  0  0  0  0  0
   11.0010   17.6260   24.3231 C   0  0  0  0  0  0  0  0  0  0  0  0
    6.6896   12.7839   25.9738 C   0  0  0  0  0  0  0  0  0  0  0  0
    5.8284   12.3131   26.9607 C   0  0  0  0  0  0  0  0  0  0  0  0
   10.0741   15.8416   23.0037 C   0  0  0  0  0  0  0  0  0  0  0  0
    8.3288   12.3325   24.2100 C   0  0  0  0  0  0  0  0  0  0  0  0
    6.4880   10.0536   26.4283 C   0  0  0  0  0  0  0  0  0  0  0  0
   12.2041   17.4115   23.6702 C   0  0  0  0  0  0  0  0  0  0  0  0
    7.4541   11.8859   25.2097 C   0  0  0  0  0  0  0  0  0  0  0  0
    9.0700   11.4204   23.4727 C   0  0  0  0  0  0  0  0  0  0  0  0
    7.3569   10.4967   25.4349 C   0  0  0  0  0  0  0  0  0  0  0  0
    5.7278   10.9462   27.1880 C   0  0  0  0  0  0  0  0  0  0  0  0
   11.3187   15.7070   22.4096 C   0  0  0  0  0  0  0  0  0  0  0  0
    8.9076   10.0814   23.7652 C   0  0  0  0  0  0  0  0  0  0  0  0
    9.9762   11.8890   22.4355 C   0  0  0  0  0  0  0  0  0  0  0  0
    9.6732    9.0441   23.0098 C   0  0  0  0  0  0  0  0  0  0  0  0
   11.5215   14.6536   21.3484 C   0  0  0  0  0  0  0  0  0  0  0  0
   11.9740   13.3121   21.9197 C   0  0  0  0  0  0  0  0  0  0  0  0
   12.3914   16.4694   22.7189 N   0  0  0  0  0  0  0  0  0  0  0  0
    8.0749    9.6092   24.7210 N   0  0  0  0  0  0  0  0  0  0  0  0
   11.0092   12.7449   22.8342 N   0  0  0  0  0  0  0  0  0  0  0  0
    9.8093   11.5486   21.2511 O   0  0  0  0  0  0  0  0  0  0  0  0
    4.9028   10.4833   28.1362 F   0  0  0  0  0  0  0  0  0  0  0  0
    8.9609   16.9589   24.4668 H   0  0  0  0  0  0  0  0  0  0  0  0
   10.9045   18.3963   25.0796 H   0  0  0  0  0  0  0  0  0  0  0  0
    6.7601   13.8560   25.8040 H   0  0  0  0  0  0  0  0  0  0  0  0
    5.2398   13.0103   27.5491 H   0  0  0  0  0  0  0  0  0  0  0  0
    9.2392   15.2076   22.7252 H   0  0  0  0  0  0  0  0  0  0  0  0
    8.4278   13.3975   24.0077 H   0  0  0  0  0  0  0  0  0  0  0  0
    6.3911    8.9877   26.6257 H   0  0  0  0  0  0  0  0  0  0  0  0
   13.0772   18.0120   23.9033 H   0  0  0  0  0  0  0  0  0  0  0  0
   10.6275    8.8395   23.5082 H   0  0  0  0  0  0  0  0  0  0  0  0
    9.1070    8.1075   22.9394 H   0  0  0  0  0  0  0  0  0  0  0  0
    9.8774    9.3724   21.9834 H   0  0  0  0  0  0  0  0  0  0  0  0
   12.2738   15.0169   20.6368 H   0  0  0  0  0  0  0  0  0  0  0  0
   10.5969   14.5257   20.7710 H   0  0  0  0  0  0  0  0  0  0  0  0
   12.1056   12.5873   21.1101 H   0  0  0  0  0  0  0  0  0  0  0  0
   12.9245   13.4013   22.4559 H   0  0  0  0  0  0  0  0  0  0  0  0
   11.0620   13.0414   23.8032 H   0  0  0  0  0  0  0  0  0  0  0  0
  1  2  1  0  0  0  0
  1  5  2  0  0  0  0
  2  8  2  0  0  0  0
  3  4  2  0  0  0  0
  3  9  1  0  0  0  0
  4 12  1  0  0  0  0
  5 13  1  0  0  0  0
  6  9  2  0  0  0  0
  6 10  1  0  0  0  0
  7 11  1  0  0  0  0
  7 12  2  0  0  0  0
  8 19  1  0  0  0  0
  9 11  1  0  0  0  0
 10 14  2  0  0  0  0
 10 15  1  0  0  0  0
 11 20  2  0  0  0  0
 12 23  1  0  0  0  0
 13 17  1  0  0  0  0
 13 19  2  0  0  0  0
 14 16  1  0  0  0  0
 14 20  1  0  0  0  0
 15 21  1  0  0  0  0
 15 22  2  0  0  0  0
 17 18  1  0  0  0  0
 18 21  1  0  0  0  0
  1 24  1  0  0  0  0
  2 25  1  0  0  0  0
  3 26  1  0  0  0  0
  4 27  1  0  0  0  0
  5 28  1  0  0  0  0
  6 29  1  0  0  0  0
  7 30  1  0  0  0  0
  8 31  1  0  0  0  0
 16 32  1  0  0  0  0
 16 33  1  0  0  0  0
 16 34  1  0  0  0  0
 17 35  1  0  0  0  0
 17 36  1  0  0  0  0
 18 37  1  0  0  0  0
 18 38  1  0  0  0  0
 21 39  1  0  0  0  0
M  END
> <idnumber>
Z200430884

> <heavy_atoms>
23

> <LogS>
-3.611

> <LogP>
2.454

> <rotating_bonds>
4

> <PSA>
54.88

> <hb_acceptors>
3

> <hb_donors>
1

> <Collection>
HTS

> <link>
https://www.enaminestore.com/catalog/Z200430884

> <ROCS_ShapeQuery>
_x1140_x0812_0A_x1140_0A_x1097_0A_x0365_0A_x1097_0A_x0310_0A

> <ROCS_TanimotoCombo>
0.646 

> <ROCS_ShapeTanimoto>
0.281 

> <ROCS_ColorTanimoto>
0.365 

> <ROCS_RefTversky>
0.252 

> <ROCS_RefColorTversky>
0.505 

> <ROCS_RefTverskyCombo>
0.757 

> <ROCS_FitTversky>
1.686 

> <ROCS_FitColorTversky>
0.569 

> <ROCS_FitTverskyCombo>
2.254 

> <ROCS_ColorScore>
-4.011

> <ROCS_Overlap>
2590.981

> <ROCS_Rank>
159                 

$$$$
untitled-dbase-969634_87
  -OEChem-02092421083D

 27 28  0     0  0  0  0  0  0999 V2000
    7.6512   12.0120   25.4682 C   0  0  0  0  0  0  0  0  0  0  0  0
    9.6113   11.6098   24.1337 C   0  0  0  0  0  0  0  0  0  0  0  0
    7.3113   10.6831   25.2725 C   0  0  0  0  0  0  0  0  0  0  0  0
    8.8247   12.4763   24.8846 C   0  0  0  0  0  0  0  0  0  0  0  0
    9.1838   10.2989   23.9980 C   0  0  0  0  0  0  0  0  0  0  0  0
    9.1159   13.4157   20.0515 C   0  0  0  0  0  0  0  0  0  0  0  0
   10.5262   13.1721   19.5998 C   0  0  0  0  0  0  0  0  0  0  0  0
    9.6760   12.0220   20.0581 C   0  0  0  0  0  0  0  0  0  0  0  0
   11.2085    9.8519   22.6100 C   0  0  0  0  0  0  0  0  0  0  0  0
   10.9087   10.3972   21.2257 C   0  0  0  0  0  0  0  0  0  0  0  0
    8.0500    9.8114   24.5499 N   0  0  0  0  0  0  0  0  0  0  0  0
    9.9959    9.4276   23.2301 N   0  0  0  0  0  0  0  0  0  0  0  0
    9.9934   11.4801   21.3328 O   0  0  0  0  0  0  0  0  0  0  0  0
    9.3006   14.1163   25.0911 Cl  0  0  0  0  0  0  0  0  0  0  0  0
    7.0127   12.6588   26.0604 H   0  0  0  0  0  0  0  0  0  0  0  0
   10.5318   11.9506   23.6688 H   0  0  0  0  0  0  0  0  0  0  0  0
    6.4060   10.2717   25.7065 H   0  0  0  0  0  0  0  0  0  0  0  0
    8.9689   13.9156   21.0008 H   0  0  0  0  0  0  0  0  0  0  0  0
    8.3793   13.6596   19.2959 H   0  0  0  0  0  0  0  0  0  0  0  0
   10.7377   13.2520   18.5407 H   0  0  0  0  0  0  0  0  0  0  0  0
   11.3280   13.5083   20.2455 H   0  0  0  0  0  0  0  0  0  0  0  0
    9.3127   11.3359   19.3024 H   0  0  0  0  0  0  0  0  0  0  0  0
   11.8867    8.9941   22.5603 H   0  0  0  0  0  0  0  0  0  0  0  0
   11.6583   10.6284   23.2361 H   0  0  0  0  0  0  0  0  0  0  0  0
   10.4434    9.6212   20.6099 H   0  0  0  0  0  0  0  0  0  0  0  0
   11.8168   10.7517   20.7273 H   0  0  0  0  0  0  0  0  0  0  0  0
    9.6777    8.4846   23.1375 H   0  0  0  0  0  0  0  0  0  0  0  0
  1  3  2  0  0  0  0
  1  4  1  0  0  0  0
  2  4  2  0  0  0  0
  2  5  1  0  0  0  0
  3 11  1  0  0  0  0
  4 14  1  0  0  0  0
  5 11  2  0  0  0  0
  5 12  1  0  0  0  0
  6  7  1  0  0  0  0
  6  8  1  0  0  0  0
  7  8  1  0  0  0  0
  8 13  1  0  0  0  0
  9 10  1  0  0  0  0
  9 12  1  0  0  0  0
 10 13  1  0  0  0  0
  1 15  1  0  0  0  0
  2 16  1  0  0  0  0
  3 17  1  0  0  0  0
  6 18  1  0  0  0  0
  6 19  1  0  0  0  0
  7 20  1  0  0  0  0
  7 21  1  0  0  0  0
  8 22  1  0  0  0  0
  9 23  1  0  0  0  0
  9 24  1  0  0  0  0
 10 25  1  0  0  0  0
 10 26  1  0  0  0  0
 12 27  1  0  0  0  0
M  END
> <idnumber>
Z2901009224

> <heavy_atoms>
14

> <LogS>
-2.095

> <LogP>
2.403

> <rotating_bonds>
5

> <PSA>
34.15

> <hb_acceptors>
3

> <hb_donors>
1

> <Collection>
Functional

> <link>
https://www.enaminestore.com/catalog/Z2901009224

> <ROCS_ShapeQuery>
_x1140_x0812_0A_x1140_0A_x1097_0A_x0365_0A_x1097_0A_x0310_0A

> <ROCS_TanimotoCombo>
0.646 

> <ROCS_ShapeTanimoto>
0.190 

> <ROCS_ColorTanimoto>
0.456 

> <ROCS_RefTversky>
0.177 

> <ROCS_RefColorTversky>
0.482 

> <ROCS_RefTverskyCombo>
0.658 

> <ROCS_FitTversky>
1.641 

> <ROCS_FitColorTversky>
0.895 

> <ROCS_FitTverskyCombo>
2.535 

> <ROCS_ColorScore>
-3.757

> <ROCS_Overlap>
1810.616

> <ROCS_Rank>
160                 

$$$$
untitled-dbase-608924_74
  -OEChem-02092421083D

 40 43  0     0  0  0  0  0  0999 V2000
    8.2542   12.4124   24.0684 C   0  0  0  0  0  0  0  0  0  0  0  0
    7.2901   11.9311   24.9471 C   0  0  0  0  0  0  0  0  0  0  0  0
    8.9980   10.1770   23.7422 C   0  0  0  0  0  0  0  0  0  0  0  0
    9.1283   11.5252   23.4503 C   0  0  0  0  0  0  0  0  0  0  0  0
    7.2419   10.5647   25.1718 C   0  0  0  0  0  0  0  0  0  0  0  0
   12.0011   15.1816   22.9504 C   0  0  0  0  0  0  0  0  0  0  0  0
   12.1363   16.5004   24.6866 C   0  0  0  0  0  0  0  0  0  0  0  0
   10.1575   12.0035   22.5146 C   0  0  0  0  0  0  0  0  0  0  0  0
   11.7700   13.9429   22.1638 C   0  0  0  0  0  0  0  0  0  0  0  0
    7.6267    8.7498   27.7639 C   0  0  0  0  0  0  0  0  0  0  0  0
    6.2614    8.9498   28.3560 C   0  0  0  0  0  0  0  0  0  0  0  0
   11.3623   14.1366   25.1142 C   0  0  0  0  0  0  0  0  0  0  0  0
   11.5597   12.8110   24.3856 C   0  0  0  0  0  0  0  0  0  0  0  0
    6.4355    8.9184   26.8645 C   0  0  0  0  0  0  0  0  0  0  0  0
   12.0628   16.9769   26.0789 C   0  0  0  0  0  0  0  0  0  0  0  0
    8.0740    9.6721   24.5900 N   0  0  0  0  0  0  0  0  0  0  0  0
   12.4099   16.3605   22.5282 N   0  0  0  0  0  0  0  0  0  0  0  0
   12.4943   17.1954   23.6289 N   0  0  0  0  0  0  0  0  0  0  0  0
   11.8222   15.2400   24.3038 N   0  0  0  0  0  0  0  0  0  0  0  0
   11.1136   12.9090   22.9885 N   0  0  0  0  0  0  0  0  0  0  0  0
    6.2548   10.0901   26.0709 N   0  0  0  0  0  0  0  0  0  0  0  0
   10.0937   11.5686   21.3655 O   0  0  0  0  0  0  0  0  0  0  0  0
    8.3165   13.4796   23.8738 H   0  0  0  0  0  0  0  0  0  0  0  0
    6.6034   12.6163   25.4337 H   0  0  0  0  0  0  0  0  0  0  0  0
    9.6513    9.4358   23.2914 H   0  0  0  0  0  0  0  0  0  0  0  0
   11.1697   14.1747   21.2800 H   0  0  0  0  0  0  0  0  0  0  0  0
   12.7273   13.5291   21.8285 H   0  0  0  0  0  0  0  0  0  0  0  0
    8.3335    9.5665   27.8423 H   0  0  0  0  0  0  0  0  0  0  0  0
    8.0685    7.7636   27.8365 H   0  0  0  0  0  0  0  0  0  0  0  0
    5.7859    8.0984   28.8268 H   0  0  0  0  0  0  0  0  0  0  0  0
    6.0544    9.9007   28.8317 H   0  0  0  0  0  0  0  0  0  0  0  0
   10.3017   14.3140   25.3238 H   0  0  0  0  0  0  0  0  0  0  0  0
   11.9199   14.1401   26.0562 H   0  0  0  0  0  0  0  0  0  0  0  0
   12.6227   12.5409   24.3597 H   0  0  0  0  0  0  0  0  0  0  0  0
   11.0311   12.0102   24.9126 H   0  0  0  0  0  0  0  0  0  0  0  0
    6.0847    8.0308   26.3495 H   0  0  0  0  0  0  0  0  0  0  0  0
   11.0645   17.3860   26.3094 H   0  0  0  0  0  0  0  0  0  0  0  0
   12.2686   16.1716   26.8060 H   0  0  0  0  0  0  0  0  0  0  0  0
   12.8036   17.7691   26.2875 H   0  0  0  0  0  0  0  0  0  0  0  0
    5.4088   10.6193   26.1272 H   0  0  0  0  0  0  0  0  0  0  0  0
  1  2  2  0  0  0  0
  1  4  1  0  0  0  0
  2  5  1  0  0  0  0
  3  4  2  0  0  0  0
  3 16  1  0  0  0  0
  4  8  1  0  0  0  0
  5 16  2  0  0  0  0
  5 21  1  0  0  0  0
  6  9  1  0  0  0  0
  6 17  2  0  0  0  0
  6 19  1  0  0  0  0
  7 15  1  0  0  0  0
  7 18  2  0  0  0  0
  7 19  1  0  0  0  0
  8 20  1  0  0  0  0
  8 22  2  0  0  0  0
  9 20  1  0  0  0  0
 10 11  1  0  0  0  0
 10 14  1  0  0  0  0
 11 14  1  0  0  0  0
 12 13  1  0  0  0  0
 12 19  1  0  0  0  0
 13 20  1  0  0  0  0
 14 21  1  0  0  0  0
 17 18  1  0  0  0  0
  1 23  1  0  0  0  0
  2 24  1  0  0  0  0
  3 25  1  0  0  0  0
  9 26  1  0  0  0  0
  9 27  1  0  0  0  0
 10 28  1  0  0  0  0
 10 29  1  0  0  0  0
 11 30  1  0  0  0  0
 11 31  1  0  0  0  0
 12 32  1  0  0  0  0
 12 33  1  0  0  0  0
 13 34  1  0  0  0  0
 13 35  1  0  0  0  0
 14 36  1  0  0  0  0
 15 37  1  0  0  0  0
 15 38  1  0  0  0  0
 15 39  1  0  0  0  0
 21 40  1  0  0  0  0
M  END
> <idnumber>
Z1139298285

> <heavy_atoms>
22

> <LogS>
-1.72

> <LogP>
0.01

> <rotating_bonds>
3

> <PSA>
75.94

> <hb_acceptors>
5

> <hb_donors>
1

> <Collection>
HTS

> <link>
https://www.enaminestore.com/catalog/Z1139298285

> <ROCS_ShapeQuery>
_x1140_x0812_0A_x1140_0A_x1097_0A_x0365_0A_x1097_0A_x0310_0A

> <ROCS_TanimotoCombo>
0.645 

> <ROCS_ShapeTanimoto>
0.236 

> <ROCS_ColorTanimoto>
0.410 

> <ROCS_RefTversky>
0.219 

> <ROCS_RefColorTversky>
0.591 

> <ROCS_RefTverskyCombo>
0.810 

> <ROCS_FitTversky>
1.494 

> <ROCS_FitColorTversky>
0.571 

> <ROCS_FitTverskyCombo>
2.065 

> <ROCS_ColorScore>
-4.740

> <ROCS_Overlap>
2246.674

> <ROCS_Rank>
161                 

$$$$
untitled-dbase-67313_18
  -OEChem-02092421083D

 30 31  0     0  0  0  0  0  0999 V2000
    8.5073   12.3825   24.2962 C   0  0  0  0  0  0  0  0  0  0  0  0
    8.7187   10.1487   23.5075 C   0  0  0  0  0  0  0  0  0  0  0  0
    9.0835   11.4816   23.4076 C   0  0  0  0  0  0  0  0  0  0  0  0
    7.5967   11.9293   25.2442 C   0  0  0  0  0  0  0  0  0  0  0  0
    7.2982   10.5764   25.2617 C   0  0  0  0  0  0  0  0  0  0  0  0
   10.0381   11.9233   22.4059 C   0  0  0  0  0  0  0  0  0  0  0  0
   11.9363   15.1364   21.6960 C   0  0  0  0  0  0  0  0  0  0  0  0
   13.0132   14.2870   22.3070 C   0  0  0  0  0  0  0  0  0  0  0  0
   11.7534   13.6489   21.7955 C   0  0  0  0  0  0  0  0  0  0  0  0
    4.8280    8.4190   25.4486 C   0  0  0  0  0  0  0  0  0  0  0  0
    6.0039    8.7209   26.3140 C   0  0  0  0  0  0  0  0  0  0  0  0
    7.8377    9.6712   24.4149 N   0  0  0  0  0  0  0  0  0  0  0  0
    6.3721   10.0959   26.2207 N   0  0  0  0  0  0  0  0  0  0  0  0
   10.7831   13.0726   22.6984 N   0  0  0  0  0  0  0  0  0  0  0  0
   10.1596   11.3064   21.3316 O   0  0  0  0  0  0  0  0  0  0  0  0
    6.8917   13.0587   26.3380 Cl  0  0  0  0  0  0  0  0  0  0  0  0
    8.7717   13.4364   24.2453 H   0  0  0  0  0  0  0  0  0  0  0  0
    9.1347    9.3985   22.8418 H   0  0  0  0  0  0  0  0  0  0  0  0
   11.3635   15.7742   22.3582 H   0  0  0  0  0  0  0  0  0  0  0  0
   12.1203   15.5577   20.7151 H   0  0  0  0  0  0  0  0  0  0  0  0
   13.9215   14.1366   21.7370 H   0  0  0  0  0  0  0  0  0  0  0  0
   13.1602   14.3545   23.3780 H   0  0  0  0  0  0  0  0  0  0  0  0
   11.8333   13.0870   20.8711 H   0  0  0  0  0  0  0  0  0  0  0  0
    5.0736    8.6502   24.4016 H   0  0  0  0  0  0  0  0  0  0  0  0
    4.5711    7.3532   25.5381 H   0  0  0  0  0  0  0  0  0  0  0  0
    3.9713    9.0307   25.7678 H   0  0  0  0  0  0  0  0  0  0  0  0
    5.7503    8.4871   27.3586 H   0  0  0  0  0  0  0  0  0  0  0  0
    6.8534    8.0992   25.9950 H   0  0  0  0  0  0  0  0  0  0  0  0
    5.9781   10.7733   26.8412 H   0  0  0  0  0  0  0  0  0  0  0  0
   10.6007   13.5744   23.5614 H   0  0  0  0  0  0  0  0  0  0  0  0
  1  3  2  0  0  0  0
  1  4  1  0  0  0  0
  2  3  1  0  0  0  0
  2 12  2  0  0  0  0
  3  6  1  0  0  0  0
  4  5  2  0  0  0  0
  4 16  1  0  0  0  0
  5 12  1  0  0  0  0
  5 13  1  0  0  0  0
  6 14  1  0  0  0  0
  6 15  2  0  0  0  0
  7  8  1  0  0  0  0
  7  9  1  0  0  0  0
  8  9  1  0  0  0  0
  9 14  1  0  0  0  0
 10 11  1  0  0  0  0
 11 13  1  0  0  0  0
  1 17  1  0  0  0  0
  2 18  1  0  0  0  0
  7 19  1  0  0  0  0
  7 20  1  0  0  0  0
  8 21  1  0  0  0  0
  8 22  1  0  0  0  0
  9 23  1  0  0  0  0
 10 24  1  0  0  0  0
 10 25  1  0  0  0  0
 10 26  1  0  0  0  0
 11 27  1  0  0  0  0
 11 28  1  0  0  0  0
 13 29  1  0  0  0  0
 14 30  1  0  0  0  0
M  END
> <idnumber>
Z960171294

> <heavy_atoms>
16

> <LogS>
-2.628

> <LogP>
2.52

> <rotating_bonds>
4

> <PSA>
54.02

> <hb_acceptors>
3

> <hb_donors>
2

> <Collection>
Advanced

> <link>
https://www.enaminestore.com/catalog/Z960171294

> <ROCS_ShapeQuery>
_x1140_x0812_0A_x1140_0A_x1097_0A_x0365_0A_x1097_0A_x0310_0A

> <ROCS_TanimotoCombo>
0.645 

> <ROCS_ShapeTanimoto>
0.234 

> <ROCS_ColorTanimoto>
0.412 

> <ROCS_RefTversky>
0.211 

> <ROCS_RefColorTversky>
0.483 

> <ROCS_RefTverskyCombo>
0.694 

> <ROCS_FitTversky>
1.817 

> <ROCS_FitColorTversky>
0.736 

> <ROCS_FitTverskyCombo>
2.553 

> <ROCS_ColorScore>
-3.791

> <ROCS_Overlap>
2168.250

> <ROCS_Rank>
162                 

$$$$
untitled-dbase-70255_53
  -OEChem-02092421083D

 32 32  0     0  0  0  0  0  0999 V2000
    8.8285   12.6476   24.4642 C   0  0  0  0  0  0  0  0  0  0  0  0
    7.9256   12.1086   25.3738 C   0  0  0  0  0  0  0  0  0  0  0  0
    9.4530   11.8188   23.5388 C   0  0  0  0  0  0  0  0  0  0  0  0
    7.6835   10.7455   25.3172 C   0  0  0  0  0  0  0  0  0  0  0  0
    9.1427   10.4687   23.5644 C   0  0  0  0  0  0  0  0  0  0  0  0
   13.2893   15.6652   22.5572 C   0  0  0  0  0  0  0  0  0  0  0  0
   11.2012   13.4655   22.7799 C   0  0  0  0  0  0  0  0  0  0  0  0
    6.7204   10.1330   26.2784 C   0  0  0  0  0  0  0  0  0  0  0  0
    9.7811    9.5272   22.5952 C   0  0  0  0  0  0  0  0  0  0  0  0
   14.5945   16.3036   22.9567 C   0  0  0  0  0  0  0  0  0  0  0  0
   13.3927   14.3418   21.8156 C   0  0  0  0  0  0  0  0  0  0  0  0
   12.0369   13.7046   21.5275 C   0  0  0  0  0  0  0  0  0  0  0  0
    8.2709    9.9087   24.4327 N   0  0  0  0  0  0  0  0  0  0  0  0
   10.3733   12.3592   22.6093 N   0  0  0  0  0  0  0  0  0  0  0  0
   12.2150   16.2030   22.8202 O   0  0  0  0  0  0  0  0  0  0  0  0
   11.2912   14.1816   23.7715 O   0  0  0  0  0  0  0  0  0  0  0  0
    9.0375   13.7140   24.4858 H   0  0  0  0  0  0  0  0  0  0  0  0
    7.4317   12.7443   26.1009 H   0  0  0  0  0  0  0  0  0  0  0  0
    5.7070   10.1405   25.8595 H   0  0  0  0  0  0  0  0  0  0  0  0
    6.9945    9.0958   26.5094 H   0  0  0  0  0  0  0  0  0  0  0  0
    6.7080   10.6785   27.2308 H   0  0  0  0  0  0  0  0  0  0  0  0
   10.7104    9.1248   23.0140 H   0  0  0  0  0  0  0  0  0  0  0  0
    9.1128    8.6909   22.3576 H   0  0  0  0  0  0  0  0  0  0  0  0
   10.0125   10.0308   21.6487 H   0  0  0  0  0  0  0  0  0  0  0  0
   14.9394   16.9635   22.1568 H   0  0  0  0  0  0  0  0  0  0  0  0
   14.4567   16.8703   23.8808 H   0  0  0  0  0  0  0  0  0  0  0  0
   15.3482   15.5295   23.1257 H   0  0  0  0  0  0  0  0  0  0  0  0
   13.9584   14.5047   20.8922 H   0  0  0  0  0  0  0  0  0  0  0  0
   13.9684   13.6639   22.4565 H   0  0  0  0  0  0  0  0  0  0  0  0
   12.1544   12.7546   20.9930 H   0  0  0  0  0  0  0  0  0  0  0  0
   11.4628   14.3813   20.8821 H   0  0  0  0  0  0  0  0  0  0  0  0
   10.4374   11.8837   21.7116 H   0  0  0  0  0  0  0  0  0  0  0  0
  1  2  2  0  0  0  0
  1  3  1  0  0  0  0
  2  4  1  0  0  0  0
  3  5  2  0  0  0  0
  3 14  1  0  0  0  0
  4  8  1  0  0  0  0
  4 13  2  0  0  0  0
  5  9  1  0  0  0  0
  5 13  1  0  0  0  0
  6 10  1  0  0  0  0
  6 11  1  0  0  0  0
  6 15  2  0  0  0  0
  7 12  1  0  0  0  0
  7 14  1  0  0  0  0
  7 16  2  0  0  0  0
 11 12  1  0  0  0  0
  1 17  1  0  0  0  0
  2 18  1  0  0  0  0
  8 19  1  0  0  0  0
  8 20  1  0  0  0  0
  8 21  1  0  0  0  0
  9 22  1  0  0  0  0
  9 23  1  0  0  0  0
  9 24  1  0  0  0  0
 10 25  1  0  0  0  0
 10 26  1  0  0  0  0
 10 27  1  0  0  0  0
 11 28  1  0  0  0  0
 11 29  1  0  0  0  0
 12 30  1  0  0  0  0
 12 31  1  0  0  0  0
 14 32  1  0  0  0  0
M  END
> <idnumber>
Z1375739966

> <heavy_atoms>
16

> <LogS>
-0.747

> <LogP>
0.809

> <rotating_bonds>
4

> <PSA>
59.06

> <hb_acceptors>
3

> <hb_donors>
1

> <Collection>
HTS

> <link>
https://www.enaminestore.com/catalog/Z1375739966

> <ROCS_ShapeQuery>
_x1140_x0812_0A_x1140_0A_x1097_0A_x0365_0A_x1097_0A_x0310_0A

> <ROCS_TanimotoCombo>
0.645 

> <ROCS_ShapeTanimoto>
0.234 

> <ROCS_ColorTanimoto>
0.411 

> <ROCS_RefTversky>
0.211 

> <ROCS_RefColorTversky>
0.483 

> <ROCS_RefTverskyCombo>
0.694 

> <ROCS_FitTversky>
1.823 

> <ROCS_FitColorTversky>
0.736 

> <ROCS_FitTverskyCombo>
2.559 

> <ROCS_ColorScore>
-3.790

> <ROCS_Overlap>
2167.576

> <ROCS_Rank>
163                 

$$$$
untitled-dbase-582737_134
  -OEChem-02092421083D

 36 37  0     0  0  0  0  0  0999 V2000
    8.4084   12.5284   24.4593 C   0  0  0  0  0  0  0  0  0  0  0  0
    7.5445   11.9856   25.4041 C   0  0  0  0  0  0  0  0  0  0  0  0
    9.1648   11.6860   23.6521 C   0  0  0  0  0  0  0  0  0  0  0  0
    9.0220   10.3191   23.8276 C   0  0  0  0  0  0  0  0  0  0  0  0
    7.4742   10.6052   25.5011 C   0  0  0  0  0  0  0  0  0  0  0  0
   10.0843   12.2756   22.6464 C   0  0  0  0  0  0  0  0  0  0  0  0
   11.2880   15.6448   22.3510 C   0  0  0  0  0  0  0  0  0  0  0  0
    7.1970   16.6247   22.5071 C   0  0  0  0  0  0  0  0  0  0  0  0
    8.2391   17.1388   23.4991 C   0  0  0  0  0  0  0  0  0  0  0  0
    7.7114   15.3927   21.7639 C   0  0  0  0  0  0  0  0  0  0  0  0
    9.5825   17.3765   22.8149 C   0  0  0  0  0  0  0  0  0  0  0  0
    9.0661   15.6626   21.1126 C   0  0  0  0  0  0  0  0  0  0  0  0
   11.4380   14.1539   22.1826 C   0  0  0  0  0  0  0  0  0  0  0  0
    8.1933    9.7549   24.7345 N   0  0  0  0  0  0  0  0  0  0  0  0
   10.0245   16.1781   22.0984 N   0  0  0  0  0  0  0  0  0  0  0  0
    9.7899    9.4540   23.0083 N   0  0  0  0  0  0  0  0  0  0  0  0
   10.3680   11.7247   21.5940 O   0  0  0  0  0  0  0  0  0  0  0  0
   12.2648   16.3133   22.6987 O   0  0  0  0  0  0  0  0  0  0  0  0
   10.5513   13.4905   23.0597 O   0  0  0  0  0  0  0  0  0  0  0  0
    6.4360    9.8479   26.6379 Cl  0  0  0  0  0  0  0  0  0  0  0  0
    8.4835   13.6082   24.3616 H   0  0  0  0  0  0  0  0  0  0  0  0
    6.9502   12.6344   26.0387 H   0  0  0  0  0  0  0  0  0  0  0  0
    6.2686   16.3807   23.0353 H   0  0  0  0  0  0  0  0  0  0  0  0
    6.9585   17.4148   21.7847 H   0  0  0  0  0  0  0  0  0  0  0  0
    7.8857   18.0713   23.9532 H   0  0  0  0  0  0  0  0  0  0  0  0
    8.3647   16.4125   24.3115 H   0  0  0  0  0  0  0  0  0  0  0  0
    7.8021   14.5515   22.4625 H   0  0  0  0  0  0  0  0  0  0  0  0
    6.9859   15.0972   20.9979 H   0  0  0  0  0  0  0  0  0  0  0  0
    9.5000   18.1852   22.0790 H   0  0  0  0  0  0  0  0  0  0  0  0
   10.3257   17.6846   23.5571 H   0  0  0  0  0  0  0  0  0  0  0  0
    9.4235   14.7508   20.6310 H   0  0  0  0  0  0  0  0  0  0  0  0
    8.9678   16.4245   20.3301 H   0  0  0  0  0  0  0  0  0  0  0  0
   12.4599   13.8616   22.4062 H   0  0  0  0  0  0  0  0  0  0  0  0
   11.1950   13.8871   21.1583 H   0  0  0  0  0  0  0  0  0  0  0  0
   10.3708    9.8504   22.3023 H   0  0  0  0  0  0  0  0  0  0  0  0
    9.6597    8.4697   23.0942 H   0  0  0  0  0  0  0  0  0  0  0  0
  1  2  2  0  0  0  0
  1  3  1  0  0  0  0
  2  5  1  0  0  0  0
  3  4  2  0  0  0  0
  3  6  1  0  0  0  0
  4 14  1  0  0  0  0
  4 16  1  0  0  0  0
  5 14  2  0  0  0  0
  5 20  1  0  0  0  0
  6 17  2  0  0  0  0
  6 19  1  0  0  0  0
  7 13  1  0  0  0  0
  7 15  1  0  0  0  0
  7 18  2  0  0  0  0
  8  9  1  0  0  0  0
  8 10  1  0  0  0  0
  9 11  1  0  0  0  0
 10 12  1  0  0  0  0
 11 15  1  0  0  0  0
 12 15  1  0  0  0  0
 13 19  1  0  0  0  0
  1 21  1  0  0  0  0
  2 22  1  0  0  0  0
  8 23  1  0  0  0  0
  8 24  1  0  0  0  0
  9 25  1  0  0  0  0
  9 26  1  0  0  0  0
 10 27  1  0  0  0  0
 10 28  1  0  0  0  0
 11 29  1  0  0  0  0
 11 30  1  0  0  0  0
 12 31  1  0  0  0  0
 12 32  1  0  0  0  0
 13 33  1  0  0  0  0
 13 34  1  0  0  0  0
 16 35  1  0  0  0  0
 16 36  1  0  0  0  0
M  END
> <idnumber>
Z1127657682

> <heavy_atoms>
20

> <LogS>
-3.48

> <LogP>
2.087

> <rotating_bonds>
4

> <PSA>
85.52

> <hb_acceptors>
4

> <hb_donors>
1

> <Collection>
Legacy

> <link>
https://www.enaminestore.com/catalog/Z1127657682

> <ROCS_ShapeQuery>
_x1140_x0812_0A_x1140_0A_x1097_0A_x0365_0A_x1097_0A_x0310_0A

> <ROCS_TanimotoCombo>
0.645 

> <ROCS_ShapeTanimoto>
0.237 

> <ROCS_ColorTanimoto>
0.408 

> <ROCS_RefTversky>
0.217 

> <ROCS_RefColorTversky>
0.547 

> <ROCS_RefTverskyCombo>
0.764 

> <ROCS_FitTversky>
1.621 

> <ROCS_FitColorTversky>
0.617 

> <ROCS_FitTverskyCombo>
2.238 

> <ROCS_ColorScore>
-4.353

> <ROCS_Overlap>
2226.381

> <ROCS_Rank>
164                 

$$$$
untitled-dbase-677256_135
  -OEChem-02092421083D

 37 38  0     0  0  0  0  0  0999 V2000
    9.1303   12.5009   24.2292 C   0  0  0  0  0  0  0  0  0  0  0  0
    8.2618   12.2997   25.2962 C   0  0  0  0  0  0  0  0  0  0  0  0
   12.5309   15.1263   23.0568 C   0  0  0  0  0  0  0  0  0  0  0  0
   11.8307   15.3375   20.9831 C   0  0  0  0  0  0  0  0  0  0  0  0
    9.4770   11.4315   23.4110 C   0  0  0  0  0  0  0  0  0  0  0  0
   12.2881   14.3994   21.8760 C   0  0  0  0  0  0  0  0  0  0  0  0
    7.7714   11.0201   25.5009 C   0  0  0  0  0  0  0  0  0  0  0  0
    8.9324   10.1907   23.7002 C   0  0  0  0  0  0  0  0  0  0  0  0
   10.3963   11.6425   22.2816 C   0  0  0  0  0  0  0  0  0  0  0  0
    9.2679    9.0036   22.8567 C   0  0  0  0  0  0  0  0  0  0  0  0
   11.4246   17.8056   21.1319 C   0  0  0  0  0  0  0  0  0  0  0  0
   12.3073   11.7992   23.8300 C   0  0  0  0  0  0  0  0  0  0  0  0
   12.4864   12.9297   21.6417 C   0  0  0  0  0  0  0  0  0  0  0  0
    6.8371   10.7670   26.6368 C   0  0  0  0  0  0  0  0  0  0  0  0
   12.2512   16.4261   22.9289 N   0  0  0  0  0  0  0  0  0  0  0  0
    8.0855    9.9566   24.7276 N   0  0  0  0  0  0  0  0  0  0  0  0
   11.8279   16.5232   21.6571 N   0  0  0  0  0  0  0  0  0  0  0  0
   11.6836   12.1174   22.5532 N   0  0  0  0  0  0  0  0  0  0  0  0
    9.9587   11.3677   21.1648 O   0  0  0  0  0  0  0  0  0  0  0  0
    6.5622   11.8812   27.3769 F   0  0  0  0  0  0  0  0  0  0  0  0
    5.6193   10.2890   26.2457 F   0  0  0  0  0  0  0  0  0  0  0  0
    7.3244    9.8498   27.5218 F   0  0  0  0  0  0  0  0  0  0  0  0
    9.5302   13.4947   24.0453 H   0  0  0  0  0  0  0  0  0  0  0  0
    7.9835   13.1255   25.9421 H   0  0  0  0  0  0  0  0  0  0  0  0
   12.9009   14.7655   24.0061 H   0  0  0  0  0  0  0  0  0  0  0  0
   11.5161   15.2644   19.9509 H   0  0  0  0  0  0  0  0  0  0  0  0
   10.1528    8.4941   23.2543 H   0  0  0  0  0  0  0  0  0  0  0  0
    8.4356    8.2901   22.8291 H   0  0  0  0  0  0  0  0  0  0  0  0
    9.4701    9.2996   21.8201 H   0  0  0  0  0  0  0  0  0  0  0  0
   10.3546   17.9260   21.3205 H   0  0  0  0  0  0  0  0  0  0  0  0
   11.9919   18.5974   21.6290 H   0  0  0  0  0  0  0  0  0  0  0  0
   11.6307   17.8375   20.0584 H   0  0  0  0  0  0  0  0  0  0  0  0
   12.8693   10.8579   23.7396 H   0  0  0  0  0  0  0  0  0  0  0  0
   12.9938   12.6101   24.1147 H   0  0  0  0  0  0  0  0  0  0  0  0
   11.5299   11.6894   24.6004 H   0  0  0  0  0  0  0  0  0  0  0  0
   12.2082   12.6611   20.6167 H   0  0  0  0  0  0  0  0  0  0  0  0
   13.5358   12.6480   21.7783 H   0  0  0  0  0  0  0  0  0  0  0  0
  1  2  2  0  0  0  0
  1  5  1  0  0  0  0
  2  7  1  0  0  0  0
  3  6  1  0  0  0  0
  3 15  2  0  0  0  0
  4  6  2  0  0  0  0
  4 17  1  0  0  0  0
  5  8  2  0  0  0  0
  5  9  1  0  0  0  0
  6 13  1  0  0  0  0
  7 14  1  0  0  0  0
  7 16  2  0  0  0  0
  8 10  1  0  0  0  0
  8 16  1  0  0  0  0
  9 18  1  0  0  0  0
  9 19  2  0  0  0  0
 11 17  1  0  0  0  0
 12 18  1  0  0  0  0
 13 18  1  0  0  0  0
 14 20  1  0  0  0  0
 14 21  1  0  0  0  0
 14 22  1  0  0  0  0
 15 17  1  0  0  0  0
  1 23  1  0  0  0  0
  2 24  1  0  0  0  0
  3 25  1  0  0  0  0
  4 26  1  0  0  0  0
 10 27  1  0  0  0  0
 10 28  1  0  0  0  0
 10 29  1  0  0  0  0
 11 30  1  0  0  0  0
 11 31  1  0  0  0  0
 11 32  1  0  0  0  0
 12 33  1  0  0  0  0
 12 34  1  0  0  0  0
 12 35  1  0  0  0  0
 13 36  1  0  0  0  0
 13 37  1  0  0  0  0
M  END
> <idnumber>
Z339932428

> <heavy_atoms>
22

> <LogS>
-1.877

> <LogP>
1.256

> <rotating_bonds>
4

> <PSA>
51.02

> <hb_acceptors>
3

> <hb_donors>
0

> <Collection>
HTS

> <link>
https://www.enaminestore.com/catalog/Z339932428

> <ROCS_ShapeQuery>
_x1140_x0812_0A_x1140_0A_x1097_0A_x0365_0A_x1097_0A_x0310_0A

> <ROCS_TanimotoCombo>
0.645 

> <ROCS_ShapeTanimoto>
0.262 

> <ROCS_ColorTanimoto>
0.383 

> <ROCS_RefTversky>
0.238 

> <ROCS_RefColorTversky>
0.459 

> <ROCS_RefTverskyCombo>
0.696 

> <ROCS_FitTversky>
1.638 

> <ROCS_FitColorTversky>
0.699 

> <ROCS_FitTverskyCombo>
2.338 

> <ROCS_ColorScore>
-3.600

> <ROCS_Overlap>
2441.845

> <ROCS_Rank>
165                 

$$$$
untitled-dbase-174016_195
  -OEChem-02092421083D

 44 46  0     0  0  0  0  0  0999 V2000
    8.6307   12.4918   24.3776 C   0  0  0  0  0  0  0  0  0  0  0  0
    7.6165   12.0131   25.1996 C   0  0  0  0  0  0  0  0  0  0  0  0
    9.0395   10.2586   23.6689 C   0  0  0  0  0  0  0  0  0  0  0  0
    9.3605   11.6045   23.5945 C   0  0  0  0  0  0  0  0  0  0  0  0
    7.3735   10.6490   25.2020 C   0  0  0  0  0  0  0  0  0  0  0  0
   12.2692   15.0627   23.3382 C   0  0  0  0  0  0  0  0  0  0  0  0
   10.4375   12.0804   22.7140 C   0  0  0  0  0  0  0  0  0  0  0  0
   12.2244   13.7731   22.5418 C   0  0  0  0  0  0  0  0  0  0  0  0
   14.0206   16.1691   26.3903 C   0  0  0  0  0  0  0  0  0  0  0  0
   13.7473   17.1101   25.2527 C   0  0  0  0  0  0  0  0  0  0  0  0
   12.9420   13.5623   25.1783 C   0  0  0  0  0  0  0  0  0  0  0  0
   11.9813   12.4965   24.6716 C   0  0  0  0  0  0  0  0  0  0  0  0
   12.7681   16.0178   25.5751 C   0  0  0  0  0  0  0  0  0  0  0  0
    4.5050    9.3823   24.7108 C   0  0  0  0  0  0  0  0  0  0  0  0
    4.9426    8.4879   27.0248 C   0  0  0  0  0  0  0  0  0  0  0  0
    5.5642    9.0175   25.7408 C   0  0  0  0  0  0  0  0  0  0  0  0
    8.0613    9.7562   24.4553 N   0  0  0  0  0  0  0  0  0  0  0  0
   12.5813   14.8842   24.6853 N   0  0  0  0  0  0  0  0  0  0  0  0
   11.5163   12.7507   23.3038 N   0  0  0  0  0  0  0  0  0  0  0  0
    6.3379   10.1766   26.0459 N   0  0  0  0  0  0  0  0  0  0  0  0
   12.1605   16.1532   22.7782 O   0  0  0  0  0  0  0  0  0  0  0  0
   10.3027   11.8513   21.5133 O   0  0  0  0  0  0  0  0  0  0  0  0
    8.8447   13.5569   24.3561 H   0  0  0  0  0  0  0  0  0  0  0  0
    7.0416   12.6986   25.8139 H   0  0  0  0  0  0  0  0  0  0  0  0
    9.5737    9.5174   23.0821 H   0  0  0  0  0  0  0  0  0  0  0  0
   11.6641   13.9503   21.6408 H   0  0  0  0  0  0  0  0  0  0  0  0
   13.2301   13.4740   22.3269 H   0  0  0  0  0  0  0  0  0  0  0  0
   14.8133   15.4423   26.2614 H   0  0  0  0  0  0  0  0  0  0  0  0
   13.9231   16.5530   27.3986 H   0  0  0  0  0  0  0  0  0  0  0  0
   13.4657   18.1272   25.4958 H   0  0  0  0  0  0  0  0  0  0  0  0
   14.3556   17.0125   24.3618 H   0  0  0  0  0  0  0  0  0  0  0  0
   12.9294   13.5685   26.2684 H   0  0  0  0  0  0  0  0  0  0  0  0
   13.9561   13.3500   24.8372 H   0  0  0  0  0  0  0  0  0  0  0  0
   12.4608   11.4993   24.7364 H   0  0  0  0  0  0  0  0  0  0  0  0
   11.0822   12.4389   25.3190 H   0  0  0  0  0  0  0  0  0  0  0  0
   11.8406   16.3203   26.0493 H   0  0  0  0  0  0  0  0  0  0  0  0
    3.8192   10.1379   25.1075 H   0  0  0  0  0  0  0  0  0  0  0  0
    4.9575    9.7792   23.7951 H   0  0  0  0  0  0  0  0  0  0  0  0
    3.9152    8.5023   24.4315 H   0  0  0  0  0  0  0  0  0  0  0  0
    4.2637    9.2285   27.4616 H   0  0  0  0  0  0  0  0  0  0  0  0
    5.7150    8.2575   27.7658 H   0  0  0  0  0  0  0  0  0  0  0  0
    4.3620    7.5767   26.8424 H   0  0  0  0  0  0  0  0  0  0  0  0
    6.2379    8.2615   25.3228 H   0  0  0  0  0  0  0  0  0  0  0  0
    6.1667   10.6995   26.8804 H   0  0  0  0  0  0  0  0  0  0  0  0
  1  2  2  0  0  0  0
  1  4  1  0  0  0  0
  2  5  1  0  0  0  0
  3  4  2  0  0  0  0
  3 17  1  0  0  0  0
  4  7  1  0  0  0  0
  5 17  2  0  0  0  0
  5 20  1  0  0  0  0
  6  8  1  0  0  0  0
  6 18  1  0  0  0  0
  6 21  2  0  0  0  0
  7 19  1  0  0  0  0
  7 22  2  0  0  0  0
  8 19  1  0  0  0  0
  9 10  1  0  0  0  0
  9 13  1  0  0  0  0
 10 13  1  0  0  0  0
 11 12  1  0  0  0  0
 11 18  1  0  0  0  0
 12 19  1  0  0  0  0
 13 18  1  0  0  0  0
 14 16  1  0  0  0  0
 15 16  1  0  0  0  0
 16 20  1  0  0  0  0
  1 23  1  0  0  0  0
  2 24  1  0  0  0  0
  3 25  1  0  0  0  0
  8 26  1  0  0  0  0
  8 27  1  0  0  0  0
  9 28  1  0  0  0  0
  9 29  1  0  0  0  0
 10 30  1  0  0  0  0
 10 31  1  0  0  0  0
 11 32  1  0  0  0  0
 11 33  1  0  0  0  0
 12 34  1  0  0  0  0
 12 35  1  0  0  0  0
 13 36  1  0  0  0  0
 14 37  1  0  0  0  0
 14 38  1  0  0  0  0
 14 39  1  0  0  0  0
 15 40  1  0  0  0  0
 15 41  1  0  0  0  0
 15 42  1  0  0  0  0
 16 43  1  0  0  0  0
 20 44  1  0  0  0  0
M  END
> <idnumber>
Z1371683654

> <heavy_atoms>
22

> <LogS>
-2.55

> <LogP>
1.89

> <rotating_bonds>
4

> <PSA>
65.54

> <hb_acceptors>
4

> <hb_donors>
1

> <Collection>
HTS

> <link>
https://www.enaminestore.com/catalog/Z1371683654

> <ROCS_ShapeQuery>
_x1140_x0812_0A_x1140_0A_x1097_0A_x0365_0A_x1097_0A_x0310_0A

> <ROCS_TanimotoCombo>
0.645 

> <ROCS_ShapeTanimoto>
0.232 

> <ROCS_ColorTanimoto>
0.413 

> <ROCS_RefTversky>
0.215 

> <ROCS_RefColorTversky>
0.552 

> <ROCS_RefTverskyCombo>
0.767 

> <ROCS_FitTversky>
1.502 

> <ROCS_FitColorTversky>
0.622 

> <ROCS_FitTverskyCombo>
2.124 

> <ROCS_ColorScore>
-4.387

> <ROCS_Overlap>
2207.705

> <ROCS_Rank>
166                 

$$$$
untitled-dbase-336378_157
  -OEChem-02092421083D

 38 39  0     0  0  0  0  0  0999 V2000
    7.7497   11.9334   23.7622 C   0  0  0  0  0  0  0  0  0  0  0  0
    7.2794   10.8024   24.4561 C   0  0  0  0  0  0  0  0  0  0  0  0
    9.0744   11.6622   23.5215 C   0  0  0  0  0  0  0  0  0  0  0  0
   10.8099   14.8573   24.2893 C   0  0  0  0  0  0  0  0  0  0  0  0
   10.8344   14.6230   22.9668 C   0  0  0  0  0  0  0  0  0  0  0  0
   11.7976   15.7739   24.9439 C   0  0  0  0  0  0  0  0  0  0  0  0
   11.8428   15.3094   22.0806 C   0  0  0  0  0  0  0  0  0  0  0  0
   12.9747   16.0680   24.0204 C   0  0  0  0  0  0  0  0  0  0  0  0
   10.2131    8.6744   21.7718 C   0  0  0  0  0  0  0  0  0  0  0  0
   12.4949    8.7483   22.7986 C   0  0  0  0  0  0  0  0  0  0  0  0
    9.8810   13.6813   22.2974 C   0  0  0  0  0  0  0  0  0  0  0  0
   10.5568    9.7050   24.0740 C   0  0  0  0  0  0  0  0  0  0  0  0
   11.1543    9.4752   22.6745 C   0  0  0  0  0  0  0  0  0  0  0  0
    8.2282    9.8813   24.6440 N   0  0  0  0  0  0  0  0  0  0  0  0
    9.3079   10.4330   24.0645 N   0  0  0  0  0  0  0  0  0  0  0  0
   10.0753   12.3858   22.8816 N   0  0  0  0  0  0  0  0  0  0  0  0
   12.4884   16.4151   22.7250 O   0  0  0  0  0  0  0  0  0  0  0  0
    7.2013   12.8202   23.4781 H   0  0  0  0  0  0  0  0  0  0  0  0
    6.2849   10.6114   24.8327 H   0  0  0  0  0  0  0  0  0  0  0  0
   10.0624   14.3875   24.9213 H   0  0  0  0  0  0  0  0  0  0  0  0
   11.3116   16.7127   25.2293 H   0  0  0  0  0  0  0  0  0  0  0  0
   12.1528   15.2893   25.8607 H   0  0  0  0  0  0  0  0  0  0  0  0
   12.6335   14.6067   21.7982 H   0  0  0  0  0  0  0  0  0  0  0  0
   11.3634   15.6645   21.1612 H   0  0  0  0  0  0  0  0  0  0  0  0
   13.6035   16.8791   24.4084 H   0  0  0  0  0  0  0  0  0  0  0  0
   13.6051   15.1784   23.9221 H   0  0  0  0  0  0  0  0  0  0  0  0
    9.9963    7.6944   22.2104 H   0  0  0  0  0  0  0  0  0  0  0  0
    9.2617    9.1968   21.6263 H   0  0  0  0  0  0  0  0  0  0  0  0
   10.6602    8.4987   20.7885 H   0  0  0  0  0  0  0  0  0  0  0  0
   12.3650    7.7703   23.2739 H   0  0  0  0  0  0  0  0  0  0  0  0
   12.9400    8.5823   21.8120 H   0  0  0  0  0  0  0  0  0  0  0  0
   13.2062    9.3253   23.3993 H   0  0  0  0  0  0  0  0  0  0  0  0
   10.1003   13.6625   21.2308 H   0  0  0  0  0  0  0  0  0  0  0  0
    8.8648   14.0347   22.4667 H   0  0  0  0  0  0  0  0  0  0  0  0
   10.3932    8.7519   24.5918 H   0  0  0  0  0  0  0  0  0  0  0  0
   11.2481   10.2869   24.6972 H   0  0  0  0  0  0  0  0  0  0  0  0
   11.3405   10.4442   22.1944 H   0  0  0  0  0  0  0  0  0  0  0  0
   10.9995   11.9614   22.8283 H   0  0  0  0  0  0  0  0  0  0  0  0
  1  2  1  0  0  0  0
  1  3  2  0  0  0  0
  2 14  2  0  0  0  0
  3 15  1  0  0  0  0
  3 16  1  0  0  0  0
  4  5  2  0  0  0  0
  4  6  1  0  0  0  0
  5  7  1  0  0  0  0
  5 11  1  0  0  0  0
  6  8  1  0  0  0  0
  7 17  1  0  0  0  0
  8 17  1  0  0  0  0
  9 13  1  0  0  0  0
 10 13  1  0  0  0  0
 11 16  1  0  0  0  0
 12 13  1  0  0  0  0
 12 15  1  0  0  0  0
 14 15  1  0  0  0  0
  1 18  1  0  0  0  0
  2 19  1  0  0  0  0
  4 20  1  0  0  0  0
  6 21  1  0  0  0  0
  6 22  1  0  0  0  0
  7 23  1  0  0  0  0
  7 24  1  0  0  0  0
  8 25  1  0  0  0  0
  8 26  1  0  0  0  0
  9 27  1  0  0  0  0
  9 28  1  0  0  0  0
  9 29  1  0  0  0  0
 10 30  1  0  0  0  0
 10 31  1  0  0  0  0
 10 32  1  0  0  0  0
 11 33  1  0  0  0  0
 11 34  1  0  0  0  0
 12 35  1  0  0  0  0
 12 36  1  0  0  0  0
 13 37  1  0  0  0  0
 16 38  1  0  0  0  0
M  END
> <idnumber>
Z1460393881

> <heavy_atoms>
17

> <LogS>
-2.016

> <LogP>
1.657

> <rotating_bonds>
5

> <PSA>
39.08

> <hb_acceptors>
3

> <hb_donors>
1

> <Collection>
HTS

> <link>
https://www.enaminestore.com/catalog/Z1460393881

> <ROCS_ShapeQuery>
_x1140_x0812_0A_x1140_0A_x1097_0A_x0365_0A_x1097_0A_x0310_0A

> <ROCS_TanimotoCombo>
0.645 

> <ROCS_ShapeTanimoto>
0.206 

> <ROCS_ColorTanimoto>
0.439 

> <ROCS_RefTversky>
0.192 

> <ROCS_RefColorTversky>
0.540 

> <ROCS_RefTverskyCombo>
0.732 

> <ROCS_FitTversky>
1.587 

> <ROCS_FitColorTversky>
0.700 

> <ROCS_FitTverskyCombo>
2.287 

> <ROCS_ColorScore>
-4.268

> <ROCS_Overlap>
1967.720

> <ROCS_Rank>
167                 

$$$$
untitled-dbase-247435_89
  -OEChem-02092421083D

 37 39  0     0  0  0  0  0  0999 V2000
    8.6708   12.5769   24.6834 C   0  0  0  0  0  0  0  0  0  0  0  0
    7.6801   11.9901   25.4628 C   0  0  0  0  0  0  0  0  0  0  0  0
    8.9747   10.4874   23.5890 C   0  0  0  0  0  0  0  0  0  0  0  0
    9.3353   11.8181   23.7264 C   0  0  0  0  0  0  0  0  0  0  0  0
    7.3935   10.6517   25.2475 C   0  0  0  0  0  0  0  0  0  0  0  0
   10.6965   12.0310   21.6225 C   0  0  0  0  0  0  0  0  0  0  0  0
    4.0168   10.7381   28.7970 C   0  0  0  0  0  0  0  0  0  0  0  0
    5.3338   11.2480   29.3888 C   0  0  0  0  0  0  0  0  0  0  0  0
   11.4955   14.0895   20.3157 C   0  0  0  0  0  0  0  0  0  0  0  0
   12.0200   14.2260   21.7133 C   0  0  0  0  0  0  0  0  0  0  0  0
    4.3765   10.0934   27.4611 C   0  0  0  0  0  0  0  0  0  0  0  0
    6.4186   10.8854   28.3780 C   0  0  0  0  0  0  0  0  0  0  0  0
   11.8321   12.8816   21.1113 C   0  0  0  0  0  0  0  0  0  0  0  0
    5.6648   10.7999   27.0563 C   0  0  0  0  0  0  0  0  0  0  0  0
    8.0175    9.8824   24.3275 N   0  0  0  0  0  0  0  0  0  0  0  0
   10.3328   12.3784   22.9320 N   0  0  0  0  0  0  0  0  0  0  0  0
    6.4030   10.0797   26.0344 N   0  0  0  0  0  0  0  0  0  0  0  0
   10.1977   11.1596   20.9177 O   0  0  0  0  0  0  0  0  0  0  0  0
    8.9175   13.6250   24.8309 H   0  0  0  0  0  0  0  0  0  0  0  0
    7.1551   12.5754   26.2111 H   0  0  0  0  0  0  0  0  0  0  0  0
    9.4580    9.8437   22.8601 H   0  0  0  0  0  0  0  0  0  0  0  0
    3.5190   10.0257   29.4626 H   0  0  0  0  0  0  0  0  0  0  0  0
    3.3304   11.5787   28.6424 H   0  0  0  0  0  0  0  0  0  0  0  0
    5.2838   12.3349   29.5214 H   0  0  0  0  0  0  0  0  0  0  0  0
    5.5382   10.8064   30.3692 H   0  0  0  0  0  0  0  0  0  0  0  0
   10.4592   14.3503   20.1388 H   0  0  0  0  0  0  0  0  0  0  0  0
   12.1642   14.3342   19.4994 H   0  0  0  0  0  0  0  0  0  0  0  0
   13.0417   14.5633   21.8381 H   0  0  0  0  0  0  0  0  0  0  0  0
   11.3357   14.5809   22.4745 H   0  0  0  0  0  0  0  0  0  0  0  0
    4.5437    9.0191   27.6111 H   0  0  0  0  0  0  0  0  0  0  0  0
    3.5809   10.2123   26.7191 H   0  0  0  0  0  0  0  0  0  0  0  0
    7.2240   11.6260   28.3559 H   0  0  0  0  0  0  0  0  0  0  0  0
    6.8558    9.9151   28.6460 H   0  0  0  0  0  0  0  0  0  0  0  0
   12.6904   12.3029   20.8468 H   0  0  0  0  0  0  0  0  0  0  0  0
    5.4329   11.8173   26.6873 H   0  0  0  0  0  0  0  0  0  0  0  0
   10.8753   13.1444   23.3503 H   0  0  0  0  0  0  0  0  0  0  0  0
    6.1856    9.0986   25.8839 H   0  0  0  0  0  0  0  0  0  0  0  0
  1  2  2  0  0  0  0
  1  4  1  0  0  0  0
  2  5  1  0  0  0  0
  3  4  2  0  0  0  0
  3 15  1  0  0  0  0
  4 16  1  0  0  0  0
  5 15  2  0  0  0  0
  5 17  1  0  0  0  0
  6 13  1  0  0  0  0
  6 16  1  0  0  0  0
  6 18  2  0  0  0  0
  7  8  1  0  0  0  0
  7 11  1  0  0  0  0
  8 12  1  0  0  0  0
  9 10  1  0  0  0  0
  9 13  1  0  0  0  0
 10 13  1  0  0  0  0
 11 14  1  0  0  0  0
 12 14  1  0  0  0  0
 14 17  1  0  0  0  0
  1 19  1  0  0  0  0
  2 20  1  0  0  0  0
  3 21  1  0  0  0  0
  7 22  1  0  0  0  0
  7 23  1  0  0  0  0
  8 24  1  0  0  0  0
  8 25  1  0  0  0  0
  9 26  1  0  0  0  0
  9 27  1  0  0  0  0
 10 28  1  0  0  0  0
 10 29  1  0  0  0  0
 11 30  1  0  0  0  0
 11 31  1  0  0  0  0
 12 32  1  0  0  0  0
 12 33  1  0  0  0  0
 13 34  1  0  0  0  0
 14 35  1  0  0  0  0
 16 36  1  0  0  0  0
 17 37  1  0  0  0  0
M  END
> <idnumber>
Z1033339770

> <heavy_atoms>
18

> <LogS>
-2.775

> <LogP>
3.019

> <rotating_bonds>
4

> <PSA>
54.02

> <hb_acceptors>
3

> <hb_donors>
2

> <Collection>
Advanced

> <link>
https://www.enaminestore.com/catalog/Z1033339770

> <ROCS_ShapeQuery>
_x1140_x0812_0A_x1140_0A_x1097_0A_x0365_0A_x1097_0A_x0310_0A

> <ROCS_TanimotoCombo>
0.645 

> <ROCS_ShapeTanimoto>
0.221 

> <ROCS_ColorTanimoto>
0.424 

> <ROCS_RefTversky>
0.204 

> <ROCS_RefColorTversky>
0.528 

> <ROCS_RefTverskyCombo>
0.731 

> <ROCS_FitTversky>
1.613 

> <ROCS_FitColorTversky>
0.684 

> <ROCS_FitTverskyCombo>
2.296 

> <ROCS_ColorScore>
-4.170

> <ROCS_Overlap>
2089.512

> <ROCS_Rank>
168                 

$$$$
untitled-dbase-459926_154
  -OEChem-02092421083D

 24 24  0     0  0  0  0  0  0999 V2000
   13.0843   15.6592   22.1594 C   0  0  0  0  0  0  0  0  0  0  0  0
    7.6356   11.4214   25.3094 C   0  0  0  0  0  0  0  0  0  0  0  0
    8.7803    9.4199   24.5880 C   0  0  0  0  0  0  0  0  0  0  0  0
    9.4638   11.5754   23.7375 C   0  0  0  0  0  0  0  0  0  0  0  0
    7.7893   10.0358   25.3524 C   0  0  0  0  0  0  0  0  0  0  0  0
    8.4728   12.1913   24.5019 C   0  0  0  0  0  0  0  0  0  0  0  0
    9.6176   10.1897   23.7806 C   0  0  0  0  0  0  0  0  0  0  0  0
   10.4650   12.2826   21.5402 C   0  0  0  0  0  0  0  0  0  0  0  0
   13.8371   14.5805   21.5161 C   0  0  0  0  0  0  0  0  0  0  0  0
   11.4680   13.2918   21.0235 C   0  0  0  0  0  0  0  0  0  0  0  0
   12.4913   16.5180   22.6668 N   0  0  0  0  0  0  0  0  0  0  0  0
   10.3029   12.3523   22.9276 N   0  0  0  0  0  0  0  0  0  0  0  0
    9.9065   11.5076   20.7679 O   0  0  0  0  0  0  0  0  0  0  0  0
    6.9841    9.2965   26.1267 F   0  0  0  0  0  0  0  0  0  0  0  0
   13.0733   12.9647   21.7913 S   0  0  0  0  0  0  0  0  0  0  0  0
    8.2414   13.9042   24.4828 Cl  0  0  0  0  0  0  0  0  0  0  0  0
   10.9470    9.2921   22.7632 Br  0  0  0  0  0  0  0  0  0  0  0  0
    6.8575   11.8844   25.9108 H   0  0  0  0  0  0  0  0  0  0  0  0
    8.8845    8.3390   24.6358 H   0  0  0  0  0  0  0  0  0  0  0  0
   14.8602   14.5484   21.9024 H   0  0  0  0  0  0  0  0  0  0  0  0
   13.8953   14.7526   20.4370 H   0  0  0  0  0  0  0  0  0  0  0  0
   11.5482   13.1861   19.9373 H   0  0  0  0  0  0  0  0  0  0  0  0
   11.1599   14.3185   21.2408 H   0  0  0  0  0  0  0  0  0  0  0  0
   10.8664   13.0574   23.4107 H   0  0  0  0  0  0  0  0  0  0  0  0
  1  9  1  0  0  0  0
  1 11  3  0  0  0  0
  2  5  1  0  0  0  0
  2  6  2  0  0  0  0
  3  5  2  0  0  0  0
  3  7  1  0  0  0  0
  4  6  1  0  0  0  0
  4  7  2  0  0  0  0
  4 12  1  0  0  0  0
  5 14  1  0  0  0  0
  6 16  1  0  0  0  0
  7 17  1  0  0  0  0
  8 10  1  0  0  0  0
  8 12  1  0  0  0  0
  8 13  2  0  0  0  0
  9 15  1  0  0  0  0
 10 15  1  0  0  0  0
  2 18  1  0  0  0  0
  3 19  1  0  0  0  0
  9 20  1  0  0  0  0
  9 21  1  0  0  0  0
 10 22  1  0  0  0  0
 10 23  1  0  0  0  0
 12 24  1  0  0  0  0
M  END
> <idnumber>
Z1940111702

> <heavy_atoms>
17

> <LogS>
-4.86

> <LogP>
0.927

> <rotating_bonds>
4

> <PSA>
52.89

> <hb_acceptors>
2

> <hb_donors>
1

> <Collection>
HTS

> <link>
https://www.enaminestore.com/catalog/Z1940111702

> <ROCS_ShapeQuery>
_x1140_x0812_0A_x1140_0A_x1097_0A_x0365_0A_x1097_0A_x0310_0A

> <ROCS_TanimotoCombo>
0.645 

> <ROCS_ShapeTanimoto>
0.221 

> <ROCS_ColorTanimoto>
0.424 

> <ROCS_RefTversky>
0.202 

> <ROCS_RefColorTversky>
0.493 

> <ROCS_RefTverskyCombo>
0.695 

> <ROCS_FitTversky>
1.730 

> <ROCS_FitColorTversky>
0.752 

> <ROCS_FitTverskyCombo>
2.482 

> <ROCS_ColorScore>
-3.873

> <ROCS_Overlap>
2069.404

> <ROCS_Rank>
169                 

$$$$
untitled-dbase-189763_101
  -OEChem-02092421083D

 38 40  0     0  0  0  0  0  0999 V2000
    6.6290   12.7546   25.9585 C   0  0  0  0  0  0  0  0  0  0  0  0
    5.7578   12.2523   26.9209 C   0  0  0  0  0  0  0  0  0  0  0  0
    8.3156   12.3622   24.2256 C   0  0  0  0  0  0  0  0  0  0  0  0
    6.4803   10.0150   26.3764 C   0  0  0  0  0  0  0  0  0  0  0  0
    7.4301   11.8836   25.2008 C   0  0  0  0  0  0  0  0  0  0  0  0
    9.0931   11.4762   23.4939 C   0  0  0  0  0  0  0  0  0  0  0  0
    7.3599   10.4899   25.4074 C   0  0  0  0  0  0  0  0  0  0  0  0
    5.6837   10.8808   27.1299 C   0  0  0  0  0  0  0  0  0  0  0  0
    8.9552   10.1304   23.7670 C   0  0  0  0  0  0  0  0  0  0  0  0
   11.1668   16.3355   22.3481 C   0  0  0  0  0  0  0  0  0  0  0  0
    9.2207   15.5461   21.2372 C   0  0  0  0  0  0  0  0  0  0  0  0
   10.0103   11.9779   22.4822 C   0  0  0  0  0  0  0  0  0  0  0  0
   10.1914   17.3853   22.8020 C   0  0  0  0  0  0  0  0  0  0  0  0
    9.7605    9.1201   23.0163 C   0  0  0  0  0  0  0  0  0  0  0  0
   11.3273   14.3017   20.9528 C   0  0  0  0  0  0  0  0  0  0  0  0
   11.9856   13.4522   22.0268 C   0  0  0  0  0  0  0  0  0  0  0  0
    8.1133    9.6277   24.6989 N   0  0  0  0  0  0  0  0  0  0  0  0
   10.5711   15.3909   21.5101 N   0  0  0  0  0  0  0  0  0  0  0  0
   11.0147   12.8521   22.9133 N   0  0  0  0  0  0  0  0  0  0  0  0
   12.3440   16.3429   22.6963 O   0  0  0  0  0  0  0  0  0  0  0  0
    8.5095   14.8359   20.5415 O   0  0  0  0  0  0  0  0  0  0  0  0
    9.8768   11.6484   21.2906 O   0  0  0  0  0  0  0  0  0  0  0  0
    4.8495   10.3877   28.0544 F   0  0  0  0  0  0  0  0  0  0  0  0
    8.6050   16.9687   22.0557 S   0  0  0  0  0  0  0  0  0  0  0  0
    6.6785   13.8300   25.8030 H   0  0  0  0  0  0  0  0  0  0  0  0
    5.1409   12.9287   27.5046 H   0  0  0  0  0  0  0  0  0  0  0  0
    8.3944   13.4315   24.0381 H   0  0  0  0  0  0  0  0  0  0  0  0
    6.4037    8.9448   26.5591 H   0  0  0  0  0  0  0  0  0  0  0  0
   10.1136   17.3679   23.8919 H   0  0  0  0  0  0  0  0  0  0  0  0
   10.5245   18.3684   22.4604 H   0  0  0  0  0  0  0  0  0  0  0  0
   10.7084    8.9310   23.5329 H   0  0  0  0  0  0  0  0  0  0  0  0
    9.2175    8.1718   22.9226 H   0  0  0  0  0  0  0  0  0  0  0  0
    9.9790    9.4655   21.9985 H   0  0  0  0  0  0  0  0  0  0  0  0
   10.6423   13.7087   20.3385 H   0  0  0  0  0  0  0  0  0  0  0  0
   12.0892   14.7403   20.3008 H   0  0  0  0  0  0  0  0  0  0  0  0
   12.5514   12.6347   21.5693 H   0  0  0  0  0  0  0  0  0  0  0  0
   12.6696   14.0461   22.6416 H   0  0  0  0  0  0  0  0  0  0  0  0
   11.0398   13.1378   23.8867 H   0  0  0  0  0  0  0  0  0  0  0  0
  1  2  2  0  0  0  0
  1  5  1  0  0  0  0
  2  8  1  0  0  0  0
  3  5  2  0  0  0  0
  3  6  1  0  0  0  0
  4  7  1  0  0  0  0
  4  8  2  0  0  0  0
  5  7  1  0  0  0  0
  6  9  2  0  0  0  0
  6 12  1  0  0  0  0
  7 17  2  0  0  0  0
  8 23  1  0  0  0  0
  9 14  1  0  0  0  0
  9 17  1  0  0  0  0
 10 13  1  0  0  0  0
 10 18  1  0  0  0  0
 10 20  2  0  0  0  0
 11 18  1  0  0  0  0
 11 21  2  0  0  0  0
 11 24  1  0  0  0  0
 12 19  1  0  0  0  0
 12 22  2  0  0  0  0
 13 24  1  0  0  0  0
 15 16  1  0  0  0  0
 15 18  1  0  0  0  0
 16 19  1  0  0  0  0
  1 25  1  0  0  0  0
  2 26  1  0  0  0  0
  3 27  1  0  0  0  0
  4 28  1  0  0  0  0
 13 29  1  0  0  0  0
 13 30  1  0  0  0  0
 14 31  1  0  0  0  0
 14 32  1  0  0  0  0
 14 33  1  0  0  0  0
 15 34  1  0  0  0  0
 15 35  1  0  0  0  0
 16 36  1  0  0  0  0
 16 37  1  0  0  0  0
 19 38  1  0  0  0  0
M  END
> <idnumber>
Z595015548

> <heavy_atoms>
24

> <LogS>
-4.563

> <LogP>
1.188

> <rotating_bonds>
4

> <PSA>
79.37

> <hb_acceptors>
4

> <hb_donors>
1

> <Collection>
HTS

> <link>
https://www.enaminestore.com/catalog/Z595015548

> <ROCS_ShapeQuery>
_x1140_x0812_0A_x1140_0A_x1097_0A_x0365_0A_x1097_0A_x0310_0A

> <ROCS_TanimotoCombo>
0.645 

> <ROCS_ShapeTanimoto>
0.287 

> <ROCS_ColorTanimoto>
0.358 

> <ROCS_RefTversky>
0.257 

> <ROCS_RefColorTversky>
0.497 

> <ROCS_RefTverskyCombo>
0.754 

> <ROCS_FitTversky>
1.684 

> <ROCS_FitColorTversky>
0.560 

> <ROCS_FitTverskyCombo>
2.244 

> <ROCS_ColorScore>
-3.952

> <ROCS_Overlap>
2643.637

> <ROCS_Rank>
170                 

$$$$
untitled-dbase-194416_37
  -OEChem-02092421083D

 38 39  0     1  0  0  0  0  0999 V2000
   12.8857   13.7666   21.3485 C   0  0  0  0  0  0  0  0  0  0  0  0
   13.3394   14.9662   20.8114 C   0  0  0  0  0  0  0  0  0  0  0  0
   11.9461   14.9920   23.1573 C   0  0  0  0  0  0  0  0  0  0  0  0
   12.1750   13.7711   22.5435 C   0  0  0  0  0  0  0  0  0  0  0  0
   13.0582   16.1336   21.5026 C   0  0  0  0  0  0  0  0  0  0  0  0
    7.2237   10.1379   25.0760 C   0  0  0  0  0  0  0  0  0  0  0  0
   10.2873   12.1438   22.6676 C   0  0  0  0  0  0  0  0  0  0  0  0
    7.9242   11.7709   23.3310 C   0  0  0  0  0  0  0  0  0  0  0  0
    9.4988   12.3126   25.0744 C   0  0  0  0  0  0  0  0  0  0  0  0
    7.2363   11.5843   24.6777 C   0  0  2  0  0  0  0  0  0  0  0  0
    8.0877   12.4013   25.6617 C   0  0  2  0  0  0  0  0  0  0  0  0
   13.5295   17.4393   20.9551 C   0  0  0  0  0  0  0  0  0  0  0  0
   11.6725   12.4942   23.1489 C   0  0  0  0  0  0  0  0  0  0  0  0
    7.6102   13.8508   25.7463 C   0  0  0  0  0  0  0  0  0  0  0  0
   12.3709   16.1776   22.6660 N   0  0  0  0  0  0  0  0  0  0  0  0
    9.3095   12.0894   23.6456 N   0  0  0  0  0  0  0  0  0  0  0  0
    6.1605    9.7924   25.8762 N   0  0  0  0  0  0  0  0  0  0  0  0
    8.0853    9.3487   24.6962 O   0  0  0  0  0  0  0  0  0  0  0  0
   10.0781   11.9326   21.4717 O   0  0  0  0  0  0  0  0  0  0  0  0
    8.4112   14.5585   26.5607 F   0  0  0  0  0  0  0  0  0  0  0  0
    7.6260   14.4185   24.5284 F   0  0  0  0  0  0  0  0  0  0  0  0
    6.3564   13.9008   26.2273 F   0  0  0  0  0  0  0  0  0  0  0  0
   13.0901   12.8341   20.8298 H   0  0  0  0  0  0  0  0  0  0  0  0
   13.8950   14.9764   19.8799 H   0  0  0  0  0  0  0  0  0  0  0  0
   11.3974   15.0579   24.0918 H   0  0  0  0  0  0  0  0  0  0  0  0
    7.9179   10.8612   22.7156 H   0  0  0  0  0  0  0  0  0  0  0  0
    7.4778   12.5798   22.7395 H   0  0  0  0  0  0  0  0  0  0  0  0
   10.0582   13.2502   25.1926 H   0  0  0  0  0  0  0  0  0  0  0  0
   10.0836   11.4998   25.5213 H   0  0  0  0  0  0  0  0  0  0  0  0
    6.2062   11.9467   24.6450 H   0  0  0  0  0  0  0  0  0  0  0  0
    8.0668   11.9647   26.6512 H   0  0  0  0  0  0  0  0  0  0  0  0
   12.7703   17.8708   20.2919 H   0  0  0  0  0  0  0  0  0  0  0  0
   13.7375   18.1561   21.7596 H   0  0  0  0  0  0  0  0  0  0  0  0
   14.4610   17.3193   20.3871 H   0  0  0  0  0  0  0  0  0  0  0  0
   12.3450   11.6706   22.9025 H   0  0  0  0  0  0  0  0  0  0  0  0
   11.6516   12.5639   24.2376 H   0  0  0  0  0  0  0  0  0  0  0  0
    5.4886   10.5092   26.1298 H   0  0  0  0  0  0  0  0  0  0  0  0
    6.0207    8.8491   26.2235 H   0  0  0  0  0  0  0  0  0  0  0  0
  1  2  2  0  0  0  0
  1  4  1  0  0  0  0
  2  5  1  0  0  0  0
  3  4  2  0  0  0  0
  3 15  1  0  0  0  0
  4 13  1  0  0  0  0
  5 12  1  0  0  0  0
  5 15  2  0  0  0  0
  6 10  1  1  0  0  0
  6 17  1  0  0  0  0
  6 18  2  0  0  0  0
  7 13  1  0  0  0  0
  7 16  1  0  0  0  0
  7 19  2  0  0  0  0
  8 10  1  0  0  0  0
  8 16  1  0  0  0  0
  9 11  1  0  0  0  0
  9 16  1  0  0  0  0
 10 11  1  0  0  0  0
 11 14  1  6  0  0  0
 14 20  1  0  0  0  0
 14 21  1  0  0  0  0
 14 22  1  0  0  0  0
  1 23  1  0  0  0  0
  2 24  1  0  0  0  0
  3 25  1  0  0  0  0
  8 26  1  0  0  0  0
  8 27  1  0  0  0  0
  9 28  1  0  0  0  0
  9 29  1  0  0  0  0
 10 30  1  0  0  0  0
 11 31  1  0  0  0  0
 12 32  1  0  0  0  0
 12 33  1  0  0  0  0
 12 34  1  0  0  0  0
 13 35  1  0  0  0  0
 13 36  1  0  0  0  0
 17 37  1  0  0  0  0
 17 38  1  0  0  0  0
M  END
> <idnumber>
Z2059377496

> <heavy_atoms>
22

> <LogS>
-2.08

> <LogP>
0.023

> <rotating_bonds>
4

> <PSA>
76.29

> <hb_acceptors>
3

> <hb_donors>
1

> <Collection>
Advanced

> <link>
https://www.enaminestore.com/catalog/Z2059377496

> <ROCS_ShapeQuery>
_x1140_x0812_0A_x1140_0A_x1097_0A_x0365_0A_x1097_0A_x0310_0A

> <ROCS_TanimotoCombo>
0.645 

> <ROCS_ShapeTanimoto>
0.235 

> <ROCS_ColorTanimoto>
0.410 

> <ROCS_RefTversky>
0.217 

> <ROCS_RefColorTversky>
0.515 

> <ROCS_RefTverskyCombo>
0.733 

> <ROCS_FitTversky>
1.508 

> <ROCS_FitColorTversky>
0.667 

> <ROCS_FitTverskyCombo>
2.175 

> <ROCS_ColorScore>
-4.071

> <ROCS_Overlap>
2233.572

> <ROCS_Rank>
171                 

$$$$
untitled-dbase-1176419_12
  -OEChem-02092421083D

 38 40  0     0  0  0  0  0  0999 V2000
   12.8490   12.3094   22.5944 C   0  0  0  0  0  0  0  0  0  0  0  0
   11.7463   11.7016   23.1946 C   0  0  0  0  0  0  0  0  0  0  0  0
   12.8032   13.6628   22.2598 C   0  0  0  0  0  0  0  0  0  0  0  0
    8.5994   12.5442   24.9003 C   0  0  0  0  0  0  0  0  0  0  0  0
    9.1971   10.4645   23.8760 C   0  0  0  0  0  0  0  0  0  0  0  0
    5.6790   11.0883   26.5410 C   0  0  0  0  0  0  0  0  0  0  0  0
    7.5093   11.8710   25.4752 C   0  0  0  0  0  0  0  0  0  0  0  0
   10.5977   12.4472   23.4601 C   0  0  0  0  0  0  0  0  0  0  0  0
    9.4581   11.8125   24.0820 C   0  0  0  0  0  0  0  0  0  0  0  0
   11.6547   14.4084   22.5253 C   0  0  0  0  0  0  0  0  0  0  0  0
    6.4354   12.2220   26.3353 C   0  0  0  0  0  0  0  0  0  0  0  0
   10.5519   13.8006   23.1254 C   0  0  0  0  0  0  0  0  0  0  0  0
    7.3668   10.5175   25.1840 C   0  0  0  0  0  0  0  0  0  0  0  0
   11.6123   15.8194   22.1754 C   0  0  0  0  0  0  0  0  0  0  0  0
    6.1677   13.5558   26.9093 C   0  0  0  0  0  0  0  0  0  0  0  0
   10.5176   17.6660   20.8820 C   0  0  0  0  0  0  0  0  0  0  0  0
    9.6682   15.3582   20.6550 C   0  0  0  0  0  0  0  0  0  0  0  0
    8.1649    9.7654   24.4027 N   0  0  0  0  0  0  0  0  0  0  0  0
    6.2532   10.0607   25.8385 N   0  0  0  0  0  0  0  0  0  0  0  0
   10.6338   16.2670   21.2690 N   0  0  0  0  0  0  0  0  0  0  0  0
   12.4468   16.5573   22.7160 O   0  0  0  0  0  0  0  0  0  0  0  0
    9.4485   14.5217   23.3791 F   0  0  0  0  0  0  0  0  0  0  0  0
   13.7436   11.7288   22.3889 H   0  0  0  0  0  0  0  0  0  0  0  0
   11.7978   10.6458   23.4499 H   0  0  0  0  0  0  0  0  0  0  0  0
   13.6687   14.1256   21.7926 H   0  0  0  0  0  0  0  0  0  0  0  0
    8.7625   13.6011   25.0906 H   0  0  0  0  0  0  0  0  0  0  0  0
    9.8487    9.8664   23.2423 H   0  0  0  0  0  0  0  0  0  0  0  0
    4.7840   10.9195   27.1239 H   0  0  0  0  0  0  0  0  0  0  0  0
    6.6723   13.6780   27.8814 H   0  0  0  0  0  0  0  0  0  0  0  0
    6.5136   14.3677   26.2472 H   0  0  0  0  0  0  0  0  0  0  0  0
    5.0895   13.7291   27.0667 H   0  0  0  0  0  0  0  0  0  0  0  0
   11.1428   17.8553   19.9970 H   0  0  0  0  0  0  0  0  0  0  0  0
    9.4680   17.8947   20.6450 H   0  0  0  0  0  0  0  0  0  0  0  0
   10.8538   18.3050   21.7118 H   0  0  0  0  0  0  0  0  0  0  0  0
    8.7710   15.2933   21.2881 H   0  0  0  0  0  0  0  0  0  0  0  0
    9.3888   15.7373   19.6609 H   0  0  0  0  0  0  0  0  0  0  0  0
   10.1181   14.3595   20.5533 H   0  0  0  0  0  0  0  0  0  0  0  0
    5.9088    9.1111   25.8078 H   0  0  0  0  0  0  0  0  0  0  0  0
  1  2  1  0  0  0  0
  1  3  2  0  0  0  0
  2  8  2  0  0  0  0
  3 10  1  0  0  0  0
  4  7  1  0  0  0  0
  4  9  2  0  0  0  0
  5  9  1  0  0  0  0
  5 18  2  0  0  0  0
  6 11  2  0  0  0  0
  6 19  1  0  0  0  0
  7 11  1  0  0  0  0
  7 13  2  0  0  0  0
  8  9  1  0  0  0  0
  8 12  1  0  0  0  0
 10 12  2  0  0  0  0
 10 14  1  0  0  0  0
 11 15  1  0  0  0  0
 12 22  1  0  0  0  0
 13 18  1  0  0  0  0
 13 19  1  0  0  0  0
 14 20  1  0  0  0  0
 14 21  2  0  0  0  0
 16 20  1  0  0  0  0
 17 20  1  0  0  0  0
  1 23  1  0  0  0  0
  2 24  1  0  0  0  0
  3 25  1  0  0  0  0
  4 26  1  0  0  0  0
  5 27  1  0  0  0  0
  6 28  1  0  0  0  0
 15 29  1  0  0  0  0
 15 30  1  0  0  0  0
 15 31  1  0  0  0  0
 16 32  1  0  0  0  0
 16 33  1  0  0  0  0
 16 34  1  0  0  0  0
 17 35  1  0  0  0  0
 17 36  1  0  0  0  0
 17 37  1  0  0  0  0
 19 38  1  0  0  0  0
M  END
> <idnumber>
Z8718566560

> <heavy_atoms>
22

> <LogS>
-5.111

> <LogP>
2.295

> <rotating_bonds>
2

> <PSA>
48.99

> <hb_acceptors>
2

> <hb_donors>
1

> <Collection>
Advanced

> <link>
https://www.enaminestore.com/catalog/Z8718566560

> <ROCS_ShapeQuery>
_x1140_x0812_0A_x1140_0A_x1097_0A_x0365_0A_x1097_0A_x0310_0A

> <ROCS_TanimotoCombo>
0.645 

> <ROCS_ShapeTanimoto>
0.267 

> <ROCS_ColorTanimoto>
0.377 

> <ROCS_RefTversky>
0.242 

> <ROCS_RefColorTversky>
0.486 

> <ROCS_RefTverskyCombo>
0.728 

> <ROCS_FitTversky>
1.648 

> <ROCS_FitColorTversky>
0.627 

> <ROCS_FitTverskyCombo>
2.276 

> <ROCS_ColorScore>
-3.841

> <ROCS_Overlap>
2485.069

> <ROCS_Rank>
172                 

$$$$
untitled-dbase-911333_123
  -OEChem-02092421083D

 44 46  0     0  0  0  0  0  0999 V2000
    5.5223   12.8990   26.0266 C   0  0  0  0  0  0  0  0  0  0  0  0
    5.0176   11.6254   25.7893 C   0  0  0  0  0  0  0  0  0  0  0  0
   10.4209   15.4362   26.5199 C   0  0  0  0  0  0  0  0  0  0  0  0
    6.8531   13.1763   25.7300 C   0  0  0  0  0  0  0  0  0  0  0  0
    9.7750   14.2133   26.3383 C   0  0  0  0  0  0  0  0  0  0  0  0
   10.9787   16.0994   25.4269 C   0  0  0  0  0  0  0  0  0  0  0  0
    5.8441   10.6320   25.2560 C   0  0  0  0  0  0  0  0  0  0  0  0
   10.2450   14.3167   23.9707 C   0  0  0  0  0  0  0  0  0  0  0  0
    7.6778   12.1720   25.1939 C   0  0  0  0  0  0  0  0  0  0  0  0
    9.6871   13.6535   25.0637 C   0  0  0  0  0  0  0  0  0  0  0  0
   10.8908   15.5396   24.1523 C   0  0  0  0  0  0  0  0  0  0  0  0
    7.1796   10.8818   24.9496 C   0  0  0  0  0  0  0  0  0  0  0  0
    9.0162   12.3835   24.8751 C   0  0  0  0  0  0  0  0  0  0  0  0
    9.2394   10.2442   24.1707 C   0  0  0  0  0  0  0  0  0  0  0  0
   11.4877   16.2493   22.9841 C   0  0  0  0  0  0  0  0  0  0  0  0
   10.8202    7.9318   21.7570 C   0  0  0  0  0  0  0  0  0  0  0  0
   12.0815    9.9514   22.5330 C   0  0  0  0  0  0  0  0  0  0  0  0
    9.8251   10.2052   21.4096 C   0  0  0  0  0  0  0  0  0  0  0  0
   10.6854    9.3414   22.3487 C   0  0  0  0  0  0  0  0  0  0  0  0
    7.9594    9.9139   24.4370 N   0  0  0  0  0  0  0  0  0  0  0  0
    9.8247   11.4376   24.3611 N   0  0  0  0  0  0  0  0  0  0  0  0
   10.0340    9.2457   23.6445 N   0  0  0  0  0  0  0  0  0  0  0  0
   10.0415   11.5941   21.6319 O   0  0  0  0  0  0  0  0  0  0  0  0
    4.8826   13.6713   26.4429 H   0  0  0  0  0  0  0  0  0  0  0  0
    3.9804   11.3997   26.0183 H   0  0  0  0  0  0  0  0  0  0  0  0
   10.4896   15.8718   27.5126 H   0  0  0  0  0  0  0  0  0  0  0  0
    7.2254   14.1786   25.9256 H   0  0  0  0  0  0  0  0  0  0  0  0
    9.3450   13.7085   27.2004 H   0  0  0  0  0  0  0  0  0  0  0  0
   11.4801   17.0520   25.5773 H   0  0  0  0  0  0  0  0  0  0  0  0
    5.4246    9.6433   25.0794 H   0  0  0  0  0  0  0  0  0  0  0  0
   10.1802   13.8853   22.9739 H   0  0  0  0  0  0  0  0  0  0  0  0
   12.5297   15.9384   22.8401 H   0  0  0  0  0  0  0  0  0  0  0  0
   10.9308   16.0376   22.0622 H   0  0  0  0  0  0  0  0  0  0  0  0
   11.4657   17.3378   23.1256 H   0  0  0  0  0  0  0  0  0  0  0  0
    9.8396    7.4652   21.6116 H   0  0  0  0  0  0  0  0  0  0  0  0
   11.3291    7.9571   20.7863 H   0  0  0  0  0  0  0  0  0  0  0  0
   11.4089    7.2810   22.4141 H   0  0  0  0  0  0  0  0  0  0  0  0
   12.0291   10.9614   22.9548 H   0  0  0  0  0  0  0  0  0  0  0  0
   12.6173   10.0108   21.5793 H   0  0  0  0  0  0  0  0  0  0  0  0
   12.6857    9.3493   23.2218 H   0  0  0  0  0  0  0  0  0  0  0  0
   10.0695   10.0015   20.3614 H   0  0  0  0  0  0  0  0  0  0  0  0
    8.7566   10.0041   21.5483 H   0  0  0  0  0  0  0  0  0  0  0  0
   10.1759    8.4006   24.1780 H   0  0  0  0  0  0  0  0  0  0  0  0
    9.4691   12.0682   21.0080 H   0  0  0  0  0  0  0  0  0  0  0  0
  1  2  1  0  0  0  0
  1  4  2  0  0  0  0
  2  7  2  0  0  0  0
  3  5  1  0  0  0  0
  3  6  2  0  0  0  0
  4  9  1  0  0  0  0
  5 10  2  0  0  0  0
  6 11  1  0  0  0  0
  7 12  1  0  0  0  0
  8 10  1  0  0  0  0
  8 11  2  0  0  0  0
  9 12  1  0  0  0  0
  9 13  2  0  0  0  0
 10 13  1  0  0  0  0
 11 15  1  0  0  0  0
 12 20  2  0  0  0  0
 13 21  1  0  0  0  0
 14 20  1  0  0  0  0
 14 21  2  0  0  0  0
 14 22  1  0  0  0  0
 16 19  1  0  0  0  0
 17 19  1  0  0  0  0
 18 19  1  0  0  0  0
 18 23  1  0  0  0  0
 19 22  1  0  0  0  0
  1 24  1  0  0  0  0
  2 25  1  0  0  0  0
  3 26  1  0  0  0  0
  4 27  1  0  0  0  0
  5 28  1  0  0  0  0
  6 29  1  0  0  0  0
  7 30  1  0  0  0  0
  8 31  1  0  0  0  0
 15 32  1  0  0  0  0
 15 33  1  0  0  0  0
 15 34  1  0  0  0  0
 16 35  1  0  0  0  0
 16 36  1  0  0  0  0
 16 37  1  0  0  0  0
 17 38  1  0  0  0  0
 17 39  1  0  0  0  0
 17 40  1  0  0  0  0
 18 41  1  0  0  0  0
 18 42  1  0  0  0  0
 22 43  1  0  0  0  0
 23 44  1  0  0  0  0
M  END
> <idnumber>
Z2472751875

> <heavy_atoms>
23

> <LogS>
-5.575

> <LogP>
4.424

> <rotating_bonds>
4

> <PSA>
58.04

> <hb_acceptors>
4

> <hb_donors>
2

> <Collection>
HTS

> <link>
https://www.enaminestore.com/catalog/Z2472751875

> <ROCS_ShapeQuery>
_x1140_x0812_0A_x1140_0A_x1097_0A_x0365_0A_x1097_0A_x0310_0A

> <ROCS_TanimotoCombo>
0.644 

> <ROCS_ShapeTanimoto>
0.256 

> <ROCS_ColorTanimoto>
0.389 

> <ROCS_RefTversky>
0.234 

> <ROCS_RefColorTversky>
0.592 

> <ROCS_RefTverskyCombo>
0.826 

> <ROCS_FitTversky>
1.563 

> <ROCS_FitColorTversky>
0.531 

> <ROCS_FitTverskyCombo>
2.095 

> <ROCS_ColorScore>
-4.762

> <ROCS_Overlap>
2405.028

> <ROCS_Rank>
173                 

$$$$
untitled-dbase-76079_29
  -OEChem-02092421083D

 31 33  0     0  0  0  0  0  0999 V2000
    8.5022   12.3742   24.2949 C   0  0  0  0  0  0  0  0  0  0  0  0
    7.5912   11.9165   25.2403 C   0  0  0  0  0  0  0  0  0  0  0  0
    8.7244   10.1420   23.5046 C   0  0  0  0  0  0  0  0  0  0  0  0
    9.0841   11.4765   23.4068 C   0  0  0  0  0  0  0  0  0  0  0  0
    7.2982   10.5624   25.2560 C   0  0  0  0  0  0  0  0  0  0  0  0
   10.0375   11.9246   22.4070 C   0  0  0  0  0  0  0  0  0  0  0  0
    4.3968   10.4662   27.8164 C   0  0  0  0  0  0  0  0  0  0  0  0
    5.3852   11.5650   28.0812 C   0  0  0  0  0  0  0  0  0  0  0  0
   11.3244   14.6000   20.7091 C   0  0  0  0  0  0  0  0  0  0  0  0
   12.1087   15.1147   21.8814 C   0  0  0  0  0  0  0  0  0  0  0  0
    5.3125   10.9324   26.7209 C   0  0  0  0  0  0  0  0  0  0  0  0
   11.7455   13.6595   21.8020 C   0  0  0  0  0  0  0  0  0  0  0  0
    7.8433    9.6601   24.4096 N   0  0  0  0  0  0  0  0  0  0  0  0
    6.3691   10.1114   26.2263 N   0  0  0  0  0  0  0  0  0  0  0  0
   10.7770   13.0768   22.7027 N   0  0  0  0  0  0  0  0  0  0  0  0
   10.1630   11.3106   21.3314 O   0  0  0  0  0  0  0  0  0  0  0  0
    8.7524   13.4310   24.2599 H   0  0  0  0  0  0  0  0  0  0  0  0
    7.1319   12.6102   25.9373 H   0  0  0  0  0  0  0  0  0  0  0  0
    9.1450    9.3935   22.8397 H   0  0  0  0  0  0  0  0  0  0  0  0
    4.5847    9.5008   28.2697 H   0  0  0  0  0  0  0  0  0  0  0  0
    3.3499   10.7350   27.7476 H   0  0  0  0  0  0  0  0  0  0  0  0
    5.0026   12.5722   28.1907 H   0  0  0  0  0  0  0  0  0  0  0  0
    6.2348   11.3354   28.7126 H   0  0  0  0  0  0  0  0  0  0  0  0
   10.2804   14.8807   20.6411 H   0  0  0  0  0  0  0  0  0  0  0  0
   11.8320   14.5246   19.7551 H   0  0  0  0  0  0  0  0  0  0  0  0
   13.1442   15.3853   21.7161 H   0  0  0  0  0  0  0  0  0  0  0  0
   11.5899   15.7384   22.5991 H   0  0  0  0  0  0  0  0  0  0  0  0
    4.8639   11.5232   25.9298 H   0  0  0  0  0  0  0  0  0  0  0  0
   12.5487   12.9697   21.5662 H   0  0  0  0  0  0  0  0  0  0  0  0
    6.4870    9.1760   26.5583 H   0  0  0  0  0  0  0  0  0  0  0  0
   10.5914   13.5759   23.5666 H   0  0  0  0  0  0  0  0  0  0  0  0
  1  2  2  0  0  0  0
  1  4  1  0  0  0  0
  2  5  1  0  0  0  0
  3  4  2  0  0  0  0
  3 13  1  0  0  0  0
  4  6  1  0  0  0  0
  5 13  2  0  0  0  0
  5 14  1  0  0  0  0
  6 15  1  0  0  0  0
  6 16  2  0  0  0  0
  7  8  1  0  0  0  0
  7 11  1  0  0  0  0
  8 11  1  0  0  0  0
  9 10  1  0  0  0  0
  9 12  1  0  0  0  0
 10 12  1  0  0  0  0
 11 14  1  0  0  0  0
 12 15  1  0  0  0  0
  1 17  1  0  0  0  0
  2 18  1  0  0  0  0
  3 19  1  0  0  0  0
  7 20  1  0  0  0  0
  7 21  1  0  0  0  0
  8 22  1  0  0  0  0
  8 23  1  0  0  0  0
  9 24  1  0  0  0  0
  9 25  1  0  0  0  0
 10 26  1  0  0  0  0
 10 27  1  0  0  0  0
 11 28  1  0  0  0  0
 12 29  1  0  0  0  0
 14 30  1  0  0  0  0
 15 31  1  0  0  0  0
M  END
> <idnumber>
Z285679962

> <heavy_atoms>
16

> <LogS>
-2.294

> <LogP>
1.801

> <rotating_bonds>
4

> <PSA>
54.02

> <hb_acceptors>
3

> <hb_donors>
2

> <Collection>
Advanced

> <link>
https://www.enaminestore.com/catalog/Z285679962

> <ROCS_ShapeQuery>
_x1140_x0812_0A_x1140_0A_x1097_0A_x0365_0A_x1097_0A_x0310_0A

> <ROCS_TanimotoCombo>
0.644 

> <ROCS_ShapeTanimoto>
0.234 

> <ROCS_ColorTanimoto>
0.411 

> <ROCS_RefTversky>
0.212 

> <ROCS_RefColorTversky>
0.482 

> <ROCS_RefTverskyCombo>
0.694 

> <ROCS_FitTversky>
1.796 

> <ROCS_FitColorTversky>
0.735 

> <ROCS_FitTverskyCombo>
2.531 

> <ROCS_ColorScore>
-3.784

> <ROCS_Overlap>
2172.058

> <ROCS_Rank>
174                 

$$$$
untitled-dbase-549319_30
  -OEChem-02092421083D

 41 42  0     0  0  0  0  0  0999 V2000
    7.6037   12.0146   25.3054 C   0  0  0  0  0  0  0  0  0  0  0  0
    7.5000   10.6539   25.4932 C   0  0  0  0  0  0  0  0  0  0  0  0
    9.1327   11.6685   23.6405 C   0  0  0  0  0  0  0  0  0  0  0  0
    9.0297   10.3078   23.8287 C   0  0  0  0  0  0  0  0  0  0  0  0
   10.0274   12.2750   22.6227 C   0  0  0  0  0  0  0  0  0  0  0  0
   12.2578   15.0727   22.9180 C   0  0  0  0  0  0  0  0  0  0  0  0
   15.6806   13.5064   22.5177 C   0  0  0  0  0  0  0  0  0  0  0  0
   16.2457   14.5424   23.4922 C   0  0  0  0  0  0  0  0  0  0  0  0
   15.2344   12.1940   23.1656 C   0  0  0  0  0  0  0  0  0  0  0  0
   15.2784   15.6793   23.8357 C   0  0  0  0  0  0  0  0  0  0  0  0
   14.3514   12.3007   24.4078 C   0  0  0  0  0  0  0  0  0  0  0  0
   14.0233   15.2804   24.6149 C   0  0  0  0  0  0  0  0  0  0  0  0
   13.0174   13.0145   24.1881 C   0  0  0  0  0  0  0  0  0  0  0  0
   11.3238   14.1868   22.1324 C   0  0  0  0  0  0  0  0  0  0  0  0
    8.4219   12.5463   24.3757 N   0  0  0  0  0  0  0  0  0  0  0  0
    8.2112    9.7761   24.7582 N   0  0  0  0  0  0  0  0  0  0  0  0
   13.1005   14.4419   23.8438 N   0  0  0  0  0  0  0  0  0  0  0  0
    9.8006    9.4383   23.0245 N   0  0  0  0  0  0  0  0  0  0  0  0
   10.3187   11.7233   21.5729 O   0  0  0  0  0  0  0  0  0  0  0  0
   12.2467   16.2899   22.7140 O   0  0  0  0  0  0  0  0  0  0  0  0
   10.4630   13.5063   23.0219 O   0  0  0  0  0  0  0  0  0  0  0  0
    7.0329   12.7199   25.8968 H   0  0  0  0  0  0  0  0  0  0  0  0
    6.8410   10.2277   26.2396 H   0  0  0  0  0  0  0  0  0  0  0  0
   14.8701   13.9318   21.9158 H   0  0  0  0  0  0  0  0  0  0  0  0
   16.4690   13.2515   21.7970 H   0  0  0  0  0  0  0  0  0  0  0  0
   16.6232   14.0696   24.4055 H   0  0  0  0  0  0  0  0  0  0  0  0
   17.1191   15.0065   23.0150 H   0  0  0  0  0  0  0  0  0  0  0  0
   14.7207   11.5896   22.4075 H   0  0  0  0  0  0  0  0  0  0  0  0
   16.1321   11.6271   23.4445 H   0  0  0  0  0  0  0  0  0  0  0  0
   15.8269   16.4109   24.4430 H   0  0  0  0  0  0  0  0  0  0  0  0
   14.9980   16.2084   22.9167 H   0  0  0  0  0  0  0  0  0  0  0  0
   14.1249   11.2780   24.7379 H   0  0  0  0  0  0  0  0  0  0  0  0
   14.9077   12.7440   25.2395 H   0  0  0  0  0  0  0  0  0  0  0  0
   14.2763   14.7938   25.5621 H   0  0  0  0  0  0  0  0  0  0  0  0
   13.4867   16.1995   24.8828 H   0  0  0  0  0  0  0  0  0  0  0  0
   12.4538   12.4640   23.4316 H   0  0  0  0  0  0  0  0  0  0  0  0
   12.4302   12.9622   25.1131 H   0  0  0  0  0  0  0  0  0  0  0  0
   11.8995   13.4668   21.5583 H   0  0  0  0  0  0  0  0  0  0  0  0
   10.7320   14.8029   21.4620 H   0  0  0  0  0  0  0  0  0  0  0  0
   10.3713    9.8244   22.3018 H   0  0  0  0  0  0  0  0  0  0  0  0
    9.6883    8.4518   23.1315 H   0  0  0  0  0  0  0  0  0  0  0  0
  1  2  1  0  0  0  0
  1 15  2  0  0  0  0
  2 16  2  0  0  0  0
  3  4  2  0  0  0  0
  3  5  1  0  0  0  0
  3 15  1  0  0  0  0
  4 16  1  0  0  0  0
  4 18  1  0  0  0  0
  5 19  2  0  0  0  0
  5 21  1  0  0  0  0
  6 14  1  0  0  0  0
  6 17  1  0  0  0  0
  6 20  2  0  0  0  0
  7  8  1  0  0  0  0
  7  9  1  0  0  0  0
  8 10  1  0  0  0  0
  9 11  1  0  0  0  0
 10 12  1  0  0  0  0
 11 13  1  0  0  0  0
 12 17  1  0  0  0  0
 13 17  1  0  0  0  0
 14 21  1  0  0  0  0
  1 22  1  0  0  0  0
  2 23  1  0  0  0  0
  7 24  1  0  0  0  0
  7 25  1  0  0  0  0
  8 26  1  0  0  0  0
  8 27  1  0  0  0  0
  9 28  1  0  0  0  0
  9 29  1  0  0  0  0
 10 30  1  0  0  0  0
 10 31  1  0  0  0  0
 11 32  1  0  0  0  0
 11 33  1  0  0  0  0
 12 34  1  0  0  0  0
 12 35  1  0  0  0  0
 13 36  1  0  0  0  0
 13 37  1  0  0  0  0
 14 38  1  0  0  0  0
 14 39  1  0  0  0  0
 18 40  1  0  0  0  0
 18 41  1  0  0  0  0
M  END
> <idnumber>
Z98003105

> <heavy_atoms>
21

> <LogS>
-1.98

> <LogP>
1.266

> <rotating_bonds>
4

> <PSA>
98.41

> <hb_acceptors>
5

> <hb_donors>
1

> <Collection>
HTS

> <link>
https://www.enaminestore.com/catalog/Z98003105

> <ROCS_ShapeQuery>
_x1140_x0812_0A_x1140_0A_x1097_0A_x0365_0A_x1097_0A_x0310_0A

> <ROCS_TanimotoCombo>
0.644 

> <ROCS_ShapeTanimoto>
0.231 

> <ROCS_ColorTanimoto>
0.413 

> <ROCS_RefTversky>
0.213 

> <ROCS_RefColorTversky>
0.552 

> <ROCS_RefTverskyCombo>
0.765 

> <ROCS_FitTversky>
1.546 

> <ROCS_FitColorTversky>
0.622 

> <ROCS_FitTverskyCombo>
2.168 

> <ROCS_ColorScore>
-4.388

> <ROCS_Overlap>
2191.512

> <ROCS_Rank>
175                 

$$$$
untitled-dbase-1072306_29
  -OEChem-02092421083D

 36 38  0     0  0  0  0  0  0999 V2000
    5.8381   12.5784   26.8166 C   0  0  0  0  0  0  0  0  0  0  0  0
    5.7190   11.2178   27.0709 C   0  0  0  0  0  0  0  0  0  0  0  0
    6.7555   13.0225   25.8686 C   0  0  0  0  0  0  0  0  0  0  0  0
    6.5168   10.3047   26.3770 C   0  0  0  0  0  0  0  0  0  0  0  0
    8.4893   12.5234   24.2114 C   0  0  0  0  0  0  0  0  0  0  0  0
    7.5579   12.1038   25.1708 C   0  0  0  0  0  0  0  0  0  0  0  0
    9.2668   11.5913   23.5393 C   0  0  0  0  0  0  0  0  0  0  0  0
    7.4421   10.7209   25.4237 C   0  0  0  0  0  0  0  0  0  0  0  0
    9.0825   10.2604   23.8545 C   0  0  0  0  0  0  0  0  0  0  0  0
   10.2299   12.0438   22.5452 C   0  0  0  0  0  0  0  0  0  0  0  0
   11.3914   16.1612   23.1896 C   0  0  0  0  0  0  0  0  0  0  0  0
   11.8567   16.4707   21.7941 C   0  0  0  0  0  0  0  0  0  0  0  0
   11.1283   15.1859   22.0759 C   0  0  0  0  0  0  0  0  0  0  0  0
   11.8004   12.9073   24.2959 C   0  0  0  0  0  0  0  0  0  0  0  0
   11.8555   13.8853   22.0289 C   0  0  0  0  0  0  0  0  0  0  0  0
    8.1954    9.8141   24.7730 N   0  0  0  0  0  0  0  0  0  0  0  0
    9.8690    9.2949   23.1773 N   0  0  0  0  0  0  0  0  0  0  0  0
   11.2593   12.9145   22.9440 N   0  0  0  0  0  0  0  0  0  0  0  0
   10.0877   11.6161   21.3928 O   0  0  0  0  0  0  0  0  0  0  0  0
    5.2199   13.2911   27.3538 H   0  0  0  0  0  0  0  0  0  0  0  0
    5.0058   10.8624   27.8090 H   0  0  0  0  0  0  0  0  0  0  0  0
    6.8409   14.0899   25.6773 H   0  0  0  0  0  0  0  0  0  0  0  0
    6.4042    9.2441   26.5946 H   0  0  0  0  0  0  0  0  0  0  0  0
    8.6050   13.5831   23.9910 H   0  0  0  0  0  0  0  0  0  0  0  0
   12.1441   15.9147   23.9283 H   0  0  0  0  0  0  0  0  0  0  0  0
   10.5501   16.7230   23.5766 H   0  0  0  0  0  0  0  0  0  0  0  0
   11.3273   17.2398   21.2450 H   0  0  0  0  0  0  0  0  0  0  0  0
   12.9211   16.4316   21.5980 H   0  0  0  0  0  0  0  0  0  0  0  0
   10.1101   15.0959   21.7170 H   0  0  0  0  0  0  0  0  0  0  0  0
   12.6428   12.2021   24.3505 H   0  0  0  0  0  0  0  0  0  0  0  0
   12.1504   13.9172   24.5560 H   0  0  0  0  0  0  0  0  0  0  0  0
   11.0166   12.5976   25.0028 H   0  0  0  0  0  0  0  0  0  0  0  0
   11.8122   13.4866   21.0046 H   0  0  0  0  0  0  0  0  0  0  0  0
   12.9050   14.0501   22.3142 H   0  0  0  0  0  0  0  0  0  0  0  0
   10.4946    9.5991   22.4638 H   0  0  0  0  0  0  0  0  0  0  0  0
    9.7100    8.3290   23.3639 H   0  0  0  0  0  0  0  0  0  0  0  0
  1  2  1  0  0  0  0
  1  3  2  0  0  0  0
  2  4  2  0  0  0  0
  3  6  1  0  0  0  0
  4  8  1  0  0  0  0
  5  6  2  0  0  0  0
  5  7  1  0  0  0  0
  6  8  1  0  0  0  0
  7  9  2  0  0  0  0
  7 10  1  0  0  0  0
  8 16  2  0  0  0  0
  9 16  1  0  0  0  0
  9 17  1  0  0  0  0
 10 18  1  0  0  0  0
 10 19  2  0  0  0  0
 11 12  1  0  0  0  0
 11 13  1  0  0  0  0
 12 13  1  0  0  0  0
 13 15  1  0  0  0  0
 14 18  1  0  0  0  0
 15 18  1  0  0  0  0
  1 20  1  0  0  0  0
  2 21  1  0  0  0  0
  3 22  1  0  0  0  0
  4 23  1  0  0  0  0
  5 24  1  0  0  0  0
 11 25  1  0  0  0  0
 11 26  1  0  0  0  0
 12 27  1  0  0  0  0
 12 28  1  0  0  0  0
 13 29  1  0  0  0  0
 14 30  1  0  0  0  0
 14 31  1  0  0  0  0
 14 32  1  0  0  0  0
 15 33  1  0  0  0  0
 15 34  1  0  0  0  0
 17 35  1  0  0  0  0
 17 36  1  0  0  0  0
M  END
> <idnumber>
Z4126131924

> <heavy_atoms>
19

> <LogS>
-3.695

> <LogP>
1.607

> <rotating_bonds>
3

> <PSA>
59.22

> <hb_acceptors>
3

> <hb_donors>
1

> <Collection>
Advanced

> <link>
https://www.enaminestore.com/catalog/Z4126131924

> <ROCS_ShapeQuery>
_x1140_x0812_0A_x1140_0A_x1097_0A_x0365_0A_x1097_0A_x0310_0A

> <ROCS_TanimotoCombo>
0.644 

> <ROCS_ShapeTanimoto>
0.295 

> <ROCS_ColorTanimoto>
0.349 

> <ROCS_RefTversky>
0.258 

> <ROCS_RefColorTversky>
0.459 

> <ROCS_RefTverskyCombo>
0.717 

> <ROCS_FitTversky>
1.953 

> <ROCS_FitColorTversky>
0.593 

> <ROCS_FitTverskyCombo>
2.546 

> <ROCS_ColorScore>
-3.625

> <ROCS_Overlap>
2646.192

> <ROCS_Rank>
176                 

$$$$
untitled-dbase-85586_73
  -OEChem-02092421083D

 35 36  0     0  0  0  0  0  0999 V2000
    8.0458   11.9256   25.5373 C   0  0  0  0  0  0  0  0  0  0  0  0
    8.8160   12.3515   24.4609 C   0  0  0  0  0  0  0  0  0  0  0  0
    7.6901   10.5876   25.5912 C   0  0  0  0  0  0  0  0  0  0  0  0
    9.2016   11.4392   23.4850 C   0  0  0  0  0  0  0  0  0  0  0  0
    8.7943   10.1229   23.6308 C   0  0  0  0  0  0  0  0  0  0  0  0
   10.0247   11.9213   22.3461 C   0  0  0  0  0  0  0  0  0  0  0  0
   14.1035   14.6355   23.0430 C   0  0  0  0  0  0  0  0  0  0  0  0
   12.7615   15.3591   23.1172 C   0  0  0  0  0  0  0  0  0  0  0  0
   13.9313   13.1411   22.7841 C   0  0  0  0  0  0  0  0  0  0  0  0
   11.9091   15.0926   21.8758 C   0  0  0  0  0  0  0  0  0  0  0  0
   13.0765   12.8800   21.5432 C   0  0  0  0  0  0  0  0  0  0  0  0
   11.7203   13.5962   21.5930 C   0  0  0  0  0  0  0  0  0  0  0  0
   11.0401    8.9781   22.5542 C   0  0  0  0  0  0  0  0  0  0  0  0
    8.0458    9.6719   24.6623 N   0  0  0  0  0  0  0  0  0  0  0  0
   10.8646   12.9910   22.6160 N   0  0  0  0  0  0  0  0  0  0  0  0
    9.9092   11.3788   21.2502 O   0  0  0  0  0  0  0  0  0  0  0  0
    9.2425    8.8777   22.4264 S   0  0  0  0  0  0  0  0  0  0  0  0
    7.7335   12.6189   26.3096 H   0  0  0  0  0  0  0  0  0  0  0  0
    9.1087   13.3963   24.3953 H   0  0  0  0  0  0  0  0  0  0  0  0
    7.0894   10.2054   26.4099 H   0  0  0  0  0  0  0  0  0  0  0  0
   14.7176   15.0786   22.2496 H   0  0  0  0  0  0  0  0  0  0  0  0
   14.6482   14.7813   23.9852 H   0  0  0  0  0  0  0  0  0  0  0  0
   12.2182   15.0373   24.0122 H   0  0  0  0  0  0  0  0  0  0  0  0
   12.9329   16.4376   23.2161 H   0  0  0  0  0  0  0  0  0  0  0  0
   14.9162   12.6775   22.6515 H   0  0  0  0  0  0  0  0  0  0  0  0
   13.4684   12.6667   23.6561 H   0  0  0  0  0  0  0  0  0  0  0  0
   10.9252   15.5754   22.0071 H   0  0  0  0  0  0  0  0  0  0  0  0
   12.3796   15.5825   21.0071 H   0  0  0  0  0  0  0  0  0  0  0  0
   13.6373   13.1992   20.6488 H   0  0  0  0  0  0  0  0  0  0  0  0
   12.9211   11.7921   21.4384 H   0  0  0  0  0  0  0  0  0  0  0  0
   11.1999   13.4637   20.6480 H   0  0  0  0  0  0  0  0  0  0  0  0
   11.5020    8.2646   21.8674 H   0  0  0  0  0  0  0  0  0  0  0  0
   11.3532    8.7444   23.5747 H   0  0  0  0  0  0  0  0  0  0  0  0
   11.3745    9.9869   22.2999 H   0  0  0  0  0  0  0  0  0  0  0  0
   10.8592   13.4278   23.5327 H   0  0  0  0  0  0  0  0  0  0  0  0
  1  2  2  0  0  0  0
  1  3  1  0  0  0  0
  2  4  1  0  0  0  0
  3 14  2  0  0  0  0
  4  5  2  0  0  0  0
  4  6  1  0  0  0  0
  5 14  1  0  0  0  0
  5 17  1  0  0  0  0
  6 15  1  0  0  0  0
  6 16  2  0  0  0  0
  7  8  1  0  0  0  0
  7  9  1  0  0  0  0
  8 10  1  0  0  0  0
  9 11  1  0  0  0  0
 10 12  1  0  0  0  0
 11 12  1  0  0  0  0
 12 15  1  0  0  0  0
 13 17  1  0  0  0  0
  1 18  1  0  0  0  0
  2 19  1  0  0  0  0
  3 20  1  0  0  0  0
  7 21  1  0  0  0  0
  7 22  1  0  0  0  0
  8 23  1  0  0  0  0
  8 24  1  0  0  0  0
  9 25  1  0  0  0  0
  9 26  1  0  0  0  0
 10 27  1  0  0  0  0
 10 28  1  0  0  0  0
 11 29  1  0  0  0  0
 11 30  1  0  0  0  0
 12 31  1  0  0  0  0
 13 32  1  0  0  0  0
 13 33  1  0  0  0  0
 13 34  1  0  0  0  0
 15 35  1  0  0  0  0
M  END
> <idnumber>
Z54614656

> <heavy_atoms>
17

> <LogS>
-3.58

> <LogP>
2.585

> <rotating_bonds>
3

> <PSA>
41.99

> <hb_acceptors>
2

> <hb_donors>
1

> <Collection>
Functional

> <link>
https://www.enaminestore.com/catalog/Z54614656

> <ROCS_ShapeQuery>
_x1140_x0812_0A_x1140_0A_x1097_0A_x0365_0A_x1097_0A_x0310_0A

> <ROCS_TanimotoCombo>
0.644 

> <ROCS_ShapeTanimoto>
0.224 

> <ROCS_ColorTanimoto>
0.420 

> <ROCS_RefTversky>
0.205 

> <ROCS_RefColorTversky>
0.524 

> <ROCS_RefTverskyCombo>
0.729 

> <ROCS_FitTversky>
1.719 

> <ROCS_FitColorTversky>
0.679 

> <ROCS_FitTverskyCombo>
2.398 

> <ROCS_ColorScore>
-4.139

> <ROCS_Overlap>
2101.267

> <ROCS_Rank>
177                 

$$$$
untitled-dbase-777372_30
  -OEChem-02092421083D

 43 45  0     0  0  0  0  0  0999 V2000
    6.5622   11.7353   27.6225 C   0  0  0  0  0  0  0  0  0  0  0  0
    6.5310   10.3418   27.6031 C   0  0  0  0  0  0  0  0  0  0  0  0
    7.1704   12.4356   26.5798 C   0  0  0  0  0  0  0  0  0  0  0  0
    7.1073    9.6461   26.5414 C   0  0  0  0  0  0  0  0  0  0  0  0
    7.7521   11.7453   25.5093 C   0  0  0  0  0  0  0  0  0  0  0  0
   11.9810   14.5829   21.7458 C   0  0  0  0  0  0  0  0  0  0  0  0
    7.7154   10.3483   25.4988 C   0  0  0  0  0  0  0  0  0  0  0  0
   12.4046   15.2705   22.8962 C   0  0  0  0  0  0  0  0  0  0  0  0
   11.6629   15.5839   20.8666 C   0  0  0  0  0  0  0  0  0  0  0  0
    8.9763   11.5877   23.3385 C   0  0  0  0  0  0  0  0  0  0  0  0
    8.8855   10.2462   23.4181 C   0  0  0  0  0  0  0  0  0  0  0  0
    9.6655   12.2552   22.2248 C   0  0  0  0  0  0  0  0  0  0  0  0
    8.4064   12.4961   24.3866 C   0  0  0  0  0  0  0  0  0  0  0  0
   12.8698   14.7035   24.1732 C   0  0  0  0  0  0  0  0  0  0  0  0
   11.1584   15.6076   19.4874 C   0  0  0  0  0  0  0  0  0  0  0  0
   10.8294    8.8905   22.7191 C   0  0  0  0  0  0  0  0  0  0  0  0
   11.8950   13.1002   21.5260 C   0  0  0  0  0  0  0  0  0  0  0  0
    9.4024    9.2733   22.3989 C   0  0  0  0  0  0  0  0  0  0  0  0
   12.3532   16.5966   22.7422 N   0  0  0  0  0  0  0  0  0  0  0  0
   11.0091   12.4634   22.4740 N   0  0  0  0  0  0  0  0  0  0  0  0
    9.0564   12.5681   21.2050 O   0  0  0  0  0  0  0  0  0  0  0  0
   11.8808   16.7904   21.4497 O   0  0  0  0  0  0  0  0  0  0  0  0
    8.2624    9.6000   24.4836 O   0  0  0  0  0  0  0  0  0  0  0  0
    6.1128   12.2769   28.4498 H   0  0  0  0  0  0  0  0  0  0  0  0
    6.0575    9.7981   28.4154 H   0  0  0  0  0  0  0  0  0  0  0  0
    7.1884   13.5221   26.6062 H   0  0  0  0  0  0  0  0  0  0  0  0
    7.0790    8.5599   26.5324 H   0  0  0  0  0  0  0  0  0  0  0  0
    7.6626   13.1566   23.9238 H   0  0  0  0  0  0  0  0  0  0  0  0
    9.2100   13.1178   24.8005 H   0  0  0  0  0  0  0  0  0  0  0  0
   13.9620   14.5456   24.1672 H   0  0  0  0  0  0  0  0  0  0  0  0
   12.6334   15.3580   25.0311 H   0  0  0  0  0  0  0  0  0  0  0  0
   12.3947   13.7312   24.3956 H   0  0  0  0  0  0  0  0  0  0  0  0
   10.0538   15.6177   19.4609 H   0  0  0  0  0  0  0  0  0  0  0  0
   11.5090   16.4938   18.9259 H   0  0  0  0  0  0  0  0  0  0  0  0
   11.4936   14.7313   18.9013 H   0  0  0  0  0  0  0  0  0  0  0  0
   11.4694    9.7780   22.7080 H   0  0  0  0  0  0  0  0  0  0  0  0
   11.2204    8.1749   21.9878 H   0  0  0  0  0  0  0  0  0  0  0  0
   10.9031    8.4268   23.7084 H   0  0  0  0  0  0  0  0  0  0  0  0
   11.5254   12.8800   20.5186 H   0  0  0  0  0  0  0  0  0  0  0  0
   12.8799   12.6310   21.6210 H   0  0  0  0  0  0  0  0  0  0  0  0
    8.7515    8.3976   22.4062 H   0  0  0  0  0  0  0  0  0  0  0  0
    9.3387    9.7524   21.4205 H   0  0  0  0  0  0  0  0  0  0  0  0
   11.3910   12.1550   23.3635 H   0  0  0  0  0  0  0  0  0  0  0  0
  1  2  1  0  0  0  0
  1  3  2  0  0  0  0
  2  4  2  0  0  0  0
  3  5  1  0  0  0  0
  4  7  1  0  0  0  0
  5  7  2  0  0  0  0
  5 13  1  0  0  0  0
  6  8  1  0  0  0  0
  6  9  2  0  0  0  0
  6 17  1  0  0  0  0
  7 23  1  0  0  0  0
  8 14  1  0  0  0  0
  8 19  2  0  0  0  0
  9 15  1  0  0  0  0
  9 22  1  0  0  0  0
 10 11  2  0  0  0  0
 10 12  1  0  0  0  0
 10 13  1  0  0  0  0
 11 18  1  0  0  0  0
 11 23  1  0  0  0  0
 12 20  1  0  0  0  0
 12 21  2  0  0  0  0
 16 18  1  0  0  0  0
 17 20  1  0  0  0  0
 19 22  1  0  0  0  0
  1 24  1  0  0  0  0
  2 25  1  0  0  0  0
  3 26  1  0  0  0  0
  4 27  1  0  0  0  0
 13 28  1  0  0  0  0
 13 29  1  0  0  0  0
 14 30  1  0  0  0  0
 14 31  1  0  0  0  0
 14 32  1  0  0  0  0
 15 33  1  0  0  0  0
 15 34  1  0  0  0  0
 15 35  1  0  0  0  0
 16 36  1  0  0  0  0
 16 37  1  0  0  0  0
 16 38  1  0  0  0  0
 17 39  1  0  0  0  0
 17 40  1  0  0  0  0
 18 41  1  0  0  0  0
 18 42  1  0  0  0  0
 20 43  1  0  0  0  0
M  END
> <idnumber>
Z1269974243

> <heavy_atoms>
23

> <LogS>
-2.96

> <LogP>
2.76

> <rotating_bonds>
4

> <PSA>
64.36

> <hb_acceptors>
3

> <hb_donors>
1

> <Collection>
HTS

> <link>
https://www.enaminestore.com/catalog/Z1269974243

> <ROCS_ShapeQuery>
_x1140_x0812_0A_x1140_0A_x1097_0A_x0365_0A_x1097_0A_x0310_0A

> <ROCS_TanimotoCombo>
0.644 

> <ROCS_ShapeTanimoto>
0.265 

> <ROCS_ColorTanimoto>
0.378 

> <ROCS_RefTversky>
0.241 

> <ROCS_RefColorTversky>
0.549 

> <ROCS_RefTverskyCombo>
0.790 

> <ROCS_FitTversky>
1.621 

> <ROCS_FitColorTversky>
0.549 

> <ROCS_FitTverskyCombo>
2.170 

> <ROCS_ColorScore>
-4.393

> <ROCS_Overlap>
2474.842

> <ROCS_Rank>
178                 

$$$$
untitled-dbase-944549_101
  -OEChem-02092421083D

 39 40  0     0  0  0  0  0  0999 V2000
    8.4930   12.5316   24.2171 C   0  0  0  0  0  0  0  0  0  0  0  0
   10.0039   15.4629   21.5434 C   0  0  0  0  0  0  0  0  0  0  0  0
    9.3776   16.7061   21.6314 C   0  0  0  0  0  0  0  0  0  0  0  0
    7.5727   12.1093   25.1700 C   0  0  0  0  0  0  0  0  0  0  0  0
   11.8221   16.2822   22.9071 C   0  0  0  0  0  0  0  0  0  0  0  0
    9.2670   11.5938   23.5428 C   0  0  0  0  0  0  0  0  0  0  0  0
   11.2261   15.2509   22.1812 C   0  0  0  0  0  0  0  0  0  0  0  0
    9.9736   17.7374   22.3573 C   0  0  0  0  0  0  0  0  0  0  0  0
   11.1959   17.5255   22.9951 C   0  0  0  0  0  0  0  0  0  0  0  0
    7.4655   10.7489   25.4100 C   0  0  0  0  0  0  0  0  0  0  0  0
    9.0841   10.2564   23.8558 C   0  0  0  0  0  0  0  0  0  0  0  0
   10.2371   12.0509   22.5352 C   0  0  0  0  0  0  0  0  0  0  0  0
    6.4880   10.2600   26.4261 C   0  0  0  0  0  0  0  0  0  0  0  0
    9.7605    7.8944   23.4214 C   0  0  0  0  0  0  0  0  0  0  0  0
   11.7481   12.8488   24.3111 C   0  0  0  0  0  0  0  0  0  0  0  0
   11.9007   13.9129   22.0878 C   0  0  0  0  0  0  0  0  0  0  0  0
    8.2001    9.8082   24.7752 N   0  0  0  0  0  0  0  0  0  0  0  0
    9.8700    9.2944   23.1725 N   0  0  0  0  0  0  0  0  0  0  0  0
   11.2584   12.9159   22.9414 N   0  0  0  0  0  0  0  0  0  0  0  0
   10.0805   11.6191   21.3936 O   0  0  0  0  0  0  0  0  0  0  0  0
    9.3723   18.9313   22.4408 F   0  0  0  0  0  0  0  0  0  0  0  0
   11.7677   18.5152   23.6932 F   0  0  0  0  0  0  0  0  0  0  0  0
    8.5979   13.5931   24.0088 H   0  0  0  0  0  0  0  0  0  0  0  0
    9.5324   14.6652   20.9755 H   0  0  0  0  0  0  0  0  0  0  0  0
    8.4258   16.8717   21.1353 H   0  0  0  0  0  0  0  0  0  0  0  0
    6.9621   12.8308   25.7022 H   0  0  0  0  0  0  0  0  0  0  0  0
   12.7735   16.1265   23.4086 H   0  0  0  0  0  0  0  0  0  0  0  0
    5.5167   10.0634   25.9568 H   0  0  0  0  0  0  0  0  0  0  0  0
    6.8385    9.3355   26.9023 H   0  0  0  0  0  0  0  0  0  0  0  0
    6.3456   10.9965   27.2273 H   0  0  0  0  0  0  0  0  0  0  0  0
    8.9976    7.7173   24.1938 H   0  0  0  0  0  0  0  0  0  0  0  0
    9.4699    7.3789   22.4942 H   0  0  0  0  0  0  0  0  0  0  0  0
   10.7299    7.5068   23.7680 H   0  0  0  0  0  0  0  0  0  0  0  0
   12.5796   12.1309   24.3690 H   0  0  0  0  0  0  0  0  0  0  0  0
   12.0998   13.8430   24.6237 H   0  0  0  0  0  0  0  0  0  0  0  0
   10.9348   12.5219   24.9756 H   0  0  0  0  0  0  0  0  0  0  0  0
   11.8780   13.5401   21.0579 H   0  0  0  0  0  0  0  0  0  0  0  0
   12.9522   13.9812   22.3858 H   0  0  0  0  0  0  0  0  0  0  0  0
   10.5176    9.6445   22.4968 H   0  0  0  0  0  0  0  0  0  0  0  0
  1  4  2  0  0  0  0
  1  6  1  0  0  0  0
  2  3  2  0  0  0  0
  2  7  1  0  0  0  0
  3  8  1  0  0  0  0
  4 10  1  0  0  0  0
  5  7  2  0  0  0  0
  5  9  1  0  0  0  0
  6 11  2  0  0  0  0
  6 12  1  0  0  0  0
  7 16  1  0  0  0  0
  8  9  2  0  0  0  0
  8 21  1  0  0  0  0
  9 22  1  0  0  0  0
 10 13  1  0  0  0  0
 10 17  2  0  0  0  0
 11 17  1  0  0  0  0
 11 18  1  0  0  0  0
 12 19  1  0  0  0  0
 12 20  2  0  0  0  0
 14 18  1  0  0  0  0
 15 19  1  0  0  0  0
 16 19  1  0  0  0  0
  1 23  1  0  0  0  0
  2 24  1  0  0  0  0
  3 25  1  0  0  0  0
  4 26  1  0  0  0  0
  5 27  1  0  0  0  0
 13 28  1  0  0  0  0
 13 29  1  0  0  0  0
 13 30  1  0  0  0  0
 14 31  1  0  0  0  0
 14 32  1  0  0  0  0
 14 33  1  0  0  0  0
 15 34  1  0  0  0  0
 15 35  1  0  0  0  0
 15 36  1  0  0  0  0
 16 37  1  0  0  0  0
 16 38  1  0  0  0  0
 18 39  1  0  0  0  0
M  END
> <idnumber>
Z2739892547

> <heavy_atoms>
22

> <LogS>
-3.514

> <LogP>
2.966

> <rotating_bonds>
4

> <PSA>
45.23

> <hb_acceptors>
3

> <hb_donors>
1

> <Collection>
HTS

> <link>
https://www.enaminestore.com/catalog/Z2739892547

> <ROCS_ShapeQuery>
_x1140_x0812_0A_x1140_0A_x1097_0A_x0365_0A_x1097_0A_x0310_0A

> <ROCS_TanimotoCombo>
0.644 

> <ROCS_ShapeTanimoto>
0.257 

> <ROCS_ColorTanimoto>
0.386 

> <ROCS_RefTversky>
0.234 

> <ROCS_RefColorTversky>
0.461 

> <ROCS_RefTverskyCombo>
0.696 

> <ROCS_FitTversky>
1.630 

> <ROCS_FitColorTversky>
0.703 

> <ROCS_FitTverskyCombo>
2.334 

> <ROCS_ColorScore>
-3.622

> <ROCS_Overlap>
2404.575

> <ROCS_Rank>
179                 

$$$$
untitled-dbase-1062342_83
  -OEChem-02092421083D

 36 38  0     0  0  0  0  0  0999 V2000
    3.4991   12.0323   26.1722 C   0  0  0  0  0  0  0  0  0  0  0  0
    4.5118   11.5664   26.6193 C   0  0  0  0  0  0  0  0  0  0  0  0
    8.4967   12.3688   24.3049 C   0  0  0  0  0  0  0  0  0  0  0  0
    7.5864   11.9100   25.2505 C   0  0  0  0  0  0  0  0  0  0  0  0
    8.7165   10.1380   23.5102 C   0  0  0  0  0  0  0  0  0  0  0  0
    9.0770   11.4724   23.4145 C   0  0  0  0  0  0  0  0  0  0  0  0
    7.2924   10.5560   25.2640 C   0  0  0  0  0  0  0  0  0  0  0  0
   10.0296   11.9218   22.4145 C   0  0  0  0  0  0  0  0  0  0  0  0
    1.6581   13.7589   26.3431 C   0  0  0  0  0  0  0  0  0  0  0  0
    1.0083   12.4086   26.4047 C   0  0  0  0  0  0  0  0  0  0  0  0
   11.3165   14.5994   20.7203 C   0  0  0  0  0  0  0  0  0  0  0  0
   12.1025   15.1114   21.8927 C   0  0  0  0  0  0  0  0  0  0  0  0
    2.2667   12.6005   25.6277 C   0  0  0  0  0  0  0  0  0  0  0  0
   11.7381   13.6566   21.8109 C   0  0  0  0  0  0  0  0  0  0  0  0
    5.7463   11.0005   27.1712 C   0  0  0  0  0  0  0  0  0  0  0  0
    7.8360    9.6550   24.4153 N   0  0  0  0  0  0  0  0  0  0  0  0
    6.3896   10.1162   26.2079 N   0  0  0  0  0  0  0  0  0  0  0  0
   10.7702   13.0729   22.7116 N   0  0  0  0  0  0  0  0  0  0  0  0
   10.1535   11.3097   21.3377 O   0  0  0  0  0  0  0  0  0  0  0  0
    8.7476   13.4256   24.2717 H   0  0  0  0  0  0  0  0  0  0  0  0
    7.1283   12.6027   25.9493 H   0  0  0  0  0  0  0  0  0  0  0  0
    9.1358    9.3904   22.8434 H   0  0  0  0  0  0  0  0  0  0  0  0
    1.1835   14.5183   25.7331 H   0  0  0  0  0  0  0  0  0  0  0  0
    2.1153   14.1383   27.2492 H   0  0  0  0  0  0  0  0  0  0  0  0
    1.0297   11.8833   27.3522 H   0  0  0  0  0  0  0  0  0  0  0  0
    0.0987   12.2601   25.8351 H   0  0  0  0  0  0  0  0  0  0  0  0
   10.2727   14.8810   20.6540 H   0  0  0  0  0  0  0  0  0  0  0  0
   11.8230   14.5255   19.7655 H   0  0  0  0  0  0  0  0  0  0  0  0
   13.1379   15.3816   21.7267 H   0  0  0  0  0  0  0  0  0  0  0  0
   11.5849   15.7341   22.6121 H   0  0  0  0  0  0  0  0  0  0  0  0
    2.2111   12.5746   24.5566 H   0  0  0  0  0  0  0  0  0  0  0  0
   12.5407   12.9667   21.5729 H   0  0  0  0  0  0  0  0  0  0  0  0
    5.5304   10.4443   28.0895 H   0  0  0  0  0  0  0  0  0  0  0  0
    6.4391   11.8075   27.4320 H   0  0  0  0  0  0  0  0  0  0  0  0
    6.1535    9.1374   26.2470 H   0  0  0  0  0  0  0  0  0  0  0  0
   10.5860   13.5704   23.5766 H   0  0  0  0  0  0  0  0  0  0  0  0
  1  2  3  0  0  0  0
  1 13  1  0  0  0  0
  2 15  1  0  0  0  0
  3  4  2  0  0  0  0
  3  6  1  0  0  0  0
  4  7  1  0  0  0  0
  5  6  2  0  0  0  0
  5 16  1  0  0  0  0
  6  8  1  0  0  0  0
  7 16  2  0  0  0  0
  7 17  1  0  0  0  0
  8 18  1  0  0  0  0
  8 19  2  0  0  0  0
  9 10  1  0  0  0  0
  9 13  1  0  0  0  0
 10 13  1  0  0  0  0
 11 12  1  0  0  0  0
 11 14  1  0  0  0  0
 12 14  1  0  0  0  0
 14 18  1  0  0  0  0
 15 17  1  0  0  0  0
  3 20  1  0  0  0  0
  4 21  1  0  0  0  0
  5 22  1  0  0  0  0
  9 23  1  0  0  0  0
  9 24  1  0  0  0  0
 10 25  1  0  0  0  0
 10 26  1  0  0  0  0
 11 27  1  0  0  0  0
 11 28  1  0  0  0  0
 12 29  1  0  0  0  0
 12 30  1  0  0  0  0
 13 31  1  0  0  0  0
 14 32  1  0  0  0  0
 15 33  1  0  0  0  0
 15 34  1  0  0  0  0
 17 35  1  0  0  0  0
 18 36  1  0  0  0  0
M  END
> <idnumber>
Z3870456994

> <heavy_atoms>
19

> <LogS>
-3.699

> <LogP>
2.79

> <rotating_bonds>
6

> <PSA>
54.02

> <hb_acceptors>
3

> <hb_donors>
2

> <Collection>
Advanced

> <link>
https://www.enaminestore.com/catalog/Z3870456994

> <ROCS_ShapeQuery>
_x1140_x0812_0A_x1140_0A_x1097_0A_x0365_0A_x1097_0A_x0310_0A

> <ROCS_TanimotoCombo>
0.644 

> <ROCS_ShapeTanimoto>
0.232 

> <ROCS_ColorTanimoto>
0.412 

> <ROCS_RefTversky>
0.212 

> <ROCS_RefColorTversky>
0.483 

> <ROCS_RefTverskyCombo>
0.696 

> <ROCS_FitTversky>
1.643 

> <ROCS_FitColorTversky>
0.736 

> <ROCS_FitTverskyCombo>
2.380 

> <ROCS_ColorScore>
-3.793

> <ROCS_Overlap>
2179.927

> <ROCS_Rank>
180                 

$$$$
untitled-dbase-827077_19
  -OEChem-02092421083D

 43 46  0     1  0  0  0  0  0999 V2000
    5.8966   12.7412   26.7035 C   0  0  0  0  0  0  0  0  0  0  0  0
    5.9101   11.4257   27.1502 C   0  0  0  0  0  0  0  0  0  0  0  0
    6.7054   13.1115   25.6329 C   0  0  0  0  0  0  0  0  0  0  0  0
    6.7318   10.4840   26.5259 C   0  0  0  0  0  0  0  0  0  0  0  0
    7.5319   12.1641   25.0051 C   0  0  0  0  0  0  0  0  0  0  0  0
    9.1606   11.5509   23.3270 C   0  0  0  0  0  0  0  0  0  0  0  0
    8.3560   12.5097   23.9256 C   0  0  0  0  0  0  0  0  0  0  0  0
    7.5505   10.8267   25.4533 C   0  0  0  0  0  0  0  0  0  0  0  0
    9.1110   10.2687   23.8351 C   0  0  0  0  0  0  0  0  0  0  0  0
   10.0349   11.8787   22.1915 C   0  0  0  0  0  0  0  0  0  0  0  0
   12.4631   14.4178   23.7092 C   0  0  0  0  0  0  0  0  0  0  0  0
   12.1927   16.0503   20.7291 C   0  0  0  0  0  0  0  0  0  0  0  0
   11.6789   13.1070   23.6789 C   0  0  0  0  0  0  0  0  0  0  0  0
   11.4585   13.6719   21.2587 C   0  0  0  0  0  0  0  0  0  0  0  0
   12.3832   17.2516   21.6247 C   0  0  0  0  0  0  0  0  0  0  0  0
   11.3026   15.1587   21.5737 C   0  0  1  0  0  0  0  0  0  0  0  0
   11.6901   15.5286   23.0093 C   0  0  2  0  0  0  0  0  0  0  0  0
    8.3895   13.9118   23.3946 C   0  0  0  0  0  0  0  0  0  0  0  0
    8.3304    9.8941   24.8744 N   0  0  0  0  0  0  0  0  0  0  0  0
   11.0204   12.8518   22.3875 N   0  0  0  0  0  0  0  0  0  0  0  0
    9.8248   11.2687   21.1447 O   0  0  0  0  0  0  0  0  0  0  0  0
   12.4883   16.7206   22.9498 O   0  0  0  0  0  0  0  0  0  0  0  0
    9.8836    9.2828   23.2776 O   0  0  0  0  0  0  0  0  0  0  0  0
    5.2597   13.4756   27.1872 H   0  0  0  0  0  0  0  0  0  0  0  0
    5.2819   11.1275   27.9847 H   0  0  0  0  0  0  0  0  0  0  0  0
    6.6755   14.1478   25.3054 H   0  0  0  0  0  0  0  0  0  0  0  0
    6.7260    9.4605   26.8966 H   0  0  0  0  0  0  0  0  0  0  0  0
   12.6671   14.7062   24.7432 H   0  0  0  0  0  0  0  0  0  0  0  0
   13.4410   14.2696   23.2421 H   0  0  0  0  0  0  0  0  0  0  0  0
   11.7513   16.3122   19.7598 H   0  0  0  0  0  0  0  0  0  0  0  0
   13.1611   15.5697   20.5310 H   0  0  0  0  0  0  0  0  0  0  0  0
   12.3527   12.2672   23.9355 H   0  0  0  0  0  0  0  0  0  0  0  0
   10.8885   13.1098   24.4554 H   0  0  0  0  0  0  0  0  0  0  0  0
   10.8143   13.4096   20.4163 H   0  0  0  0  0  0  0  0  0  0  0  0
   12.4850   13.4573   20.9685 H   0  0  0  0  0  0  0  0  0  0  0  0
   13.2778   17.8187   21.3812 H   0  0  0  0  0  0  0  0  0  0  0  0
   11.5162   17.9096   21.5958 H   0  0  0  0  0  0  0  0  0  0  0  0
   10.2653   15.4419   21.3937 H   0  0  0  0  0  0  0  0  0  0  0  0
   10.7737   15.7482   23.5945 H   0  0  0  0  0  0  0  0  0  0  0  0
    9.1578   14.4905   23.9158 H   0  0  0  0  0  0  0  0  0  0  0  0
    8.6078   13.9177   22.3219 H   0  0  0  0  0  0  0  0  0  0  0  0
    7.4210   14.4039   23.5312 H   0  0  0  0  0  0  0  0  0  0  0  0
    9.7352    8.4488   23.7441 H   0  0  0  0  0  0  0  0  0  0  0  0
  1  2  1  0  0  0  0
  1  3  2  0  0  0  0
  2  4  2  0  0  0  0
  3  5  1  0  0  0  0
  4  8  1  0  0  0  0
  5  7  2  0  0  0  0
  5  8  1  0  0  0  0
  6  7  1  0  0  0  0
  6  9  2  0  0  0  0
  6 10  1  0  0  0  0
  7 18  1  0  0  0  0
  8 19  2  0  0  0  0
  9 19  1  0  0  0  0
  9 23  1  0  0  0  0
 10 20  1  0  0  0  0
 10 21  2  0  0  0  0
 11 13  1  0  0  0  0
 11 17  1  0  0  0  0
 12 15  1  0  0  0  0
 12 16  1  1  0  0  0
 13 20  1  0  0  0  0
 14 16  1  0  0  0  0
 14 20  1  0  0  0  0
 15 22  1  0  0  0  0
 16 17  1  0  0  0  0
 17 22  1  1  0  0  0
  1 24  1  0  0  0  0
  2 25  1  0  0  0  0
  3 26  1  0  0  0  0
  4 27  1  0  0  0  0
 11 28  1  0  0  0  0
 11 29  1  0  0  0  0
 12 30  1  0  0  0  0
 12 31  1  0  0  0  0
 13 32  1  0  0  0  0
 13 33  1  0  0  0  0
 14 34  1  0  0  0  0
 14 35  1  0  0  0  0
 15 36  1  0  0  0  0
 15 37  1  0  0  0  0
 16 38  1  0  0  0  0
 17 39  1  0  0  0  0
 18 40  1  0  0  0  0
 18 41  1  0  0  0  0
 18 42  1  0  0  0  0
 23 43  1  0  0  0  0
M  END
> <idnumber>
Z1901462541

> <heavy_atoms>
23

> <LogS>
-4.291

> <LogP>
2.012

> <rotating_bonds>
1

> <PSA>
62.66

> <hb_acceptors>
4

> <hb_donors>
1

> <Collection>
Advanced

> <link>
https://www.enaminestore.com/catalog/Z1901462541

> <ROCS_ShapeQuery>
_x1140_x0812_0A_x1140_0A_x1097_0A_x0365_0A_x1097_0A_x0310_0A

> <ROCS_TanimotoCombo>
0.643 

> <ROCS_ShapeTanimoto>
0.306 

> <ROCS_ColorTanimoto>
0.338 

> <ROCS_RefTversky>
0.270 

> <ROCS_RefColorTversky>
0.534 

> <ROCS_RefTverskyCombo>
0.804 

> <ROCS_FitTversky>
1.785 

> <ROCS_FitColorTversky>
0.478 

> <ROCS_FitTverskyCombo>
2.263 

> <ROCS_ColorScore>
-4.303

> <ROCS_Overlap>
2770.510

> <ROCS_Rank>
181                 

$$$$
untitled-dbase-967178_44
  -OEChem-02092421083D

 34 36  0     0  0  0  0  0  0999 V2000
   12.0976   15.3614   23.5582 C   0  0  0  0  0  0  0  0  0  0  0  0
    9.0771    9.9590   23.7524 C   0  0  0  0  0  0  0  0  0  0  0  0
   10.9917   14.7501   21.7587 C   0  0  0  0  0  0  0  0  0  0  0  0
   11.3050   14.3262   23.0270 C   0  0  0  0  0  0  0  0  0  0  0  0
    9.1592   11.3321   23.6535 C   0  0  0  0  0  0  0  0  0  0  0  0
    7.3871   10.4844   25.0477 C   0  0  0  0  0  0  0  0  0  0  0  0
   10.0724   12.1471   22.9256 C   0  0  0  0  0  0  0  0  0  0  0  0
    4.7845   11.3926   27.7056 C   0  0  0  0  0  0  0  0  0  0  0  0
    6.0415   12.2127   27.6617 C   0  0  0  0  0  0  0  0  0  0  0  0
    5.5712   11.4931   26.4300 C   0  0  0  0  0  0  0  0  0  0  0  0
   11.5471   16.8083   20.4420 C   0  0  0  0  0  0  0  0  0  0  0  0
   11.3111   12.7688   25.0239 C   0  0  0  0  0  0  0  0  0  0  0  0
    8.0618    9.4710   24.5518 N   0  0  0  0  0  0  0  0  0  0  0  0
   12.2768   16.3670   22.6977 N   0  0  0  0  0  0  0  0  0  0  0  0
   11.5925   15.9658   21.6129 N   0  0  0  0  0  0  0  0  0  0  0  0
    6.3023   10.3576   25.8915 N   0  0  0  0  0  0  0  0  0  0  0  0
   10.8933   13.0830   23.6492 N   0  0  0  0  0  0  0  0  0  0  0  0
   10.1610   12.0765   21.6764 O   0  0  0  0  0  0  0  0  0  0  0  0
    7.9185   12.0518   24.5939 S   0  0  0  0  0  0  0  0  0  0  0  0
   12.5527   15.4276   24.5363 H   0  0  0  0  0  0  0  0  0  0  0  0
    9.7382    9.2587   23.2585 H   0  0  0  0  0  0  0  0  0  0  0  0
   10.4072   14.3018   20.9664 H   0  0  0  0  0  0  0  0  0  0  0  0
    4.8112   10.4604   28.2560 H   0  0  0  0  0  0  0  0  0  0  0  0
    3.8398   11.9197   27.7587 H   0  0  0  0  0  0  0  0  0  0  0  0
    5.9417   13.2908   27.6855 H   0  0  0  0  0  0  0  0  0  0  0  0
    6.9099   11.8296   28.1835 H   0  0  0  0  0  0  0  0  0  0  0  0
    5.1437   12.1018   25.6409 H   0  0  0  0  0  0  0  0  0  0  0  0
   10.6830   17.4712   20.5368 H   0  0  0  0  0  0  0  0  0  0  0  0
   12.4704   17.3907   20.3765 H   0  0  0  0  0  0  0  0  0  0  0  0
   11.4543   16.1827   19.5499 H   0  0  0  0  0  0  0  0  0  0  0  0
   10.5635   13.1552   25.7323 H   0  0  0  0  0  0  0  0  0  0  0  0
   11.3973   11.6784   25.1405 H   0  0  0  0  0  0  0  0  0  0  0  0
   12.2852   13.2375   25.2271 H   0  0  0  0  0  0  0  0  0  0  0  0
    5.9925    9.4343   26.1560 H   0  0  0  0  0  0  0  0  0  0  0  0
  1  4  1  0  0  0  0
  1 14  2  0  0  0  0
  2  5  2  0  0  0  0
  2 13  1  0  0  0  0
  3  4  2  0  0  0  0
  3 15  1  0  0  0  0
  4 17  1  0  0  0  0
  5  7  1  0  0  0  0
  5 19  1  0  0  0  0
  6 13  2  0  0  0  0
  6 16  1  0  0  0  0
  6 19  1  0  0  0  0
  7 17  1  0  0  0  0
  7 18  2  0  0  0  0
  8  9  1  0  0  0  0
  8 10  1  0  0  0  0
  9 10  1  0  0  0  0
 10 16  1  0  0  0  0
 11 15  1  0  0  0  0
 12 17  1  0  0  0  0
 14 15  1  0  0  0  0
  1 20  1  0  0  0  0
  2 21  1  0  0  0  0
  3 22  1  0  0  0  0
  8 23  1  0  0  0  0
  8 24  1  0  0  0  0
  9 25  1  0  0  0  0
  9 26  1  0  0  0  0
 10 27  1  0  0  0  0
 11 28  1  0  0  0  0
 11 29  1  0  0  0  0
 11 30  1  0  0  0  0
 12 31  1  0  0  0  0
 12 32  1  0  0  0  0
 12 33  1  0  0  0  0
 16 34  1  0  0  0  0
M  END
> <idnumber>
Z2892620153

> <heavy_atoms>
19

> <LogS>
-2.099

> <LogP>
0.38

> <rotating_bonds>
4

> <PSA>
63.05

> <hb_acceptors>
4

> <hb_donors>
1

> <Collection>
Advanced

> <link>
https://www.enaminestore.com/catalog/Z2892620153

> <ROCS_ShapeQuery>
_x1140_x0812_0A_x1140_0A_x1097_0A_x0365_0A_x1097_0A_x0310_0A

> <ROCS_TanimotoCombo>
0.643 

> <ROCS_ShapeTanimoto>
0.242 

> <ROCS_ColorTanimoto>
0.402 

> <ROCS_RefTversky>
0.220 

> <ROCS_RefColorTversky>
0.508 

> <ROCS_RefTverskyCombo>
0.728 

> <ROCS_FitTversky>
1.686 

> <ROCS_FitColorTversky>
0.658 

> <ROCS_FitTverskyCombo>
2.344 

> <ROCS_ColorScore>
-4.011

> <ROCS_Overlap>
2259.790

> <ROCS_Rank>
182                 

$$$$
untitled-dbase-799342_45
  -OEChem-02092421083D

 40 42  0     0  0  0  0  0  0999 V2000
    5.9832   12.9603   26.5982 C   0  0  0  0  0  0  0  0  0  0  0  0
    5.8798   11.6540   27.0598 C   0  0  0  0  0  0  0  0  0  0  0  0
    6.8532   13.2524   25.5517 C   0  0  0  0  0  0  0  0  0  0  0  0
    6.6460   10.6432   26.4742 C   0  0  0  0  0  0  0  0  0  0  0  0
   12.3099   14.8436   23.6933 C   0  0  0  0  0  0  0  0  0  0  0  0
    7.6238   12.2355   24.9628 C   0  0  0  0  0  0  0  0  0  0  0  0
    9.2543   11.4753   23.3477 C   0  0  0  0  0  0  0  0  0  0  0  0
    8.5073   12.5015   23.9081 C   0  0  0  0  0  0  0  0  0  0  0  0
    7.5238   10.9068   25.4262 C   0  0  0  0  0  0  0  0  0  0  0  0
    9.0886   10.2078   23.8681 C   0  0  0  0  0  0  0  0  0  0  0  0
   13.0507   15.7729   21.8776 C   0  0  0  0  0  0  0  0  0  0  0  0
   10.1805   11.7170   22.2484 C   0  0  0  0  0  0  0  0  0  0  0  0
    8.6671   13.8894   23.3630 C   0  0  0  0  0  0  0  0  0  0  0  0
   13.7186   15.9345   20.5738 C   0  0  0  0  0  0  0  0  0  0  0  0
   13.5709   13.3066   22.1434 C   0  0  0  0  0  0  0  0  0  0  0  0
   12.5248   12.3303   21.6166 C   0  0  0  0  0  0  0  0  0  0  0  0
   11.9516   16.1074   23.7222 N   0  0  0  0  0  0  0  0  0  0  0  0
    8.2474    9.9090   24.8845 N   0  0  0  0  0  0  0  0  0  0  0  0
   12.4230   16.6987   22.5671 N   0  0  0  0  0  0  0  0  0  0  0  0
   13.0041   14.5893   22.5496 N   0  0  0  0  0  0  0  0  0  0  0  0
   11.4970   12.0406   22.5906 N   0  0  0  0  0  0  0  0  0  0  0  0
    9.7886   11.6528   21.0715 O   0  0  0  0  0  0  0  0  0  0  0  0
    9.8003    9.1577   23.3481 O   0  0  0  0  0  0  0  0  0  0  0  0
    5.3897   13.7483   27.0519 H   0  0  0  0  0  0  0  0  0  0  0  0
    5.2032   11.4167   27.8757 H   0  0  0  0  0  0  0  0  0  0  0  0
    6.9146   14.2833   25.2119 H   0  0  0  0  0  0  0  0  0  0  0  0
    6.5485    9.6284   26.8558 H   0  0  0  0  0  0  0  0  0  0  0  0
   12.1003   14.0969   24.4459 H   0  0  0  0  0  0  0  0  0  0  0  0
    9.4604   14.4142   23.9035 H   0  0  0  0  0  0  0  0  0  0  0  0
    8.9204   13.8637   22.2982 H   0  0  0  0  0  0  0  0  0  0  0  0
    7.7358   14.4567   23.4611 H   0  0  0  0  0  0  0  0  0  0  0  0
   14.7776   16.2166   20.6996 H   0  0  0  0  0  0  0  0  0  0  0  0
   13.6897   15.0078   19.9739 H   0  0  0  0  0  0  0  0  0  0  0  0
   13.2380   16.7116   19.9537 H   0  0  0  0  0  0  0  0  0  0  0  0
   14.0713   12.8848   23.0234 H   0  0  0  0  0  0  0  0  0  0  0  0
   14.3459   13.5013   21.3925 H   0  0  0  0  0  0  0  0  0  0  0  0
   12.0221   12.7562   20.7429 H   0  0  0  0  0  0  0  0  0  0  0  0
   12.9767   11.3775   21.3226 H   0  0  0  0  0  0  0  0  0  0  0  0
   11.7469   12.1410   23.5690 H   0  0  0  0  0  0  0  0  0  0  0  0
   10.3672    9.4713   22.6301 H   0  0  0  0  0  0  0  0  0  0  0  0
  1  2  1  0  0  0  0
  1  3  2  0  0  0  0
  2  4  2  0  0  0  0
  3  6  1  0  0  0  0
  4  9  1  0  0  0  0
  5 17  2  0  0  0  0
  5 20  1  0  0  0  0
  6  8  2  0  0  0  0
  6  9  1  0  0  0  0
  7  8  1  0  0  0  0
  7 10  2  0  0  0  0
  7 12  1  0  0  0  0
  8 13  1  0  0  0  0
  9 18  2  0  0  0  0
 10 18  1  0  0  0  0
 10 23  1  0  0  0  0
 11 14  1  0  0  0  0
 11 19  2  0  0  0  0
 11 20  1  0  0  0  0
 12 21  1  0  0  0  0
 12 22  2  0  0  0  0
 15 16  1  0  0  0  0
 15 20  1  0  0  0  0
 16 21  1  0  0  0  0
 17 19  1  0  0  0  0
  1 24  1  0  0  0  0
  2 25  1  0  0  0  0
  3 26  1  0  0  0  0
  4 27  1  0  0  0  0
  5 28  1  0  0  0  0
 13 29  1  0  0  0  0
 13 30  1  0  0  0  0
 13 31  1  0  0  0  0
 14 32  1  0  0  0  0
 14 33  1  0  0  0  0
 14 34  1  0  0  0  0
 15 35  1  0  0  0  0
 15 36  1  0  0  0  0
 16 37  1  0  0  0  0
 16 38  1  0  0  0  0
 21 39  1  0  0  0  0
 23 40  1  0  0  0  0
M  END
> <idnumber>
Z1344149943

> <heavy_atoms>
23

> <LogS>
-3.247

> <LogP>
2.101

> <rotating_bonds>
4

> <PSA>
92.93

> <hb_acceptors>
5

> <hb_donors>
2

> <Collection>
HTS

> <link>
https://www.enaminestore.com/catalog/Z1344149943

> <ROCS_ShapeQuery>
_x1140_x0812_0A_x1140_0A_x1097_0A_x0365_0A_x1097_0A_x0310_0A

> <ROCS_TanimotoCombo>
0.643 

> <ROCS_ShapeTanimoto>
0.288 

> <ROCS_ColorTanimoto>
0.355 

> <ROCS_RefTversky>
0.257 

> <ROCS_RefColorTversky>
0.592 

> <ROCS_RefTverskyCombo>
0.849 

> <ROCS_FitTversky>
1.707 

> <ROCS_FitColorTversky>
0.471 

> <ROCS_FitTverskyCombo>
2.178 

> <ROCS_ColorScore>
-4.803

> <ROCS_Overlap>
2642.378

> <ROCS_Rank>
183                 

$$$$
untitled-dbase-1100492_16
  -OEChem-02092421083D

 32 34  0     0  0  0  0  0  0999 V2000
    6.5454   10.2139   26.4528 C   0  0  0  0  0  0  0  0  0  0  0  0
    5.7076   11.1122   27.1183 C   0  0  0  0  0  0  0  0  0  0  0  0
    8.2870   12.4212   24.0869 C   0  0  0  0  0  0  0  0  0  0  0  0
    6.5757   12.9041   25.7722 C   0  0  0  0  0  0  0  0  0  0  0  0
    7.4183   12.0003   25.1029 C   0  0  0  0  0  0  0  0  0  0  0  0
    9.1065   11.5040   23.4451 C   0  0  0  0  0  0  0  0  0  0  0  0
    7.4083   10.6314   25.4433 C   0  0  0  0  0  0  0  0  0  0  0  0
    5.7225   12.4591   26.7778 C   0  0  0  0  0  0  0  0  0  0  0  0
    9.0265   10.1861   23.8469 C   0  0  0  0  0  0  0  0  0  0  0  0
   10.0082   11.9401   22.3905 C   0  0  0  0  0  0  0  0  0  0  0  0
   12.3724   15.8255   22.7222 C   0  0  0  0  0  0  0  0  0  0  0  0
   12.9646   15.7773   21.3413 C   0  0  0  0  0  0  0  0  0  0  0  0
   11.7758   14.9211   21.6797 C   0  0  0  0  0  0  0  0  0  0  0  0
   11.9246   13.4421   21.7941 C   0  0  0  0  0  0  0  0  0  0  0  0
    8.2026    9.7390   24.8222 N   0  0  0  0  0  0  0  0  0  0  0  0
   10.9737   12.8935   22.7341 N   0  0  0  0  0  0  0  0  0  0  0  0
    9.8956   11.4888   21.2370 O   0  0  0  0  0  0  0  0  0  0  0  0
    9.8157    9.2413   23.2436 O   0  0  0  0  0  0  0  0  0  0  0  0
    4.9212   13.3239   27.4129 F   0  0  0  0  0  0  0  0  0  0  0  0
    6.5147    9.1639   26.7383 H   0  0  0  0  0  0  0  0  0  0  0  0
    5.0449   10.7566   27.9018 H   0  0  0  0  0  0  0  0  0  0  0  0
    8.3212   13.4702   23.7981 H   0  0  0  0  0  0  0  0  0  0  0  0
    6.5793   13.9607   25.5137 H   0  0  0  0  0  0  0  0  0  0  0  0
   12.9413   15.3819   23.5299 H   0  0  0  0  0  0  0  0  0  0  0  0
   11.8138   16.7108   23.0004 H   0  0  0  0  0  0  0  0  0  0  0  0
   12.8029   16.6300   20.6934 H   0  0  0  0  0  0  0  0  0  0  0  0
   13.9304   15.3015   21.2241 H   0  0  0  0  0  0  0  0  0  0  0  0
   10.8177   15.2021   21.2595 H   0  0  0  0  0  0  0  0  0  0  0  0
   11.7570   12.9869   20.8068 H   0  0  0  0  0  0  0  0  0  0  0  0
   12.9436   13.2092   22.1369 H   0  0  0  0  0  0  0  0  0  0  0  0
   10.9814   13.2752   23.6743 H   0  0  0  0  0  0  0  0  0  0  0  0
   10.3643    9.6588   22.5654 H   0  0  0  0  0  0  0  0  0  0  0  0
  1  2  2  0  0  0  0
  1  7  1  0  0  0  0
  2  8  1  0  0  0  0
  3  5  2  0  0  0  0
  3  6  1  0  0  0  0
  4  5  1  0  0  0  0
  4  8  2  0  0  0  0
  5  7  1  0  0  0  0
  6  9  2  0  0  0  0
  6 10  1  0  0  0  0
  7 15  2  0  0  0  0
  8 19  1  0  0  0  0
  9 15  1  0  0  0  0
  9 18  1  0  0  0  0
 10 16  1  0  0  0  0
 10 17  2  0  0  0  0
 11 12  1  0  0  0  0
 11 13  1  0  0  0  0
 12 13  1  0  0  0  0
 13 14  1  0  0  0  0
 14 16  1  0  0  0  0
  1 20  1  0  0  0  0
  2 21  1  0  0  0  0
  3 22  1  0  0  0  0
  4 23  1  0  0  0  0
 11 24  1  0  0  0  0
 11 25  1  0  0  0  0
 12 26  1  0  0  0  0
 12 27  1  0  0  0  0
 13 28  1  0  0  0  0
 14 29  1  0  0  0  0
 14 30  1  0  0  0  0
 16 31  1  0  0  0  0
 18 32  1  0  0  0  0
M  END
> <idnumber>
Z4784462017

> <heavy_atoms>
19

> <LogS>
-3.68

> <LogP>
3.942

> <rotating_bonds>
3

> <PSA>
62.22

> <hb_acceptors>
3

> <hb_donors>
2

> <Collection>
Advanced

> <link>
https://www.enaminestore.com/catalog/Z4784462017

> <ROCS_ShapeQuery>
_x1140_x0812_0A_x1140_0A_x1097_0A_x0365_0A_x1097_0A_x0310_0A

> <ROCS_TanimotoCombo>
0.643 

> <ROCS_ShapeTanimoto>
0.285 

> <ROCS_ColorTanimoto>
0.358 

> <ROCS_RefTversky>
0.251 

> <ROCS_RefColorTversky>
0.498 

> <ROCS_RefTverskyCombo>
0.749 

> <ROCS_FitTversky>
1.896 

> <ROCS_FitColorTversky>
0.560 

> <ROCS_FitTverskyCombo>
2.456 

> <ROCS_ColorScore>
-3.958

> <ROCS_Overlap>
2581.013

> <ROCS_Rank>
184                 

$$$$
untitled-dbase-803782_31
  -OEChem-02092421083D

 44 46  0     0  0  0  0  0  0999 V2000
   11.4579   15.8620   25.2581 C   0  0  0  0  0  0  0  0  0  0  0  0
   11.0333   15.1851   26.4014 C   0  0  0  0  0  0  0  0  0  0  0  0
   11.1373   15.3660   23.9944 C   0  0  0  0  0  0  0  0  0  0  0  0
    7.2452   13.1787   26.1039 C   0  0  0  0  0  0  0  0  0  0  0  0
   10.2882   14.0121   26.2810 C   0  0  0  0  0  0  0  0  0  0  0  0
   10.3921   14.1930   23.8740 C   0  0  0  0  0  0  0  0  0  0  0  0
    5.9610   12.9678   26.5962 C   0  0  0  0  0  0  0  0  0  0  0  0
    6.0108   10.7221   25.7067 C   0  0  0  0  0  0  0  0  0  0  0  0
    7.9095   12.1521   25.4104 C   0  0  0  0  0  0  0  0  0  0  0  0
    9.9676   13.5161   25.0173 C   0  0  0  0  0  0  0  0  0  0  0  0
    5.3435   11.7380   26.3973 C   0  0  0  0  0  0  0  0  0  0  0  0
    7.2962   10.9058   25.2030 C   0  0  0  0  0  0  0  0  0  0  0  0
    9.1935   12.2979   24.8927 C   0  0  0  0  0  0  0  0  0  0  0  0
    9.1646   10.1825   24.0884 C   0  0  0  0  0  0  0  0  0  0  0  0
    3.9673   11.5011   26.9213 C   0  0  0  0  0  0  0  0  0  0  0  0
   11.2690    8.0342   21.8352 C   0  0  0  0  0  0  0  0  0  0  0  0
   11.9622   10.1770   22.9305 C   0  0  0  0  0  0  0  0  0  0  0  0
   10.1082   10.1634   21.2041 C   0  0  0  0  0  0  0  0  0  0  0  0
   10.7759    9.3911   22.3555 C   0  0  0  0  0  0  0  0  0  0  0  0
    7.9223    9.9171   24.5410 N   0  0  0  0  0  0  0  0  0  0  0  0
    9.8491   11.3295   24.2256 N   0  0  0  0  0  0  0  0  0  0  0  0
    9.8015    9.1632   23.4097 N   0  0  0  0  0  0  0  0  0  0  0  0
   10.0566   11.5601   21.4718 O   0  0  0  0  0  0  0  0  0  0  0  0
   12.0367   16.7762   25.3521 H   0  0  0  0  0  0  0  0  0  0  0  0
   11.2815   15.5720   27.3854 H   0  0  0  0  0  0  0  0  0  0  0  0
   11.4664   15.8934   23.1038 H   0  0  0  0  0  0  0  0  0  0  0  0
    7.7076   14.1479   26.2717 H   0  0  0  0  0  0  0  0  0  0  0  0
    9.9644   13.4960   27.1818 H   0  0  0  0  0  0  0  0  0  0  0  0
   10.1493   13.8188   22.8824 H   0  0  0  0  0  0  0  0  0  0  0  0
    5.4514   13.7647   27.1306 H   0  0  0  0  0  0  0  0  0  0  0  0
    5.5130    9.7647   25.5593 H   0  0  0  0  0  0  0  0  0  0  0  0
    3.2191   11.7824   26.1701 H   0  0  0  0  0  0  0  0  0  0  0  0
    3.8172   10.4459   27.1838 H   0  0  0  0  0  0  0  0  0  0  0  0
    3.7822   12.0846   27.8325 H   0  0  0  0  0  0  0  0  0  0  0  0
   10.4456    7.4449   21.4164 H   0  0  0  0  0  0  0  0  0  0  0  0
   12.0252    8.1617   21.0518 H   0  0  0  0  0  0  0  0  0  0  0  0
   11.7300    7.4461   22.6374 H   0  0  0  0  0  0  0  0  0  0  0  0
   11.6515   11.1554   23.3140 H   0  0  0  0  0  0  0  0  0  0  0  0
   12.7343   10.3414   22.1709 H   0  0  0  0  0  0  0  0  0  0  0  0
   12.4221    9.6381   23.7672 H   0  0  0  0  0  0  0  0  0  0  0  0
   10.6677   10.0313   20.2716 H   0  0  0  0  0  0  0  0  0  0  0  0
    9.0834    9.8154   21.0306 H   0  0  0  0  0  0  0  0  0  0  0  0
    9.5863    8.2065   23.6487 H   0  0  0  0  0  0  0  0  0  0  0  0
    9.6262   11.9743   20.7071 H   0  0  0  0  0  0  0  0  0  0  0  0
  1  2  1  0  0  0  0
  1  3  2  0  0  0  0
  2  5  2  0  0  0  0
  3  6  1  0  0  0  0
  4  7  2  0  0  0  0
  4  9  1  0  0  0  0
  5 10  1  0  0  0  0
  6 10  2  0  0  0  0
  7 11  1  0  0  0  0
  8 11  2  0  0  0  0
  8 12  1  0  0  0  0
  9 12  2  0  0  0  0
  9 13  1  0  0  0  0
 10 13  1  0  0  0  0
 11 15  1  0  0  0  0
 12 20  1  0  0  0  0
 13 21  2  0  0  0  0
 14 20  2  0  0  0  0
 14 21  1  0  0  0  0
 14 22  1  0  0  0  0
 16 19  1  0  0  0  0
 17 19  1  0  0  0  0
 18 19  1  0  0  0  0
 18 23  1  0  0  0  0
 19 22  1  0  0  0  0
  1 24  1  0  0  0  0
  2 25  1  0  0  0  0
  3 26  1  0  0  0  0
  4 27  1  0  0  0  0
  5 28  1  0  0  0  0
  6 29  1  0  0  0  0
  7 30  1  0  0  0  0
  8 31  1  0  0  0  0
 15 32  1  0  0  0  0
 15 33  1  0  0  0  0
 15 34  1  0  0  0  0
 16 35  1  0  0  0  0
 16 36  1  0  0  0  0
 16 37  1  0  0  0  0
 17 38  1  0  0  0  0
 17 39  1  0  0  0  0
 17 40  1  0  0  0  0
 18 41  1  0  0  0  0
 18 42  1  0  0  0  0
 22 43  1  0  0  0  0
 23 44  1  0  0  0  0
M  END
> <idnumber>
Z1945704390

> <heavy_atoms>
23

> <LogS>
-5.57

> <LogP>
4.424

> <rotating_bonds>
4

> <PSA>
58.04

> <hb_acceptors>
4

> <hb_donors>
2

> <Collection>
HTS

> <link>
https://www.enaminestore.com/catalog/Z1945704390

> <ROCS_ShapeQuery>
_x1140_x0812_0A_x1140_0A_x1097_0A_x0365_0A_x1097_0A_x0310_0A

> <ROCS_TanimotoCombo>
0.643 

> <ROCS_ShapeTanimoto>
0.262 

> <ROCS_ColorTanimoto>
0.381 

> <ROCS_RefTversky>
0.239 

> <ROCS_RefColorTversky>
0.583 

> <ROCS_RefTverskyCombo>
0.822 

> <ROCS_FitTversky>
1.595 

> <ROCS_FitColorTversky>
0.524 

> <ROCS_FitTverskyCombo>
2.118 

> <ROCS_ColorScore>
-4.693

> <ROCS_Overlap>
2453.361

> <ROCS_Rank>
185                 

$$$$
untitled-dbase-700803_31
  -OEChem-02092421083D

 44 46  0     0  0  0  0  0  0999 V2000
   11.4558   15.8612   25.2587 C   0  0  0  0  0  0  0  0  0  0  0  0
   11.0310   15.1842   26.4019 C   0  0  0  0  0  0  0  0  0  0  0  0
   11.1355   15.3651   23.9950 C   0  0  0  0  0  0  0  0  0  0  0  0
   10.2861   14.0111   26.2814 C   0  0  0  0  0  0  0  0  0  0  0  0
   10.3906   14.1919   23.8745 C   0  0  0  0  0  0  0  0  0  0  0  0
    5.3418   11.7344   26.3960 C   0  0  0  0  0  0  0  0  0  0  0  0
    6.0098   10.7191   25.7052 C   0  0  0  0  0  0  0  0  0  0  0  0
    7.2430   13.1760   26.1038 C   0  0  0  0  0  0  0  0  0  0  0  0
    7.9080   12.1500   25.4101 C   0  0  0  0  0  0  0  0  0  0  0  0
    9.9659   13.5149   25.0177 C   0  0  0  0  0  0  0  0  0  0  0  0
    5.9587   12.9644   26.5956 C   0  0  0  0  0  0  0  0  0  0  0  0
    7.2953   10.9035   25.2020 C   0  0  0  0  0  0  0  0  0  0  0  0
    9.1920   12.2966   24.8930 C   0  0  0  0  0  0  0  0  0  0  0  0
    9.1643   10.1815   24.0878 C   0  0  0  0  0  0  0  0  0  0  0  0
    5.2481   14.0491   27.3311 C   0  0  0  0  0  0  0  0  0  0  0  0
   11.2712    8.0354   21.8348 C   0  0  0  0  0  0  0  0  0  0  0  0
   11.9625   10.1783   22.9311 C   0  0  0  0  0  0  0  0  0  0  0  0
   10.1093   10.1640   21.2039 C   0  0  0  0  0  0  0  0  0  0  0  0
   10.7770    9.3919   22.3554 C   0  0  0  0  0  0  0  0  0  0  0  0
    7.9220    9.9154   24.5399 N   0  0  0  0  0  0  0  0  0  0  0  0
    9.8483   11.3287   24.2257 N   0  0  0  0  0  0  0  0  0  0  0  0
    9.8023    9.1629   23.4090 N   0  0  0  0  0  0  0  0  0  0  0  0
   10.0566   11.5607   21.4720 O   0  0  0  0  0  0  0  0  0  0  0  0
   12.0343   16.7755   25.3528 H   0  0  0  0  0  0  0  0  0  0  0  0
   11.2789   15.5712   27.3860 H   0  0  0  0  0  0  0  0  0  0  0  0
   11.4647   15.8924   23.1044 H   0  0  0  0  0  0  0  0  0  0  0  0
    9.9622   13.4950   27.1822 H   0  0  0  0  0  0  0  0  0  0  0  0
   10.1480   13.8176   22.8828 H   0  0  0  0  0  0  0  0  0  0  0  0
    4.3396   11.5512   26.7743 H   0  0  0  0  0  0  0  0  0  0  0  0
    5.5050    9.7653   25.5623 H   0  0  0  0  0  0  0  0  0  0  0  0
    7.7132   14.1429   26.2685 H   0  0  0  0  0  0  0  0  0  0  0  0
    5.4608   13.9856   28.4055 H   0  0  0  0  0  0  0  0  0  0  0  0
    5.5554   15.0409   26.9742 H   0  0  0  0  0  0  0  0  0  0  0  0
    4.1615   13.9830   27.1874 H   0  0  0  0  0  0  0  0  0  0  0  0
   10.4484    7.4458   21.4154 H   0  0  0  0  0  0  0  0  0  0  0  0
   12.0277    8.1638   21.0518 H   0  0  0  0  0  0  0  0  0  0  0  0
   11.7323    7.4474   22.6370 H   0  0  0  0  0  0  0  0  0  0  0  0
   11.6509   11.1563   23.3148 H   0  0  0  0  0  0  0  0  0  0  0  0
   12.7349   10.3435   22.1720 H   0  0  0  0  0  0  0  0  0  0  0  0
   12.4224    9.6395   23.7679 H   0  0  0  0  0  0  0  0  0  0  0  0
   10.6693   10.0326   20.2716 H   0  0  0  0  0  0  0  0  0  0  0  0
    9.0848    9.8154   21.0298 H   0  0  0  0  0  0  0  0  0  0  0  0
    9.5876    8.2059   23.6475 H   0  0  0  0  0  0  0  0  0  0  0  0
    9.6262   11.9748   20.7073 H   0  0  0  0  0  0  0  0  0  0  0  0
  1  2  1  0  0  0  0
  1  3  2  0  0  0  0
  2  4  2  0  0  0  0
  3  5  1  0  0  0  0
  4 10  1  0  0  0  0
  5 10  2  0  0  0  0
  6  7  2  0  0  0  0
  6 11  1  0  0  0  0
  7 12  1  0  0  0  0
  8  9  1  0  0  0  0
  8 11  2  0  0  0  0
  9 12  2  0  0  0  0
  9 13  1  0  0  0  0
 10 13  1  0  0  0  0
 11 15  1  0  0  0  0
 12 20  1  0  0  0  0
 13 21  2  0  0  0  0
 14 20  2  0  0  0  0
 14 21  1  0  0  0  0
 14 22  1  0  0  0  0
 16 19  1  0  0  0  0
 17 19  1  0  0  0  0
 18 19  1  0  0  0  0
 18 23  1  0  0  0  0
 19 22  1  0  0  0  0
  1 24  1  0  0  0  0
  2 25  1  0  0  0  0
  3 26  1  0  0  0  0
  4 27  1  0  0  0  0
  5 28  1  0  0  0  0
  6 29  1  0  0  0  0
  7 30  1  0  0  0  0
  8 31  1  0  0  0  0
 15 32  1  0  0  0  0
 15 33  1  0  0  0  0
 15 34  1  0  0  0  0
 16 35  1  0  0  0  0
 16 36  1  0  0  0  0
 16 37  1  0  0  0  0
 17 38  1  0  0  0  0
 17 39  1  0  0  0  0
 17 40  1  0  0  0  0
 18 41  1  0  0  0  0
 18 42  1  0  0  0  0
 22 43  1  0  0  0  0
 23 44  1  0  0  0  0
M  END
> <idnumber>
Z314599438

> <heavy_atoms>
23

> <LogS>
-5.57

> <LogP>
4.424

> <rotating_bonds>
4

> <PSA>
58.04

> <hb_acceptors>
4

> <hb_donors>
2

> <Collection>
Legacy

> <link>
https://www.enaminestore.com/catalog/Z314599438

> <ROCS_ShapeQuery>
_x1140_x0812_0A_x1140_0A_x1097_0A_x0365_0A_x1097_0A_x0310_0A

> <ROCS_TanimotoCombo>
0.643 

> <ROCS_ShapeTanimoto>
0.262 

> <ROCS_ColorTanimoto>
0.381 

> <ROCS_RefTversky>
0.239 

> <ROCS_RefColorTversky>
0.583 

> <ROCS_RefTverskyCombo>
0.822 

> <ROCS_FitTversky>
1.594 

> <ROCS_FitColorTversky>
0.524 

> <ROCS_FitTverskyCombo>
2.118 

> <ROCS_ColorScore>
-4.693

> <ROCS_Overlap>
2452.967

> <ROCS_Rank>
186                 

$$$$
untitled-dbase-1002206_160
  -OEChem-02092421083D

 40 41  0     0  0  0  0  0  0999 V2000
    8.2716   12.4291   24.0747 C   0  0  0  0  0  0  0  0  0  0  0  0
    7.4079   12.0161   25.0831 C   0  0  0  0  0  0  0  0  0  0  0  0
   14.0333   16.2293   23.0847 C   0  0  0  0  0  0  0  0  0  0  0  0
   13.0451   15.7686   22.1801 C   0  0  0  0  0  0  0  0  0  0  0  0
    9.0937   11.4997   23.4473 C   0  0  0  0  0  0  0  0  0  0  0  0
    7.4045   10.6733   25.4245 C   0  0  0  0  0  0  0  0  0  0  0  0
   14.3935   15.1628   23.8785 C   0  0  0  0  0  0  0  0  0  0  0  0
   12.8314   14.4347   22.4488 C   0  0  0  0  0  0  0  0  0  0  0  0
    9.0150   10.1800   23.8621 C   0  0  0  0  0  0  0  0  0  0  0  0
    9.9937   11.9421   22.3913 C   0  0  0  0  0  0  0  0  0  0  0  0
    6.4903   10.1947   26.5025 C   0  0  0  0  0  0  0  0  0  0  0  0
   15.3775   15.0911   24.9783 C   0  0  0  0  0  0  0  0  0  0  0  0
   13.7365   12.7555   24.0685 C   0  0  0  0  0  0  0  0  0  0  0  0
   11.2735    9.3208   23.2404 C   0  0  0  0  0  0  0  0  0  0  0  0
   11.8955   13.4598   21.7945 C   0  0  0  0  0  0  0  0  0  0  0  0
    8.1886    9.7412   24.8379 N   0  0  0  0  0  0  0  0  0  0  0  0
   13.6562   14.0773   23.4832 N   0  0  0  0  0  0  0  0  0  0  0  0
    9.8505    9.2267   23.2272 N   0  0  0  0  0  0  0  0  0  0  0  0
   10.9487   12.9047   22.7349 N   0  0  0  0  0  0  0  0  0  0  0  0
    9.8853   11.4864   21.2401 O   0  0  0  0  0  0  0  0  0  0  0  0
    8.2950   13.4768   23.7867 H   0  0  0  0  0  0  0  0  0  0  0  0
    6.7608   12.7310   25.5796 H   0  0  0  0  0  0  0  0  0  0  0  0
   14.4370   17.2304   23.1482 H   0  0  0  0  0  0  0  0  0  0  0  0
   12.5453   16.3485   21.4165 H   0  0  0  0  0  0  0  0  0  0  0  0
    5.5241    9.8965   26.0782 H   0  0  0  0  0  0  0  0  0  0  0  0
    6.9179    9.3350   27.0339 H   0  0  0  0  0  0  0  0  0  0  0  0
    6.3155   10.9773   27.2519 H   0  0  0  0  0  0  0  0  0  0  0  0
   14.9069   15.3253   25.9466 H   0  0  0  0  0  0  0  0  0  0  0  0
   15.8333   14.0900   25.0592 H   0  0  0  0  0  0  0  0  0  0  0  0
   16.2127   15.7963   24.8308 H   0  0  0  0  0  0  0  0  0  0  0  0
   13.0124   12.7040   24.8859 H   0  0  0  0  0  0  0  0  0  0  0  0
   13.5069   12.0054   23.3066 H   0  0  0  0  0  0  0  0  0  0  0  0
   14.7501   12.5871   24.4429 H   0  0  0  0  0  0  0  0  0  0  0  0
   11.5771   10.2161   23.8029 H   0  0  0  0  0  0  0  0  0  0  0  0
   11.6956    8.4257   23.7207 H   0  0  0  0  0  0  0  0  0  0  0  0
   11.6457    9.3929   22.2079 H   0  0  0  0  0  0  0  0  0  0  0  0
   11.3290   13.9467   20.9933 H   0  0  0  0  0  0  0  0  0  0  0  0
   12.4468   12.6278   21.3439 H   0  0  0  0  0  0  0  0  0  0  0  0
    9.3923    8.4717   22.7596 H   0  0  0  0  0  0  0  0  0  0  0  0
   10.9520   13.2887   23.6742 H   0  0  0  0  0  0  0  0  0  0  0  0
  1  2  2  0  0  0  0
  1  5  1  0  0  0  0
  2  6  1  0  0  0  0
  3  4  1  0  0  0  0
  3  7  2  0  0  0  0
  4  8  2  0  0  0  0
  5  9  2  0  0  0  0
  5 10  1  0  0  0  0
  6 11  1  0  0  0  0
  6 16  2  0  0  0  0
  7 12  1  0  0  0  0
  7 17  1  0  0  0  0
  8 15  1  0  0  0  0
  8 17  1  0  0  0  0
  9 16  1  0  0  0  0
  9 18  1  0  0  0  0
 10 19  1  0  0  0  0
 10 20  2  0  0  0  0
 13 17  1  0  0  0  0
 14 18  1  0  0  0  0
 15 19  1  0  0  0  0
  1 21  1  0  0  0  0
  2 22  1  0  0  0  0
  3 23  1  0  0  0  0
  4 24  1  0  0  0  0
 11 25  1  0  0  0  0
 11 26  1  0  0  0  0
 11 27  1  0  0  0  0
 12 28  1  0  0  0  0
 12 29  1  0  0  0  0
 12 30  1  0  0  0  0
 13 31  1  0  0  0  0
 13 32  1  0  0  0  0
 13 33  1  0  0  0  0
 14 34  1  0  0  0  0
 14 35  1  0  0  0  0
 14 36  1  0  0  0  0
 15 37  1  0  0  0  0
 15 38  1  0  0  0  0
 18 39  1  0  0  0  0
 19 40  1  0  0  0  0
M  END
> <idnumber>
Z3044709108

> <heavy_atoms>
20

> <LogS>
-1.696

> <LogP>
3.071

> <rotating_bonds>
4

> <PSA>
58.95

> <hb_acceptors>
3

> <hb_donors>
2

> <Collection>
HTS

> <link>
https://www.enaminestore.com/catalog/Z3044709108

> <ROCS_ShapeQuery>
_x1140_x0812_0A_x1140_0A_x1097_0A_x0365_0A_x1097_0A_x0310_0A

> <ROCS_TanimotoCombo>
0.643 

> <ROCS_ShapeTanimoto>
0.251 

> <ROCS_ColorTanimoto>
0.392 

> <ROCS_RefTversky>
0.227 

> <ROCS_RefColorTversky>
0.499 

> <ROCS_RefTverskyCombo>
0.727 

> <ROCS_FitTversky>
1.682 

> <ROCS_FitColorTversky>
0.647 

> <ROCS_FitTverskyCombo>
2.329 

> <ROCS_ColorScore>
-3.945

> <ROCS_Overlap>
2335.199

> <ROCS_Rank>
187                 

$$$$
untitled-dbase-154506_94
  -OEChem-02092421083D

 36 37  0     0  0  0  0  0  0999 V2000
    8.4081   12.3642   24.2553 C   0  0  0  0  0  0  0  0  0  0  0  0
    7.5454   11.9282   25.2547 C   0  0  0  0  0  0  0  0  0  0  0  0
   12.1243   15.2290   24.6970 C   0  0  0  0  0  0  0  0  0  0  0  0
    9.0994   11.4342   23.4867 C   0  0  0  0  0  0  0  0  0  0  0  0
    7.4101   10.5623   25.4442 C   0  0  0  0  0  0  0  0  0  0  0  0
   12.5233   15.2526   23.3770 C   0  0  0  0  0  0  0  0  0  0  0  0
    8.8946   10.0905   23.7555 C   0  0  0  0  0  0  0  0  0  0  0  0
   11.8483   17.3317   23.5546 C   0  0  0  0  0  0  0  0  0  0  0  0
   10.0028   11.8887   22.4408 C   0  0  0  0  0  0  0  0  0  0  0  0
    6.4930   10.0581   26.5082 C   0  0  0  0  0  0  0  0  0  0  0  0
    9.6093    9.0444   22.9630 C   0  0  0  0  0  0  0  0  0  0  0  0
   11.5356   18.7354   23.2085 C   0  0  0  0  0  0  0  0  0  0  0  0
   13.1056   14.0899   22.6115 C   0  0  0  0  0  0  0  0  0  0  0  0
   12.0431   13.2452   21.9124 C   0  0  0  0  0  0  0  0  0  0  0  0
    8.0648    9.6289   24.7178 N   0  0  0  0  0  0  0  0  0  0  0  0
   12.3654   16.4574   22.7202 N   0  0  0  0  0  0  0  0  0  0  0  0
   11.0750   12.6970   22.8350 N   0  0  0  0  0  0  0  0  0  0  0  0
    9.8004   11.5782   21.2537 O   0  0  0  0  0  0  0  0  0  0  0  0
   11.5273   16.7731   25.1452 S   0  0  0  0  0  0  0  0  0  0  0  0
    8.5335   13.4303   24.0847 H   0  0  0  0  0  0  0  0  0  0  0  0
    7.0004   12.6434   25.8615 H   0  0  0  0  0  0  0  0  0  0  0  0
   12.1533   14.4080   25.3994 H   0  0  0  0  0  0  0  0  0  0  0  0
    5.4842    9.9124   26.1040 H   0  0  0  0  0  0  0  0  0  0  0  0
    6.8460    9.1030   26.9174 H   0  0  0  0  0  0  0  0  0  0  0  0
    6.4339   10.7619   27.3482 H   0  0  0  0  0  0  0  0  0  0  0  0
   10.5652    8.7963   23.4380 H   0  0  0  0  0  0  0  0  0  0  0  0
    9.0096    8.1297   22.8838 H   0  0  0  0  0  0  0  0  0  0  0  0
    9.8051    9.3883   21.9401 H   0  0  0  0  0  0  0  0  0  0  0  0
   10.5070   18.8274   22.8261 H   0  0  0  0  0  0  0  0  0  0  0  0
   11.6334   19.4046   24.0789 H   0  0  0  0  0  0  0  0  0  0  0  0
   12.2188   19.1305   22.4389 H   0  0  0  0  0  0  0  0  0  0  0  0
   13.6677   13.4588   23.3115 H   0  0  0  0  0  0  0  0  0  0  0  0
   13.8379   14.4562   21.8806 H   0  0  0  0  0  0  0  0  0  0  0  0
   11.4861   13.8616   21.1998 H   0  0  0  0  0  0  0  0  0  0  0  0
   12.4884   12.4081   21.3648 H   0  0  0  0  0  0  0  0  0  0  0  0
   11.1577   12.9721   23.8082 H   0  0  0  0  0  0  0  0  0  0  0  0
  1  2  2  0  0  0  0
  1  4  1  0  0  0  0
  2  5  1  0  0  0  0
  3  6  2  0  0  0  0
  3 19  1  0  0  0  0
  4  7  2  0  0  0  0
  4  9  1  0  0  0  0
  5 10  1  0  0  0  0
  5 15  2  0  0  0  0
  6 13  1  0  0  0  0
  6 16  1  0  0  0  0
  7 11  1  0  0  0  0
  7 15  1  0  0  0  0
  8 12  1  0  0  0  0
  8 16  2  0  0  0  0
  8 19  1  0  0  0  0
  9 17  1  0  0  0  0
  9 18  2  0  0  0  0
 13 14  1  0  0  0  0
 14 17  1  0  0  0  0
  1 20  1  0  0  0  0
  2 21  1  0  0  0  0
  3 22  1  0  0  0  0
 10 23  1  0  0  0  0
 10 24  1  0  0  0  0
 10 25  1  0  0  0  0
 11 26  1  0  0  0  0
 11 27  1  0  0  0  0
 11 28  1  0  0  0  0
 12 29  1  0  0  0  0
 12 30  1  0  0  0  0
 12 31  1  0  0  0  0
 13 32  1  0  0  0  0
 13 33  1  0  0  0  0
 14 34  1  0  0  0  0
 14 35  1  0  0  0  0
 17 36  1  0  0  0  0
M  END
> <idnumber>
Z642519100

> <heavy_atoms>
19

> <LogS>
-1.675

> <LogP>
1.706

> <rotating_bonds>
4

> <PSA>
54.88

> <hb_acceptors>
3

> <hb_donors>
1

> <Collection>
Legacy

> <link>
https://www.enaminestore.com/catalog/Z642519100

> <ROCS_ShapeQuery>
_x1140_x0812_0A_x1140_0A_x1097_0A_x0365_0A_x1097_0A_x0310_0A

> <ROCS_TanimotoCombo>
0.643 

> <ROCS_ShapeTanimoto>
0.239 

> <ROCS_ColorTanimoto>
0.404 

> <ROCS_RefTversky>
0.218 

> <ROCS_RefColorTversky>
0.510 

> <ROCS_RefTverskyCombo>
0.728 

> <ROCS_FitTversky>
1.690 

> <ROCS_FitColorTversky>
0.660 

> <ROCS_FitTverskyCombo>
2.351 

> <ROCS_ColorScore>
-4.028

> <ROCS_Overlap>
2234.915

> <ROCS_Rank>
188                 

$$$$
untitled-dbase-1139572_178
  -OEChem-02092421083D

 39 40  0     0  0  0  0  0  0999 V2000
    8.2383   12.3110   24.1026 C   0  0  0  0  0  0  0  0  0  0  0  0
    9.1526   11.4187   23.5538 C   0  0  0  0  0  0  0  0  0  0  0  0
    7.2466   11.8435   24.9579 C   0  0  0  0  0  0  0  0  0  0  0  0
    9.0333   10.0797   23.8891 C   0  0  0  0  0  0  0  0  0  0  0  0
    7.2126   10.4854   25.2301 C   0  0  0  0  0  0  0  0  0  0  0  0
   10.1910   11.9186   22.6601 C   0  0  0  0  0  0  0  0  0  0  0  0
   13.7069   16.3189   22.7384 C   0  0  0  0  0  0  0  0  0  0  0  0
   13.3951   13.5318   22.4514 C   0  0  0  0  0  0  0  0  0  0  0  0
   12.2942   14.1391   24.6400 C   0  0  0  0  0  0  0  0  0  0  0  0
   12.6533   12.1967   22.4799 C   0  0  0  0  0  0  0  0  0  0  0  0
   11.5853   12.7871   24.6222 C   0  0  0  0  0  0  0  0  0  0  0  0
   13.6233   14.0766   23.8703 C   0  0  0  0  0  0  0  0  0  0  0  0
   14.3124   17.4913   20.7744 C   0  0  0  0  0  0  0  0  0  0  0  0
   14.2889   15.4498   23.8243 C   0  0  0  0  0  0  0  0  0  0  0  0
    8.0835    9.5882   24.7161 N   0  0  0  0  0  0  0  0  0  0  0  0
   11.4090   12.3149   23.2420 N   0  0  0  0  0  0  0  0  0  0  0  0
    9.9624    9.1641   23.3346 N   0  0  0  0  0  0  0  0  0  0  0  0
    9.9848   11.9835   21.4469 O   0  0  0  0  0  0  0  0  0  0  0  0
   12.5347   16.6581   22.6520 O   0  0  0  0  0  0  0  0  0  0  0  0
   14.7060   16.6608   21.8716 O   0  0  0  0  0  0  0  0  0  0  0  0
    6.1238   12.9632   25.6287 Cl  0  0  0  0  0  0  0  0  0  0  0  0
    6.0429    9.7648   26.2690 Cl  0  0  0  0  0  0  0  0  0  0  0  0
    8.3025   13.3699   23.8620 H   0  0  0  0  0  0  0  0  0  0  0  0
   14.3582   13.4001   21.9441 H   0  0  0  0  0  0  0  0  0  0  0  0
   12.8187   14.2537   21.8586 H   0  0  0  0  0  0  0  0  0  0  0  0
   11.6375   14.9008   24.2005 H   0  0  0  0  0  0  0  0  0  0  0  0
   12.4798   14.4379   25.6785 H   0  0  0  0  0  0  0  0  0  0  0  0
   12.4492   11.8628   21.4575 H   0  0  0  0  0  0  0  0  0  0  0  0
   13.2650   11.4258   22.9632 H   0  0  0  0  0  0  0  0  0  0  0  0
   12.1812   12.0338   25.1513 H   0  0  0  0  0  0  0  0  0  0  0  0
   10.6288   12.8694   25.1443 H   0  0  0  0  0  0  0  0  0  0  0  0
   14.2977   13.3904   24.3999 H   0  0  0  0  0  0  0  0  0  0  0  0
   15.1816   17.7037   20.1471 H   0  0  0  0  0  0  0  0  0  0  0  0
   13.8884   18.4237   21.1557 H   0  0  0  0  0  0  0  0  0  0  0  0
   13.5589   16.9657   20.1831 H   0  0  0  0  0  0  0  0  0  0  0  0
   15.3574   15.3197   23.6366 H   0  0  0  0  0  0  0  0  0  0  0  0
   14.1451   15.9455   24.7873 H   0  0  0  0  0  0  0  0  0  0  0  0
   10.6407    9.5004   22.6866 H   0  0  0  0  0  0  0  0  0  0  0  0
    9.8565    8.1930   23.5319 H   0  0  0  0  0  0  0  0  0  0  0  0
  1  2  1  0  0  0  0
  1  3  2  0  0  0  0
  2  4  2  0  0  0  0
  2  6  1  0  0  0  0
  3  5  1  0  0  0  0
  3 21  1  0  0  0  0
  4 15  1  0  0  0  0
  4 17  1  0  0  0  0
  5 15  2  0  0  0  0
  5 22  1  0  0  0  0
  6 16  1  0  0  0  0
  6 18  2  0  0  0  0
  7 14  1  0  0  0  0
  7 19  2  0  0  0  0
  7 20  1  0  0  0  0
  8 10  1  0  0  0  0
  8 12  1  0  0  0  0
  9 11  1  0  0  0  0
  9 12  1  0  0  0  0
 10 16  1  0  0  0  0
 11 16  1  0  0  0  0
 12 14  1  0  0  0  0
 13 20  1  0  0  0  0
  1 23  1  0  0  0  0
  8 24  1  0  0  0  0
  8 25  1  0  0  0  0
  9 26  1  0  0  0  0
  9 27  1  0  0  0  0
 10 28  1  0  0  0  0
 10 29  1  0  0  0  0
 11 30  1  0  0  0  0
 11 31  1  0  0  0  0
 12 32  1  0  0  0  0
 13 33  1  0  0  0  0
 13 34  1  0  0  0  0
 13 35  1  0  0  0  0
 14 36  1  0  0  0  0
 14 37  1  0  0  0  0
 17 38  1  0  0  0  0
 17 39  1  0  0  0  0
M  END
> <idnumber>
Z6375138518

> <heavy_atoms>
22

> <LogS>
-3.806

> <LogP>
1.289

> <rotating_bonds>
4

> <PSA>
85.52

> <hb_acceptors>
4

> <hb_donors>
1

> <Collection>
Advanced

> <link>
https://www.enaminestore.com/catalog/Z6375138518

> <ROCS_ShapeQuery>
_x1140_x0812_0A_x1140_0A_x1097_0A_x0365_0A_x1097_0A_x0310_0A

> <ROCS_TanimotoCombo>
0.643 

> <ROCS_ShapeTanimoto>
0.255 

> <ROCS_ColorTanimoto>
0.388 

> <ROCS_RefTversky>
0.232 

> <ROCS_RefColorTversky>
0.527 

> <ROCS_RefTverskyCombo>
0.759 

> <ROCS_FitTversky>
1.649 

> <ROCS_FitColorTversky>
0.594 

> <ROCS_FitTverskyCombo>
2.244 

> <ROCS_ColorScore>
-4.193

> <ROCS_Overlap>
2380.972

> <ROCS_Rank>
189                 

$$$$
untitled-dbase-1124468_40
  -OEChem-02092421083D

 26 27  0     0  0  0  0  0  0999 V2000
    8.8686   12.3973   24.4308 C   0  0  0  0  0  0  0  0  0  0  0  0
    7.5906   10.7079   25.5121 C   0  0  0  0  0  0  0  0  0  0  0  0
   11.7763   15.2349   22.7173 C   0  0  0  0  0  0  0  0  0  0  0  0
   13.8424   14.9400   22.0757 C   0  0  0  0  0  0  0  0  0  0  0  0
    9.3492   11.4304   23.5548 C   0  0  0  0  0  0  0  0  0  0  0  0
    7.9722   12.0375   25.4309 C   0  0  0  0  0  0  0  0  0  0  0  0
   12.6802   14.2473   22.2891 C   0  0  0  0  0  0  0  0  0  0  0  0
    8.9062   10.1280   23.7202 C   0  0  0  0  0  0  0  0  0  0  0  0
   10.2872   11.8183   22.5113 C   0  0  0  0  0  0  0  0  0  0  0  0
   12.4323   12.7786   22.1078 C   0  0  0  0  0  0  0  0  0  0  0  0
    7.4385   13.0481   26.3828 C   0  0  0  0  0  0  0  0  0  0  0  0
    8.0361    9.7405   24.6796 N   0  0  0  0  0  0  0  0  0  0  0  0
   12.3352   16.4474   22.7657 N   0  0  0  0  0  0  0  0  0  0  0  0
   10.0798   11.6815   21.2991 O   0  0  0  0  0  0  0  0  0  0  0  0
   13.6492   16.2541   22.3567 O   0  0  0  0  0  0  0  0  0  0  0  0
   11.4294   12.3557   23.0378 O   0  0  0  0  0  0  0  0  0  0  0  0
    7.9122   14.3128   26.1673 F   0  0  0  0  0  0  0  0  0  0  0  0
    6.0770   13.1713   26.3494 F   0  0  0  0  0  0  0  0  0  0  0  0
    7.7449   12.7632   27.6837 F   0  0  0  0  0  0  0  0  0  0  0  0
    9.4258    8.8402   22.7035 Cl  0  0  0  0  0  0  0  0  0  0  0  0
    9.1891   13.4323   24.3358 H   0  0  0  0  0  0  0  0  0  0  0  0
    6.8944   10.3676   26.2726 H   0  0  0  0  0  0  0  0  0  0  0  0
   10.7381   15.1285   22.9956 H   0  0  0  0  0  0  0  0  0  0  0  0
   14.8351   14.6705   21.7466 H   0  0  0  0  0  0  0  0  0  0  0  0
   12.0900   12.5617   21.0902 H   0  0  0  0  0  0  0  0  0  0  0  0
   13.3495   12.2060   22.2834 H   0  0  0  0  0  0  0  0  0  0  0  0
  1  5  1  0  0  0  0
  1  6  2  0  0  0  0
  2  6  1  0  0  0  0
  2 12  2  0  0  0  0
  3  7  1  0  0  0  0
  3 13  2  0  0  0  0
  4  7  2  0  0  0  0
  4 15  1  0  0  0  0
  5  8  2  0  0  0  0
  5  9  1  0  0  0  0
  6 11  1  0  0  0  0
  7 10  1  0  0  0  0
  8 12  1  0  0  0  0
  8 20  1  0  0  0  0
  9 14  2  0  0  0  0
  9 16  1  0  0  0  0
 10 16  1  0  0  0  0
 11 17  1  0  0  0  0
 11 18  1  0  0  0  0
 11 19  1  0  0  0  0
 13 15  1  0  0  0  0
  1 21  1  0  0  0  0
  2 22  1  0  0  0  0
  3 23  1  0  0  0  0
  4 24  1  0  0  0  0
 10 25  1  0  0  0  0
 10 26  1  0  0  0  0
M  END
> <idnumber>
Z5370419145

> <heavy_atoms>
20

> <LogS>
-3.198

> <LogP>
1.792

> <rotating_bonds>
5

> <PSA>
65.22

> <hb_acceptors>
3

> <hb_donors>
0

> <Collection>
Functional

> <link>
https://www.enaminestore.com/catalog/Z5370419145

> <ROCS_ShapeQuery>
_x1140_x0812_0A_x1140_0A_x1097_0A_x0365_0A_x1097_0A_x0310_0A

> <ROCS_TanimotoCombo>
0.643 

> <ROCS_ShapeTanimoto>
0.252 

> <ROCS_ColorTanimoto>
0.391 

> <ROCS_RefTversky>
0.229 

> <ROCS_RefColorTversky>
0.465 

> <ROCS_RefTverskyCombo>
0.694 

> <ROCS_FitTversky>
1.677 

> <ROCS_FitColorTversky>
0.709 

> <ROCS_FitTverskyCombo>
2.387 

> <ROCS_ColorScore>
-3.654

> <ROCS_Overlap>
2347.837

> <ROCS_Rank>
190                 

$$$$
untitled-dbase-36373_8
  -OEChem-02092421083D

 24 24  0     0  0  0  0  0  0999 V2000
    8.5891   12.3284   24.3561 C   0  0  0  0  0  0  0  0  0  0  0  0
    9.2020   11.5003   23.4381 C   0  0  0  0  0  0  0  0  0  0  0  0
    8.8335   10.1716   23.4933 C   0  0  0  0  0  0  0  0  0  0  0  0
    7.4091   10.5860   25.2155 C   0  0  0  0  0  0  0  0  0  0  0  0
   10.1690   12.0226   22.4881 C   0  0  0  0  0  0  0  0  0  0  0  0
   10.9523    9.1277   22.6520 C   0  0  0  0  0  0  0  0  0  0  0  0
   11.8254   13.7077   22.1489 C   0  0  0  0  0  0  0  0  0  0  0  0
    9.4310    9.1805   22.5492 C   0  0  0  0  0  0  0  0  0  0  0  0
    7.6846   11.9033   25.2625 N   0  0  0  0  0  0  0  0  0  0  0  0
    7.9370    9.6781   24.3725 N   0  0  0  0  0  0  0  0  0  0  0  0
    6.4666   10.1051   26.1506 N   0  0  0  0  0  0  0  0  0  0  0  0
   10.3646   11.5557   21.3572 O   0  0  0  0  0  0  0  0  0  0  0  0
   10.8424   13.1013   22.9948 O   0  0  0  0  0  0  0  0  0  0  0  0
    8.8090   13.3909   24.3970 H   0  0  0  0  0  0  0  0  0  0  0  0
   11.3935   10.1131   22.4675 H   0  0  0  0  0  0  0  0  0  0  0  0
   11.3650    8.4287   21.9178 H   0  0  0  0  0  0  0  0  0  0  0  0
   11.2681    8.7993   23.6480 H   0  0  0  0  0  0  0  0  0  0  0  0
   12.2852   14.5511   22.6699 H   0  0  0  0  0  0  0  0  0  0  0  0
   11.3514   14.0506   21.2257 H   0  0  0  0  0  0  0  0  0  0  0  0
   12.5931   12.9682   21.9091 H   0  0  0  0  0  0  0  0  0  0  0  0
    9.0209    8.1764   22.7395 H   0  0  0  0  0  0  0  0  0  0  0  0
    9.1469    9.4209   21.5128 H   0  0  0  0  0  0  0  0  0  0  0  0
    6.0862   10.7357   26.8258 H   0  0  0  0  0  0  0  0  0  0  0  0
    6.2685    9.1262   26.1813 H   0  0  0  0  0  0  0  0  0  0  0  0
  1  2  1  0  0  0  0
  1  9  2  0  0  0  0
  2  3  2  0  0  0  0
  2  5  1  0  0  0  0
  3  8  1  0  0  0  0
  3 10  1  0  0  0  0
  4  9  1  0  0  0  0
  4 10  2  0  0  0  0
  4 11  1  0  0  0  0
  5 12  2  0  0  0  0
  5 13  1  0  0  0  0
  6  8  1  0  0  0  0
  7 13  1  0  0  0  0
  1 14  1  0  0  0  0
  6 15  1  0  0  0  0
  6 16  1  0  0  0  0
  6 17  1  0  0  0  0
  7 18  1  0  0  0  0
  7 19  1  0  0  0  0
  7 20  1  0  0  0  0
  8 21  1  0  0  0  0
  8 22  1  0  0  0  0
 11 23  1  0  0  0  0
 11 24  1  0  0  0  0
M  END
> <idnumber>
Z2044808801

> <heavy_atoms>
13

> <LogS>
-1.433

> <LogP>
0.756

> <rotating_bonds>
3

> <PSA>
78.1

> <hb_acceptors>
4

> <hb_donors>
1

> <Collection>
Legacy

> <link>
https://www.enaminestore.com/catalog/Z2044808801

> <ROCS_ShapeQuery>
_x1140_x0812_0A_x1140_0A_x1097_0A_x0365_0A_x1097_0A_x0310_0A

> <ROCS_TanimotoCombo>
0.643 

> <ROCS_ShapeTanimoto>
0.245 

> <ROCS_ColorTanimoto>
0.398 

> <ROCS_RefTversky>
0.218 

> <ROCS_RefColorTversky>
0.538 

> <ROCS_RefTverskyCombo>
0.755 

> <ROCS_FitTversky>
2.063 

> <ROCS_FitColorTversky>
0.605 

> <ROCS_FitTverskyCombo>
2.668 

> <ROCS_ColorScore>
-4.276

> <ROCS_Overlap>
2229.399

> <ROCS_Rank>
191                 

$$$$
untitled-dbase-1112487_68
  -OEChem-02092421083D

 37 39  0     0  0  0  0  0  0999 V2000
    5.6613   11.2831   26.7647 C   0  0  0  0  0  0  0  0  0  0  0  0
    5.9104   12.6440   26.6679 C   0  0  0  0  0  0  0  0  0  0  0  0
    6.4473   10.3871   26.0422 C   0  0  0  0  0  0  0  0  0  0  0  0
    6.9432   13.0973   25.8490 C   0  0  0  0  0  0  0  0  0  0  0  0
   12.8567   12.7633   21.5376 C   0  0  0  0  0  0  0  0  0  0  0  0
   14.7461   14.1934   21.0663 C   0  0  0  0  0  0  0  0  0  0  0  0
   12.1893   13.8383   22.1243 C   0  0  0  0  0  0  0  0  0  0  0  0
    7.4818   10.8297   25.2212 C   0  0  0  0  0  0  0  0  0  0  0  0
    7.7344   12.2103   25.1228 C   0  0  0  0  0  0  0  0  0  0  0  0
   12.8001   15.0910   22.1820 C   0  0  0  0  0  0  0  0  0  0  0  0
   14.1352   12.9408   21.0086 C   0  0  0  0  0  0  0  0  0  0  0  0
   14.0786   15.2686   21.6530 C   0  0  0  0  0  0  0  0  0  0  0  0
    9.2124   10.4278   23.7564 C   0  0  0  0  0  0  0  0  0  0  0  0
    9.4582   11.7717   23.6606 C   0  0  0  0  0  0  0  0  0  0  0  0
   11.3172   16.9293   21.9041 C   0  0  0  0  0  0  0  0  0  0  0  0
   10.8135   13.6267   22.6870 C   0  0  0  0  0  0  0  0  0  0  0  0
    8.2263    9.9457   24.5341 N   0  0  0  0  0  0  0  0  0  0  0  0
    8.7250   12.6721   24.3397 N   0  0  0  0  0  0  0  0  0  0  0  0
   10.0044    9.5131   23.0274 N   0  0  0  0  0  0  0  0  0  0  0  0
   10.5031   12.2395   22.8330 N   0  0  0  0  0  0  0  0  0  0  0  0
   12.1376   16.1358   22.7576 O   0  0  0  0  0  0  0  0  0  0  0  0
   14.9585   11.6127   20.2872 Cl  0  0  0  0  0  0  0  0  0  0  0  0
   14.8596   16.8061   21.7099 Cl  0  0  0  0  0  0  0  0  0  0  0  0
    4.8598   10.9169   27.3991 H   0  0  0  0  0  0  0  0  0  0  0  0
    5.3056   13.3524   27.2256 H   0  0  0  0  0  0  0  0  0  0  0  0
    6.2412    9.3220   26.1276 H   0  0  0  0  0  0  0  0  0  0  0  0
    7.1277   14.1677   25.7822 H   0  0  0  0  0  0  0  0  0  0  0  0
   12.3771   11.7879   21.4957 H   0  0  0  0  0  0  0  0  0  0  0  0
   15.7434   14.3305   20.6537 H   0  0  0  0  0  0  0  0  0  0  0  0
   10.8474   17.7257   22.4865 H   0  0  0  0  0  0  0  0  0  0  0  0
   10.5515   16.2993   21.4445 H   0  0  0  0  0  0  0  0  0  0  0  0
   11.9400   17.3712   21.1227 H   0  0  0  0  0  0  0  0  0  0  0  0
   10.7223   14.0981   23.6716 H   0  0  0  0  0  0  0  0  0  0  0  0
   10.0513   14.0740   22.0404 H   0  0  0  0  0  0  0  0  0  0  0  0
   10.7079    9.8636   22.4110 H   0  0  0  0  0  0  0  0  0  0  0  0
    9.7846    8.5396   23.0695 H   0  0  0  0  0  0  0  0  0  0  0  0
   11.0319   11.5478   22.3380 H   0  0  0  0  0  0  0  0  0  0  0  0
  1  2  1  0  0  0  0
  1  3  2  0  0  0  0
  2  4  2  0  0  0  0
  3  8  1  0  0  0  0
  4  9  1  0  0  0  0
  5  7  1  0  0  0  0
  5 11  2  0  0  0  0
  6 11  1  0  0  0  0
  6 12  2  0  0  0  0
  7 10  2  0  0  0  0
  7 16  1  0  0  0  0
  8  9  1  0  0  0  0
  8 17  2  0  0  0  0
  9 18  2  0  0  0  0
 10 12  1  0  0  0  0
 10 21  1  0  0  0  0
 11 22  1  0  0  0  0
 12 23  1  0  0  0  0
 13 14  2  0  0  0  0
 13 17  1  0  0  0  0
 13 19  1  0  0  0  0
 14 18  1  0  0  0  0
 14 20  1  0  0  0  0
 15 21  1  0  0  0  0
 16 20  1  0  0  0  0
  1 24  1  0  0  0  0
  2 25  1  0  0  0  0
  3 26  1  0  0  0  0
  4 27  1  0  0  0  0
  5 28  1  0  0  0  0
  6 29  1  0  0  0  0
 15 30  1  0  0  0  0
 15 31  1  0  0  0  0
 15 32  1  0  0  0  0
 16 33  1  0  0  0  0
 16 34  1  0  0  0  0
 19 35  1  0  0  0  0
 19 36  1  0  0  0  0
 20 37  1  0  0  0  0
M  END
> <idnumber>
Z5094084062

> <heavy_atoms>
23

> <LogS>
-4.717

> <LogP>
4.833

> <rotating_bonds>
4

> <PSA>
73.06

> <hb_acceptors>
5

> <hb_donors>
2

> <Collection>
Advanced

> <link>
https://www.enaminestore.com/catalog/Z5094084062

> <ROCS_ShapeQuery>
_x1140_x0812_0A_x1140_0A_x1097_0A_x0365_0A_x1097_0A_x0310_0A

> <ROCS_TanimotoCombo>
0.643 

> <ROCS_ShapeTanimoto>
0.277 

> <ROCS_ColorTanimoto>
0.366 

> <ROCS_RefTversky>
0.249 

> <ROCS_RefColorTversky>
0.566 

> <ROCS_RefTverskyCombo>
0.815 

> <ROCS_FitTversky>
1.676 

> <ROCS_FitColorTversky>
0.508 

> <ROCS_FitTverskyCombo>
2.185 

> <ROCS_ColorScore>
-4.559

> <ROCS_Overlap>
2558.974

> <ROCS_Rank>
192                 

$$$$
untitled-dbase-536468_14
  -OEChem-02092421083D

 38 38  0     1  0  0  0  0  0999 V2000
    7.2254   10.1377   25.1118 C   0  0  0  0  0  0  0  0  0  0  0  0
   10.3580   11.6597   22.4509 C   0  0  0  0  0  0  0  0  0  0  0  0
    8.0017   11.5693   23.2276 C   0  0  0  0  0  0  0  0  0  0  0  0
    9.6968   12.0709   24.8669 C   0  0  0  0  0  0  0  0  0  0  0  0
    7.3594   11.5448   24.6091 C   0  0  2  0  0  0  0  0  0  0  0  0
    8.3282   12.3392   25.4985 C   0  0  2  0  0  0  0  0  0  0  0  0
    7.9966   13.8312   25.4952 C   0  0  0  0  0  0  0  0  0  0  0  0
   11.1039    8.7128   22.5422 C   0  0  0  0  0  0  0  0  0  0  0  0
   12.5960   11.1599   21.6072 C   0  0  0  0  0  0  0  0  0  0  0  0
   12.3135   12.2230   23.8578 C   0  0  0  0  0  0  0  0  0  0  0  0
   11.6453    9.7854   23.4814 C   0  0  0  0  0  0  0  0  0  0  0  0
   11.7308   11.2027   22.8746 C   0  0  0  0  0  0  0  0  0  0  0  0
    9.4238   11.7698   23.4662 N   0  0  0  0  0  0  0  0  0  0  0  0
    6.1704    9.9550   25.9742 N   0  0  0  0  0  0  0  0  0  0  0  0
    7.9894    9.2427   24.7584 O   0  0  0  0  0  0  0  0  0  0  0  0
   10.1237   11.9152   21.2684 O   0  0  0  0  0  0  0  0  0  0  0  0
    7.8807   10.6246   22.6807 H   0  0  0  0  0  0  0  0  0  0  0  0
    7.6094   12.3759   22.5960 H   0  0  0  0  0  0  0  0  0  0  0  0
   10.3485   12.9543   24.8955 H   0  0  0  0  0  0  0  0  0  0  0  0
   10.2199   11.2368   25.3495 H   0  0  0  0  0  0  0  0  0  0  0  0
    6.3685   12.0044   24.5887 H   0  0  0  0  0  0  0  0  0  0  0  0
    8.3092   11.9758   26.5173 H   0  0  0  0  0  0  0  0  0  0  0  0
    8.0108   14.2166   24.4748 H   0  0  0  0  0  0  0  0  0  0  0  0
    8.7293   14.3798   26.0886 H   0  0  0  0  0  0  0  0  0  0  0  0
    7.0053   13.9962   25.9198 H   0  0  0  0  0  0  0  0  0  0  0  0
   10.1079    8.9697   22.1692 H   0  0  0  0  0  0  0  0  0  0  0  0
   11.0508    7.7376   23.0349 H   0  0  0  0  0  0  0  0  0  0  0  0
   11.7674    8.6071   21.6775 H   0  0  0  0  0  0  0  0  0  0  0  0
   13.6169   10.8340   21.8350 H   0  0  0  0  0  0  0  0  0  0  0  0
   12.1788   10.4696   20.8644 H   0  0  0  0  0  0  0  0  0  0  0  0
   12.6556   12.1461   21.1316 H   0  0  0  0  0  0  0  0  0  0  0  0
   13.3139   11.9254   24.1900 H   0  0  0  0  0  0  0  0  0  0  0  0
   11.6792   12.3421   24.7431 H   0  0  0  0  0  0  0  0  0  0  0  0
   12.3956   13.2145   23.3970 H   0  0  0  0  0  0  0  0  0  0  0  0
   12.6413    9.4689   23.8181 H   0  0  0  0  0  0  0  0  0  0  0  0
   11.0092    9.8083   24.3756 H   0  0  0  0  0  0  0  0  0  0  0  0
    5.5825   10.7506   26.1999 H   0  0  0  0  0  0  0  0  0  0  0  0
    5.9561    9.0563   26.3942 H   0  0  0  0  0  0  0  0  0  0  0  0
  1  5  1  6  0  0  0
  1 14  1  0  0  0  0
  1 15  2  0  0  0  0
  2 12  1  0  0  0  0
  2 13  1  0  0  0  0
  2 16  2  0  0  0  0
  3  5  1  0  0  0  0
  3 13  1  0  0  0  0
  4  6  1  0  0  0  0
  4 13  1  0  0  0  0
  5  6  1  0  0  0  0
  6  7  1  1  0  0  0
  8 11  1  0  0  0  0
  9 12  1  0  0  0  0
 10 12  1  0  0  0  0
 11 12  1  0  0  0  0
  3 17  1  0  0  0  0
  3 18  1  0  0  0  0
  4 19  1  0  0  0  0
  4 20  1  0  0  0  0
  5 21  1  0  0  0  0
  6 22  1  0  0  0  0
  7 23  1  0  0  0  0
  7 24  1  0  0  0  0
  7 25  1  0  0  0  0
  8 26  1  0  0  0  0
  8 27  1  0  0  0  0
  8 28  1  0  0  0  0
  9 29  1  0  0  0  0
  9 30  1  0  0  0  0
  9 31  1  0  0  0  0
 10 32  1  0  0  0  0
 10 33  1  0  0  0  0
 10 34  1  0  0  0  0
 11 35  1  0  0  0  0
 11 36  1  0  0  0  0
 14 37  1  0  0  0  0
 14 38  1  0  0  0  0
M  END
> <idnumber>
Z2061493315

> <heavy_atoms>
16

> <LogS>
-2.313

> <LogP>
0.556

> <rotating_bonds>
3

> <PSA>
63.4

> <hb_acceptors>
2

> <hb_donors>
1

> <Collection>
Legacy

> <link>
https://www.enaminestore.com/catalog/Z2061493315

> <ROCS_ShapeQuery>
_x1140_x0812_0A_x1140_0A_x1097_0A_x0365_0A_x1097_0A_x0310_0A

> <ROCS_TanimotoCombo>
0.643 

> <ROCS_ShapeTanimoto>
0.223 

> <ROCS_ColorTanimoto>
0.419 

> <ROCS_RefTversky>
0.204 

> <ROCS_RefColorTversky>
0.524 

> <ROCS_RefTverskyCombo>
0.727 

> <ROCS_FitTversky>
1.763 

> <ROCS_FitColorTversky>
0.678 

> <ROCS_FitTverskyCombo>
2.441 

> <ROCS_ColorScore>
-4.137

> <ROCS_Overlap>
2088.608

> <ROCS_Rank>
193                 

$$$$
untitled-dbase-28766_90
  -OEChem-02092421083D

 24 24  0     0  0  0  0  0  0999 V2000
   11.6464   15.6271   22.6748 C   0  0  0  0  0  0  0  0  0  0  0  0
    7.4715   12.0927   24.7311 C   0  0  0  0  0  0  0  0  0  0  0  0
    8.3171   12.4184   23.6765 C   0  0  0  0  0  0  0  0  0  0  0  0
    7.4790   10.7847   25.1882 C   0  0  0  0  0  0  0  0  0  0  0  0
    9.1328   11.4400   23.1191 C   0  0  0  0  0  0  0  0  0  0  0  0
    9.0661   10.1613   23.6485 C   0  0  0  0  0  0  0  0  0  0  0  0
   10.6943   14.5087   22.6564 C   0  0  0  0  0  0  0  0  0  0  0  0
   10.5575   13.9270   21.2525 C   0  0  0  0  0  0  0  0  0  0  0  0
    9.5385   12.7970   21.2086 C   0  0  0  0  0  0  0  0  0  0  0  0
   12.3981   16.5110   22.6905 N   0  0  0  0  0  0  0  0  0  0  0  0
    8.2572    9.8071   24.6722 N   0  0  0  0  0  0  0  0  0  0  0  0
    9.8967    9.1632   23.0799 N   0  0  0  0  0  0  0  0  0  0  0  0
    9.9665   11.7581   22.0786 O   0  0  0  0  0  0  0  0  0  0  0  0
    6.8266   12.8378   25.1823 H   0  0  0  0  0  0  0  0  0  0  0  0
    8.3362   13.4353   23.2947 H   0  0  0  0  0  0  0  0  0  0  0  0
    6.8380   10.4795   26.0089 H   0  0  0  0  0  0  0  0  0  0  0  0
    9.7173   14.8555   23.0124 H   0  0  0  0  0  0  0  0  0  0  0  0
   11.0323   13.7305   23.3504 H   0  0  0  0  0  0  0  0  0  0  0  0
   11.5273   13.5565   20.8947 H   0  0  0  0  0  0  0  0  0  0  0  0
   10.2639   14.7094   20.5400 H   0  0  0  0  0  0  0  0  0  0  0  0
    9.4505   12.3894   20.1965 H   0  0  0  0  0  0  0  0  0  0  0  0
    8.5549   13.1449   21.5397 H   0  0  0  0  0  0  0  0  0  0  0  0
   10.4621    9.3988   22.2939 H   0  0  0  0  0  0  0  0  0  0  0  0
    9.8255    8.2287   23.4184 H   0  0  0  0  0  0  0  0  0  0  0  0
  1  7  1  0  0  0  0
  1 10  3  0  0  0  0
  2  3  2  0  0  0  0
  2  4  1  0  0  0  0
  3  5  1  0  0  0  0
  4 11  2  0  0  0  0
  5  6  2  0  0  0  0
  5 13  1  0  0  0  0
  6 11  1  0  0  0  0
  6 12  1  0  0  0  0
  7  8  1  0  0  0  0
  8  9  1  0  0  0  0
  9 13  1  0  0  0  0
  2 14  1  0  0  0  0
  3 15  1  0  0  0  0
  4 16  1  0  0  0  0
  7 17  1  0  0  0  0
  7 18  1  0  0  0  0
  8 19  1  0  0  0  0
  8 20  1  0  0  0  0
  9 21  1  0  0  0  0
  9 22  1  0  0  0  0
 12 23  1  0  0  0  0
 12 24  1  0  0  0  0
M  END
> <idnumber>
Z362783848

> <heavy_atoms>
13

> <LogS>
-1.36

> <LogP>
0.759

> <rotating_bonds>
4

> <PSA>
71.93

> <hb_acceptors>
4

> <hb_donors>
1

> <Collection>
Legacy

> <link>
https://www.enaminestore.com/catalog/Z362783848

> <ROCS_ShapeQuery>
_x1140_x0812_0A_x1140_0A_x1097_0A_x0365_0A_x1097_0A_x0310_0A

> <ROCS_TanimotoCombo>
0.643 

> <ROCS_ShapeTanimoto>
0.209 

> <ROCS_ColorTanimoto>
0.434 

> <ROCS_RefTversky>
0.191 

> <ROCS_RefColorTversky>
0.536 

> <ROCS_RefTverskyCombo>
0.727 

> <ROCS_FitTversky>
1.837 

> <ROCS_FitColorTversky>
0.694 

> <ROCS_FitTverskyCombo>
2.531 

> <ROCS_ColorScore>
-4.238

> <ROCS_Overlap>
1954.546

> <ROCS_Rank>
194                 

$$$$
untitled-dbase-1065974_69
  -OEChem-02092421083D

 40 42  0     0  0  0  0  0  0999 V2000
    8.0660   11.9959   24.3944 C   0  0  0  0  0  0  0  0  0  0  0  0
    9.0886   11.4810   23.6358 C   0  0  0  0  0  0  0  0  0  0  0  0
    7.4887   10.8723   25.0159 C   0  0  0  0  0  0  0  0  0  0  0  0
   12.4191   15.1967   22.9698 C   0  0  0  0  0  0  0  0  0  0  0  0
   10.0339   12.1975   22.7719 C   0  0  0  0  0  0  0  0  0  0  0  0
   11.2775   14.2910   22.5116 C   0  0  0  0  0  0  0  0  0  0  0  0
   10.2787    7.8565   23.8604 C   0  0  0  0  0  0  0  0  0  0  0  0
   11.3383    8.9128   23.8272 C   0  0  0  0  0  0  0  0  0  0  0  0
   12.7230   12.6855   24.9136 C   0  0  0  0  0  0  0  0  0  0  0  0
   13.6390   13.1598   23.7889 C   0  0  0  0  0  0  0  0  0  0  0  0
   11.2816   13.1686   24.7593 C   0  0  0  0  0  0  0  0  0  0  0  0
    9.9829    9.1934   23.2219 C   0  0  0  0  0  0  0  0  0  0  0  0
   14.6294   15.4180   24.0526 C   0  0  0  0  0  0  0  0  0  0  0  0
    6.3467   10.8496   25.9454 C   0  0  0  0  0  0  0  0  0  0  0  0
    8.0942    9.7299   24.6809 N   0  0  0  0  0  0  0  0  0  0  0  0
    9.0625   10.1329   23.8407 N   0  0  0  0  0  0  0  0  0  0  0  0
   13.5255   14.5992   23.5700 N   0  0  0  0  0  0  0  0  0  0  0  0
   10.8600   13.1691   23.3534 N   0  0  0  0  0  0  0  0  0  0  0  0
   12.3691   16.3978   22.6839 O   0  0  0  0  0  0  0  0  0  0  0  0
   10.0323   11.8827   21.5825 O   0  0  0  0  0  0  0  0  0  0  0  0
    5.8095   12.0852   26.2128 F   0  0  0  0  0  0  0  0  0  0  0  0
    5.2789   10.1027   25.5112 F   0  0  0  0  0  0  0  0  0  0  0  0
    6.6581   10.3305   27.1769 F   0  0  0  0  0  0  0  0  0  0  0  0
    7.7793   13.0340   24.4853 H   0  0  0  0  0  0  0  0  0  0  0  0
   10.3658   14.9324   22.2680 H   0  0  0  0  0  0  0  0  0  0  0  0
   11.5518   13.8964   21.4788 H   0  0  0  0  0  0  0  0  0  0  0  0
   10.3971    7.0019   23.2052 H   0  0  0  0  0  0  0  0  0  0  0  0
    9.8239    7.6280   24.8165 H   0  0  0  0  0  0  0  0  0  0  0  0
   11.5965    9.3968   24.7613 H   0  0  0  0  0  0  0  0  0  0  0  0
   12.1720    8.7720   23.1500 H   0  0  0  0  0  0  0  0  0  0  0  0
   12.7541   11.5924   24.9989 H   0  0  0  0  0  0  0  0  0  0  0  0
   13.1087   13.0791   25.8624 H   0  0  0  0  0  0  0  0  0  0  0  0
   14.6810   12.9174   24.0071 H   0  0  0  0  0  0  0  0  0  0  0  0
   13.3697   12.6439   22.8642 H   0  0  0  0  0  0  0  0  0  0  0  0
   10.6274   12.5226   25.3445 H   0  0  0  0  0  0  0  0  0  0  0  0
   11.1684   14.1833   25.1453 H   0  0  0  0  0  0  0  0  0  0  0  0
    9.9262    9.2159   22.1393 H   0  0  0  0  0  0  0  0  0  0  0  0
   14.4466   15.7004   25.0999 H   0  0  0  0  0  0  0  0  0  0  0  0
   15.5666   14.8461   23.9854 H   0  0  0  0  0  0  0  0  0  0  0  0
   14.7089   16.3259   23.4366 H   0  0  0  0  0  0  0  0  0  0  0  0
  1  2  2  0  0  0  0
  1  3  1  0  0  0  0
  2  5  1  0  0  0  0
  2 16  1  0  0  0  0
  3 14  1  0  0  0  0
  3 15  2  0  0  0  0
  4  6  1  0  0  0  0
  4 17  1  0  0  0  0
  4 19  2  0  0  0  0
  5 18  1  0  0  0  0
  5 20  2  0  0  0  0
  6 18  1  0  0  0  0
  7  8  1  0  0  0  0
  7 12  1  0  0  0  0
  8 12  1  0  0  0  0
  9 10  1  0  0  0  0
  9 11  1  0  0  0  0
 10 17  1  0  0  0  0
 11 18  1  0  0  0  0
 12 16  1  0  0  0  0
 13 17  1  0  0  0  0
 14 21  1  0  0  0  0
 14 22  1  0  0  0  0
 14 23  1  0  0  0  0
 15 16  1  0  0  0  0
  1 24  1  0  0  0  0
  6 25  1  0  0  0  0
  6 26  1  0  0  0  0
  7 27  1  0  0  0  0
  7 28  1  0  0  0  0
  8 29  1  0  0  0  0
  8 30  1  0  0  0  0
  9 31  1  0  0  0  0
  9 32  1  0  0  0  0
 10 33  1  0  0  0  0
 10 34  1  0  0  0  0
 11 35  1  0  0  0  0
 11 36  1  0  0  0  0
 12 37  1  0  0  0  0
 13 38  1  0  0  0  0
 13 39  1  0  0  0  0
 13 40  1  0  0  0  0
M  END
> <idnumber>
Z4007275868

> <heavy_atoms>
23

> <LogS>
-2.781

> <LogP>
0.809

> <rotating_bonds>
3

> <PSA>
58.44

> <hb_acceptors>
3

> <hb_donors>
0

> <Collection>
Advanced

> <link>
https://www.enaminestore.com/catalog/Z4007275868

> <ROCS_ShapeQuery>
_x1140_x0812_0A_x1140_0A_x1097_0A_x0365_0A_x1097_0A_x0310_0A

> <ROCS_TanimotoCombo>
0.643 

> <ROCS_ShapeTanimoto>
0.288 

> <ROCS_ColorTanimoto>
0.354 

> <ROCS_RefTversky>
0.257 

> <ROCS_RefColorTversky>
0.433 

> <ROCS_RefTverskyCombo>
0.690 

> <ROCS_FitTversky>
1.723 

> <ROCS_FitColorTversky>
0.660 

> <ROCS_FitTverskyCombo>
2.384 

> <ROCS_ColorScore>
-3.401

> <ROCS_Overlap>
2641.590

> <ROCS_Rank>
195                 

$$$$
untitled-dbase-887271_14
  -OEChem-02092421083D

 33 34  0     1  0  0  0  0  0999 V2000
   11.0455    9.0275   22.5356 C   0  0  0  0  0  0  0  0  0  0  0  0
    9.7859    9.3147   22.8811 C   0  0  0  0  0  0  0  0  0  0  0  0
   10.7310   12.0767   21.4805 C   0  0  0  0  0  0  0  0  0  0  0  0
    7.4724   12.0195   25.2110 C   0  0  0  0  0  0  0  0  0  0  0  0
    8.6727   12.6386   24.5033 C   0  0  0  0  0  0  0  0  0  0  0  0
   12.6318   13.8415   21.6015 C   0  0  0  0  0  0  0  0  0  0  0  0
   12.9094   12.2896   20.1460 C   0  0  0  0  0  0  0  0  0  0  0  0
    7.7950   10.6050   25.6685 C   0  0  0  0  0  0  0  0  0  0  0  0
    9.4133   10.2905   23.9521 C   0  0  1  0  0  0  0  0  0  0  0  0
    9.1848   11.7083   23.3952 C   0  0  2  0  0  0  0  0  0  0  0  0
   13.6118   13.6230   20.4394 C   0  0  0  0  0  0  0  0  0  0  0  0
   11.9199   12.6730   21.1304 N   0  0  0  0  0  0  0  0  0  0  0  0
   10.3917   12.2511   22.8159 N   0  0  0  0  0  0  0  0  0  0  0  0
   10.0404   11.4492   20.6753 O   0  0  0  0  0  0  0  0  0  0  0  0
    8.2117    9.8036   24.5645 O   0  0  0  0  0  0  0  0  0  0  0  0
   13.5503   14.5422   19.4477 F   0  0  0  0  0  0  0  0  0  0  0  0
   11.2492    8.3093   21.7490 H   0  0  0  0  0  0  0  0  0  0  0  0
   11.8902    9.4989   23.0261 H   0  0  0  0  0  0  0  0  0  0  0  0
    8.9733    8.8160   22.3602 H   0  0  0  0  0  0  0  0  0  0  0  0
    7.1730   12.6373   26.0639 H   0  0  0  0  0  0  0  0  0  0  0  0
    6.6292   11.9891   24.5101 H   0  0  0  0  0  0  0  0  0  0  0  0
    8.3910   13.6119   24.0844 H   0  0  0  0  0  0  0  0  0  0  0  0
    9.4679   12.8190   25.2382 H   0  0  0  0  0  0  0  0  0  0  0  0
   13.0615   13.7301   22.6014 H   0  0  0  0  0  0  0  0  0  0  0  0
   12.0322   14.7556   21.5437 H   0  0  0  0  0  0  0  0  0  0  0  0
   12.4913   12.1918   19.1389 H   0  0  0  0  0  0  0  0  0  0  0  0
   13.4857   11.3977   20.4091 H   0  0  0  0  0  0  0  0  0  0  0  0
    8.5748   10.6009   26.4391 H   0  0  0  0  0  0  0  0  0  0  0  0
    6.9023   10.1404   26.0990 H   0  0  0  0  0  0  0  0  0  0  0  0
   10.2104   10.2933   24.7032 H   0  0  0  0  0  0  0  0  0  0  0  0
    8.4451   11.6763   22.5940 H   0  0  0  0  0  0  0  0  0  0  0  0
   14.6417   13.4843   20.7853 H   0  0  0  0  0  0  0  0  0  0  0  0
   11.0280   12.7777   23.4176 H   0  0  0  0  0  0  0  0  0  0  0  0
  1  2  2  0  0  0  0
  2  9  1  1  0  0  0
  3 12  1  0  0  0  0
  3 13  1  0  0  0  0
  3 14  2  0  0  0  0
  4  5  1  0  0  0  0
  4  8  1  0  0  0  0
  5 10  1  0  0  0  0
  6 11  1  0  0  0  0
  6 12  1  0  0  0  0
  7 11  1  0  0  0  0
  7 12  1  0  0  0  0
  8 15  1  0  0  0  0
  9 10  1  0  0  0  0
  9 15  1  0  0  0  0
 10 13  1  6  0  0  0
 11 16  1  0  0  0  0
  1 17  1  0  0  0  0
  1 18  1  0  0  0  0
  2 19  1  0  0  0  0
  4 20  1  0  0  0  0
  4 21  1  0  0  0  0
  5 22  1  0  0  0  0
  5 23  1  0  0  0  0
  6 24  1  0  0  0  0
  6 25  1  0  0  0  0
  7 26  1  0  0  0  0
  7 27  1  0  0  0  0
  8 28  1  0  0  0  0
  8 29  1  0  0  0  0
  9 30  1  0  0  0  0
 10 31  1  0  0  0  0
 11 32  1  0  0  0  0
 13 33  1  0  0  0  0
M  END
> <idnumber>
Z2309904138

> <heavy_atoms>
16

> <LogS>
-2.248

> <LogP>
1.398

> <rotating_bonds>
2

> <PSA>
41.57

> <hb_acceptors>
2

> <hb_donors>
1

> <Collection>
HTS

> <link>
https://www.enaminestore.com/catalog/Z2309904138

> <ROCS_ShapeQuery>
_x1140_x0812_0A_x1140_0A_x1097_0A_x0365_0A_x1097_0A_x0310_0A

> <ROCS_TanimotoCombo>
0.642 

> <ROCS_ShapeTanimoto>
0.209 

> <ROCS_ColorTanimoto>
0.434 

> <ROCS_RefTversky>
0.193 

> <ROCS_RefColorTversky>
0.536 

> <ROCS_RefTverskyCombo>
0.729 

> <ROCS_FitTversky>
1.653 

> <ROCS_FitColorTversky>
0.694 

> <ROCS_FitTverskyCombo>
2.347 

> <ROCS_ColorScore>
-4.235

> <ROCS_Overlap>
1977.593

> <ROCS_Rank>
196                 

$$$$
untitled-dbase-1073247_59
  -OEChem-02092421083D

 34 36  0     0  0  0  0  0  0999 V2000
    8.8800   12.2960   25.1698 C   0  0  0  0  0  0  0  0  0  0  0  0
   12.8616   15.3456   22.3616 C   0  0  0  0  0  0  0  0  0  0  0  0
    8.8693   10.4783   23.6036 C   0  0  0  0  0  0  0  0  0  0  0  0
   10.7053   15.1420   21.9821 C   0  0  0  0  0  0  0  0  0  0  0  0
    7.8072   11.6539   25.8007 C   0  0  0  0  0  0  0  0  0  0  0  0
   11.8733   14.4194   21.9780 C   0  0  0  0  0  0  0  0  0  0  0  0
    9.4174   11.6799   24.0396 C   0  0  0  0  0  0  0  0  0  0  0  0
    6.9688   11.8653   26.9133 C   0  0  0  0  0  0  0  0  0  0  0  0
    7.3576   10.4587   25.2614 C   0  0  0  0  0  0  0  0  0  0  0  0
   10.7949   12.1782   21.9946 C   0  0  0  0  0  0  0  0  0  0  0  0
    6.9965   12.9930   27.8615 C   0  0  0  0  0  0  0  0  0  0  0  0
   10.1580   17.5319   22.4997 C   0  0  0  0  0  0  0  0  0  0  0  0
   12.0545   12.9574   21.6351 C   0  0  0  0  0  0  0  0  0  0  0  0
    7.8341    9.8196   24.1788 N   0  0  0  0  0  0  0  0  0  0  0  0
   12.3648   16.5638   22.5924 N   0  0  0  0  0  0  0  0  0  0  0  0
    6.0640   10.8938   27.0723 N   0  0  0  0  0  0  0  0  0  0  0  0
    6.3247   10.0538   26.0542 N   0  0  0  0  0  0  0  0  0  0  0  0
   11.0516   16.4080   22.3531 N   0  0  0  0  0  0  0  0  0  0  0  0
   10.4861   12.2606   23.3590 N   0  0  0  0  0  0  0  0  0  0  0  0
   10.1841   11.5492   21.1350 O   0  0  0  0  0  0  0  0  0  0  0  0
   13.1171   12.4156   22.3061 F   0  0  0  0  0  0  0  0  0  0  0  0
   12.3656   12.7779   20.3149 F   0  0  0  0  0  0  0  0  0  0  0  0
    9.2768   13.2335   25.5470 H   0  0  0  0  0  0  0  0  0  0  0  0
   13.9238   15.1863   22.4823 H   0  0  0  0  0  0  0  0  0  0  0  0
    9.2715    9.9793   22.7246 H   0  0  0  0  0  0  0  0  0  0  0  0
    9.6829   14.8704   21.7570 H   0  0  0  0  0  0  0  0  0  0  0  0
    6.3442   13.8158   27.5232 H   0  0  0  0  0  0  0  0  0  0  0  0
    6.6617   12.6962   28.8711 H   0  0  0  0  0  0  0  0  0  0  0  0
    8.0133   13.4048   27.9889 H   0  0  0  0  0  0  0  0  0  0  0  0
    9.7975   17.5437   23.5317 H   0  0  0  0  0  0  0  0  0  0  0  0
   10.6956   18.4566   22.2720 H   0  0  0  0  0  0  0  0  0  0  0  0
    9.3224   17.4225   21.8028 H   0  0  0  0  0  0  0  0  0  0  0  0
    5.7572    9.2207   25.9608 H   0  0  0  0  0  0  0  0  0  0  0  0
   11.1354   12.8233   23.9212 H   0  0  0  0  0  0  0  0  0  0  0  0
  1  5  1  0  0  0  0
  1  7  2  0  0  0  0
  2  6  1  0  0  0  0
  2 15  2  0  0  0  0
  3  7  1  0  0  0  0
  3 14  2  0  0  0  0
  4  6  2  0  0  0  0
  4 18  1  0  0  0  0
  5  8  1  0  0  0  0
  5  9  2  0  0  0  0
  6 13  1  0  0  0  0
  7 19  1  0  0  0  0
  8 11  1  0  0  0  0
  8 16  2  0  0  0  0
  9 14  1  0  0  0  0
  9 17  1  0  0  0  0
 10 13  1  0  0  0  0
 10 19  1  0  0  0  0
 10 20  2  0  0  0  0
 12 18  1  0  0  0  0
 13 21  1  0  0  0  0
 13 22  1  0  0  0  0
 15 18  1  0  0  0  0
 16 17  1  0  0  0  0
  1 23  1  0  0  0  0
  2 24  1  0  0  0  0
  3 25  1  0  0  0  0
  4 26  1  0  0  0  0
 11 27  1  0  0  0  0
 11 28  1  0  0  0  0
 11 29  1  0  0  0  0
 12 30  1  0  0  0  0
 12 31  1  0  0  0  0
 12 32  1  0  0  0  0
 17 33  1  0  0  0  0
 19 34  1  0  0  0  0
M  END
> <idnumber>
Z4136001244

> <heavy_atoms>
22

> <LogS>
-2.535

> <LogP>
1.546

> <rotating_bonds>
3

> <PSA>
88.49

> <hb_acceptors>
4

> <hb_donors>
2

> <Collection>
HTS

> <link>
https://www.enaminestore.com/catalog/Z4136001244

> <ROCS_ShapeQuery>
_x1140_x0812_0A_x1140_0A_x1097_0A_x0365_0A_x1097_0A_x0310_0A

> <ROCS_TanimotoCombo>
0.642 

> <ROCS_ShapeTanimoto>
0.245 

> <ROCS_ColorTanimoto>
0.398 

> <ROCS_RefTversky>
0.226 

> <ROCS_RefColorTversky>
0.602 

> <ROCS_RefTverskyCombo>
0.827 

> <ROCS_FitTversky>
1.522 

> <ROCS_FitColorTversky>
0.540 

> <ROCS_FitTverskyCombo>
2.062 

> <ROCS_ColorScore>
-4.844

> <ROCS_Overlap>
2318.140

> <ROCS_Rank>
197                 

$$$$
untitled-dbase-553742_122
  -OEChem-02092421083D

 38 40  0     0  0  0  0  0  0999 V2000
    8.5502    6.0014   22.5492 C   0  0  0  0  0  0  0  0  0  0  0  0
    9.6201    5.3888   21.8968 C   0  0  0  0  0  0  0  0  0  0  0  0
    7.3112   11.8848   25.1608 C   0  0  0  0  0  0  0  0  0  0  0  0
    8.2513   12.4251   24.2905 C   0  0  0  0  0  0  0  0  0  0  0  0
    8.6608    7.3232   22.9809 C   0  0  0  0  0  0  0  0  0  0  0  0
   10.8008    6.0980   21.6761 C   0  0  0  0  0  0  0  0  0  0  0  0
    7.3014   10.5100   25.3330 C   0  0  0  0  0  0  0  0  0  0  0  0
    9.1404   11.5860   23.6282 C   0  0  0  0  0  0  0  0  0  0  0  0
    9.8415    8.0323   22.7603 C   0  0  0  0  0  0  0  0  0  0  0  0
   10.9115    7.4198   22.1079 C   0  0  0  0  0  0  0  0  0  0  0  0
    9.0490   10.2246   23.8691 C   0  0  0  0  0  0  0  0  0  0  0  0
   11.9845   15.4360   23.2533 C   0  0  0  0  0  0  0  0  0  0  0  0
   10.1282   12.1670   22.7053 C   0  0  0  0  0  0  0  0  0  0  0  0
   11.6347   14.1906   22.4508 C   0  0  0  0  0  0  0  0  0  0  0  0
   11.2672   14.2463   25.3234 C   0  0  0  0  0  0  0  0  0  0  0  0
   11.5195   12.9506   24.5864 C   0  0  0  0  0  0  0  0  0  0  0  0
    8.1491    9.6629   24.7073 N   0  0  0  0  0  0  0  0  0  0  0  0
   11.8610   15.3638   24.6219 N   0  0  0  0  0  0  0  0  0  0  0  0
   11.0464   13.0913   23.2153 N   0  0  0  0  0  0  0  0  0  0  0  0
    9.9504    9.3621   23.1957 N   0  0  0  0  0  0  0  0  0  0  0  0
   12.4118   16.4422   22.6832 O   0  0  0  0  0  0  0  0  0  0  0  0
   10.0670   11.7929   21.5348 O   0  0  0  0  0  0  0  0  0  0  0  0
   12.0508    8.0921   21.8909 F   0  0  0  0  0  0  0  0  0  0  0  0
    7.6311    5.4489   22.7209 H   0  0  0  0  0  0  0  0  0  0  0  0
    9.5333    4.3597   21.5607 H   0  0  0  0  0  0  0  0  0  0  0  0
    6.6072   12.5198   25.6864 H   0  0  0  0  0  0  0  0  0  0  0  0
    8.2812   13.5005   24.1362 H   0  0  0  0  0  0  0  0  0  0  0  0
    7.8205    7.7911   23.4877 H   0  0  0  0  0  0  0  0  0  0  0  0
   11.6338    5.6213   21.1683 H   0  0  0  0  0  0  0  0  0  0  0  0
    6.5876   10.0392   26.0009 H   0  0  0  0  0  0  0  0  0  0  0  0
   10.9015   14.4779   21.6885 H   0  0  0  0  0  0  0  0  0  0  0  0
   12.5456   13.8545   21.9464 H   0  0  0  0  0  0  0  0  0  0  0  0
   10.1941   14.4413   25.4129 H   0  0  0  0  0  0  0  0  0  0  0  0
   11.6974   14.2221   26.3306 H   0  0  0  0  0  0  0  0  0  0  0  0
   12.5861   12.7054   24.6076 H   0  0  0  0  0  0  0  0  0  0  0  0
   10.9780   12.1157   25.0469 H   0  0  0  0  0  0  0  0  0  0  0  0
   12.2078   16.1427   25.1734 H   0  0  0  0  0  0  0  0  0  0  0  0
   10.8425    9.7965   22.9924 H   0  0  0  0  0  0  0  0  0  0  0  0
  1  2  1  0  0  0  0
  1  5  2  0  0  0  0
  2  6  2  0  0  0  0
  3  4  2  0  0  0  0
  3  7  1  0  0  0  0
  4  8  1  0  0  0  0
  5  9  1  0  0  0  0
  6 10  1  0  0  0  0
  7 17  2  0  0  0  0
  8 11  2  0  0  0  0
  8 13  1  0  0  0  0
  9 10  2  0  0  0  0
  9 20  1  0  0  0  0
 10 23  1  0  0  0  0
 11 17  1  0  0  0  0
 11 20  1  0  0  0  0
 12 14  1  0  0  0  0
 12 18  1  0  0  0  0
 12 21  2  0  0  0  0
 13 19  1  0  0  0  0
 13 22  2  0  0  0  0
 14 19  1  0  0  0  0
 15 16  1  0  0  0  0
 15 18  1  0  0  0  0
 16 19  1  0  0  0  0
  1 24  1  0  0  0  0
  2 25  1  0  0  0  0
  3 26  1  0  0  0  0
  4 27  1  0  0  0  0
  5 28  1  0  0  0  0
  6 29  1  0  0  0  0
  7 30  1  0  0  0  0
 14 31  1  0  0  0  0
 14 32  1  0  0  0  0
 15 33  1  0  0  0  0
 15 34  1  0  0  0  0
 16 35  1  0  0  0  0
 16 36  1  0  0  0  0
 18 37  1  0  0  0  0
 20 38  1  0  0  0  0
M  END
> <idnumber>
Z282311764

> <heavy_atoms>
23

> <LogS>
-3.343

> <LogP>
2.175

> <rotating_bonds>
3

> <PSA>
74.33

> <hb_acceptors>
4

> <hb_donors>
2

> <Collection>
HTS

> <link>
https://www.enaminestore.com/catalog/Z282311764

> <ROCS_ShapeQuery>
_x1140_x0812_0A_x1140_0A_x1097_0A_x0365_0A_x1097_0A_x0310_0A

> <ROCS_TanimotoCombo>
0.642 

> <ROCS_ShapeTanimoto>
0.249 

> <ROCS_ColorTanimoto>
0.393 

> <ROCS_RefTversky>
0.229 

> <ROCS_RefColorTversky>
0.565 

> <ROCS_RefTverskyCombo>
0.794 

> <ROCS_FitTversky>
1.531 

> <ROCS_FitColorTversky>
0.565 

> <ROCS_FitTverskyCombo>
2.096 

> <ROCS_ColorScore>
-4.516

> <ROCS_Overlap>
2354.743

> <ROCS_Rank>
198                 

$$$$
untitled-dbase-700800_31
  -OEChem-02092421083D

 41 43  0     0  0  0  0  0  0999 V2000
   11.4608   15.8600   25.2610 C   0  0  0  0  0  0  0  0  0  0  0  0
   11.0350   15.1832   26.4039 C   0  0  0  0  0  0  0  0  0  0  0  0
   11.1405   15.3644   23.9970 C   0  0  0  0  0  0  0  0  0  0  0  0
   10.2890   14.0108   26.2829 C   0  0  0  0  0  0  0  0  0  0  0  0
   10.3945   14.1920   23.8760 C   0  0  0  0  0  0  0  0  0  0  0  0
    6.0098   10.7229   25.7048 C   0  0  0  0  0  0  0  0  0  0  0  0
    5.3424   11.7389   26.3953 C   0  0  0  0  0  0  0  0  0  0  0  0
    7.2449   13.1789   26.1037 C   0  0  0  0  0  0  0  0  0  0  0  0
    7.9093   12.1522   25.4104 C   0  0  0  0  0  0  0  0  0  0  0  0
    9.9688   13.5152   25.0190 C   0  0  0  0  0  0  0  0  0  0  0  0
    7.2957   10.9062   25.2022 C   0  0  0  0  0  0  0  0  0  0  0  0
    5.9603   12.9684   26.5950 C   0  0  0  0  0  0  0  0  0  0  0  0
    9.1937   12.2976   24.8937 C   0  0  0  0  0  0  0  0  0  0  0  0
    9.1645   10.1825   24.0887 C   0  0  0  0  0  0  0  0  0  0  0  0
   11.2694    8.0330   21.8371 C   0  0  0  0  0  0  0  0  0  0  0  0
   11.9630   10.1754   22.9328 C   0  0  0  0  0  0  0  0  0  0  0  0
   10.1103   10.1627   21.2051 C   0  0  0  0  0  0  0  0  0  0  0  0
   10.7767    9.3902   22.3570 C   0  0  0  0  0  0  0  0  0  0  0  0
    7.9218    9.9175   24.5403 N   0  0  0  0  0  0  0  0  0  0  0  0
    9.8494   11.3292   24.2268 N   0  0  0  0  0  0  0  0  0  0  0  0
    9.8014    9.1628   23.4105 N   0  0  0  0  0  0  0  0  0  0  0  0
   10.0592   11.5595   21.4726 O   0  0  0  0  0  0  0  0  0  0  0  0
    5.1406   14.2195   27.4442 Cl  0  0  0  0  0  0  0  0  0  0  0  0
   12.0402   16.7737   25.3554 H   0  0  0  0  0  0  0  0  0  0  0  0
   11.2828   15.5699   27.3881 H   0  0  0  0  0  0  0  0  0  0  0  0
   11.4706   15.8916   23.1067 H   0  0  0  0  0  0  0  0  0  0  0  0
    9.9642   13.4949   27.1835 H   0  0  0  0  0  0  0  0  0  0  0  0
   10.1520   13.8181   22.8842 H   0  0  0  0  0  0  0  0  0  0  0  0
    5.5041    9.7698   25.5617 H   0  0  0  0  0  0  0  0  0  0  0  0
    4.3393   11.5518   26.7702 H   0  0  0  0  0  0  0  0  0  0  0  0
    7.7202   14.1439   26.2650 H   0  0  0  0  0  0  0  0  0  0  0  0
   10.4460    7.4441   21.4177 H   0  0  0  0  0  0  0  0  0  0  0  0
   12.0263    8.1601   21.0543 H   0  0  0  0  0  0  0  0  0  0  0  0
   11.7295    7.4447   22.6397 H   0  0  0  0  0  0  0  0  0  0  0  0
   11.6525   11.1540   23.3160 H   0  0  0  0  0  0  0  0  0  0  0  0
   12.7358   10.3394   22.1738 H   0  0  0  0  0  0  0  0  0  0  0  0
   12.4220    9.6364   23.7699 H   0  0  0  0  0  0  0  0  0  0  0  0
   10.6703   10.0303   20.2730 H   0  0  0  0  0  0  0  0  0  0  0  0
    9.0854    9.8153   21.0308 H   0  0  0  0  0  0  0  0  0  0  0  0
    9.5855    8.2062   23.6494 H   0  0  0  0  0  0  0  0  0  0  0  0
    9.6295   11.9739   20.7076 H   0  0  0  0  0  0  0  0  0  0  0  0
  1  2  1  0  0  0  0
  1  3  2  0  0  0  0
  2  4  2  0  0  0  0
  3  5  1  0  0  0  0
  4 10  1  0  0  0  0
  5 10  2  0  0  0  0
  6  7  2  0  0  0  0
  6 11  1  0  0  0  0
  7 12  1  0  0  0  0
  8  9  1  0  0  0  0
  8 12  2  0  0  0  0
  9 11  2  0  0  0  0
  9 13  1  0  0  0  0
 10 13  1  0  0  0  0
 11 19  1  0  0  0  0
 12 23  1  0  0  0  0
 13 20  2  0  0  0  0
 14 19  2  0  0  0  0
 14 20  1  0  0  0  0
 14 21  1  0  0  0  0
 15 18  1  0  0  0  0
 16 18  1  0  0  0  0
 17 18  1  0  0  0  0
 17 22  1  0  0  0  0
 18 21  1  0  0  0  0
  1 24  1  0  0  0  0
  2 25  1  0  0  0  0
  3 26  1  0  0  0  0
  4 27  1  0  0  0  0
  5 28  1  0  0  0  0
  6 29  1  0  0  0  0
  7 30  1  0  0  0  0
  8 31  1  0  0  0  0
 15 32  1  0  0  0  0
 15 33  1  0  0  0  0
 15 34  1  0  0  0  0
 16 35  1  0  0  0  0
 16 36  1  0  0  0  0
 16 37  1  0  0  0  0
 17 38  1  0  0  0  0
 17 39  1  0  0  0  0
 21 40  1  0  0  0  0
 22 41  1  0  0  0  0
M  END
> <idnumber>
Z314599416

> <heavy_atoms>
23

> <LogS>
-5.8

> <LogP>
4.675

> <rotating_bonds>
4

> <PSA>
58.04

> <hb_acceptors>
4

> <hb_donors>
2

> <Collection>
HTS

> <link>
https://www.enaminestore.com/catalog/Z314599416

> <ROCS_ShapeQuery>
_x1140_x0812_0A_x1140_0A_x1097_0A_x0365_0A_x1097_0A_x0310_0A

> <ROCS_TanimotoCombo>
0.642 

> <ROCS_ShapeTanimoto>
0.261 

> <ROCS_ColorTanimoto>
0.381 

> <ROCS_RefTversky>
0.238 

> <ROCS_RefColorTversky>
0.583 

> <ROCS_RefTverskyCombo>
0.821 

> <ROCS_FitTversky>
1.596 

> <ROCS_FitColorTversky>
0.524 

> <ROCS_FitTverskyCombo>
2.120 

> <ROCS_ColorScore>
-4.693

> <ROCS_Overlap>
2445.740

> <ROCS_Rank>
199                 

$$$$
untitled-dbase-163543_49
  -OEChem-02092421083D

 28 28  0     0  0  0  0  0  0999 V2000
   11.2677   15.6825   22.5140 C   0  0  0  0  0  0  0  0  0  0  0  0
    8.9410   11.5588   23.4330 C   0  0  0  0  0  0  0  0  0  0  0  0
    9.3438   10.3432   24.0124 C   0  0  0  0  0  0  0  0  0  0  0  0
    7.6279   11.6773   23.8044 C   0  0  0  0  0  0  0  0  0  0  0  0
    9.7044   12.5139   22.6143 C   0  0  0  0  0  0  0  0  0  0  0  0
    6.5850   12.6831   23.5613 C   0  0  0  0  0  0  0  0  0  0  0  0
   10.9300    9.0078   22.6027 C   0  0  0  0  0  0  0  0  0  0  0  0
    9.8509   14.0718   24.5183 C   0  0  0  0  0  0  0  0  0  0  0  0
   10.0027   15.0045   22.2367 C   0  0  0  0  0  0  0  0  0  0  0  0
   10.6663    9.6992   23.9462 C   0  0  0  0  0  0  0  0  0  0  0  0
   12.2713   16.2230   22.7314 N   0  0  0  0  0  0  0  0  0  0  0  0
    8.3560    9.7529   24.6912 N   0  0  0  0  0  0  0  0  0  0  0  0
    9.8483   13.8237   23.0835 N   0  0  0  0  0  0  0  0  0  0  0  0
   10.1775   12.0760   21.5662 O   0  0  0  0  0  0  0  0  0  0  0  0
    7.2671   10.6057   24.5557 O   0  0  0  0  0  0  0  0  0  0  0  0
    6.0122   12.4577   22.6438 H   0  0  0  0  0  0  0  0  0  0  0  0
    5.8604   12.7477   24.3943 H   0  0  0  0  0  0  0  0  0  0  0  0
    7.0012   13.7017   23.4478 H   0  0  0  0  0  0  0  0  0  0  0  0
   10.1469    8.2734   22.3852 H   0  0  0  0  0  0  0  0  0  0  0  0
   11.8925    8.4867   22.6041 H   0  0  0  0  0  0  0  0  0  0  0  0
   10.9410    9.7387   21.7870 H   0  0  0  0  0  0  0  0  0  0  0  0
   10.8814   14.0144   24.8990 H   0  0  0  0  0  0  0  0  0  0  0  0
    9.4417   15.0732   24.7178 H   0  0  0  0  0  0  0  0  0  0  0  0
    9.2313   13.3154   25.0222 H   0  0  0  0  0  0  0  0  0  0  0  0
    9.1516   15.6637   22.4299 H   0  0  0  0  0  0  0  0  0  0  0  0
    9.9532   14.6735   21.1955 H   0  0  0  0  0  0  0  0  0  0  0  0
   11.4801   10.4307   24.1244 H   0  0  0  0  0  0  0  0  0  0  0  0
   10.7895    8.9479   24.7521 H   0  0  0  0  0  0  0  0  0  0  0  0
  1  9  1  0  0  0  0
  1 11  3  0  0  0  0
  2  3  1  0  0  0  0
  2  4  2  0  0  0  0
  2  5  1  0  0  0  0
  3 10  1  0  0  0  0
  3 12  2  0  0  0  0
  4  6  1  0  0  0  0
  4 15  1  0  0  0  0
  5 13  1  0  0  0  0
  5 14  2  0  0  0  0
  7 10  1  0  0  0  0
  8 13  1  0  0  0  0
  9 13  1  0  0  0  0
 12 15  1  0  0  0  0
  6 16  1  0  0  0  0
  6 17  1  0  0  0  0
  6 18  1  0  0  0  0
  7 19  1  0  0  0  0
  7 20  1  0  0  0  0
  7 21  1  0  0  0  0
  8 22  1  0  0  0  0
  8 23  1  0  0  0  0
  8 24  1  0  0  0  0
  9 25  1  0  0  0  0
  9 26  1  0  0  0  0
 10 27  1  0  0  0  0
 10 28  1  0  0  0  0
M  END
> <idnumber>
Z1000015046

> <heavy_atoms>
15

> <LogS>
-1.249

> <LogP>
-0.137

> <rotating_bonds>
3

> <PSA>
70.13

> <hb_acceptors>
3

> <hb_donors>
0

> <Collection>
Functional

> <link>
https://www.enaminestore.com/catalog/Z1000015046

> <ROCS_ShapeQuery>
_x1140_x0812_0A_x1140_0A_x1097_0A_x0365_0A_x1097_0A_x0310_0A

> <ROCS_TanimotoCombo>
0.642 

> <ROCS_ShapeTanimoto>
0.212 

> <ROCS_ColorTanimoto>
0.430 

> <ROCS_RefTversky>
0.195 

> <ROCS_RefColorTversky>
0.498 

> <ROCS_RefTverskyCombo>
0.693 

> <ROCS_FitTversky>
1.729 

> <ROCS_FitColorTversky>
0.759 

> <ROCS_FitTverskyCombo>
2.488 

> <ROCS_ColorScore>
-3.909

> <ROCS_Overlap>
1995.848

> <ROCS_Rank>
200                 

$$$$
untitled-dbase-413749_161
  -OEChem-02092421083D

 40 41  0     0  0  0  0  0  0999 V2000
    8.7757   12.5537   24.8479 C   0  0  0  0  0  0  0  0  0  0  0  0
    7.9863   11.8658   25.7628 C   0  0  0  0  0  0  0  0  0  0  0  0
    8.9807   10.5439   23.5927 C   0  0  0  0  0  0  0  0  0  0  0  0
    9.2863   11.8874   23.7395 C   0  0  0  0  0  0  0  0  0  0  0  0
    7.7388   10.5234   25.5254 C   0  0  0  0  0  0  0  0  0  0  0  0
   12.7044   16.4272   21.6166 C   0  0  0  0  0  0  0  0  0  0  0  0
   10.6424   12.0406   21.6149 C   0  0  0  0  0  0  0  0  0  0  0  0
   11.9110   14.0615   19.1849 C   0  0  0  0  0  0  0  0  0  0  0  0
   12.9975   15.0958   19.4747 C   0  0  0  0  0  0  0  0  0  0  0  0
   12.2045   12.6932   19.8026 C   0  0  0  0  0  0  0  0  0  0  0  0
   13.8300   14.2344   21.6463 C   0  0  0  0  0  0  0  0  0  0  0  0
   12.8115   13.2396   22.2017 C   0  0  0  0  0  0  0  0  0  0  0  0
   12.5769   17.7188   20.8487 C   0  0  0  0  0  0  0  0  0  0  0  0
    6.8958    9.7540   26.4868 C   0  0  0  0  0  0  0  0  0  0  0  0
    8.2174    9.8422   24.4602 N   0  0  0  0  0  0  0  0  0  0  0  0
   13.1861   15.3230   20.9105 N   0  0  0  0  0  0  0  0  0  0  0  0
   11.8712   12.6468   21.2326 N   0  0  0  0  0  0  0  0  0  0  0  0
   10.0935   12.5618   22.7898 N   0  0  0  0  0  0  0  0  0  0  0  0
   12.3851   16.3971   22.8081 O   0  0  0  0  0  0  0  0  0  0  0  0
   10.1368   11.1263   20.9598 O   0  0  0  0  0  0  0  0  0  0  0  0
    6.4460   10.5004   27.5383 F   0  0  0  0  0  0  0  0  0  0  0  0
    5.7729    9.2200   25.9222 F   0  0  0  0  0  0  0  0  0  0  0  0
    7.5628    8.7014   27.0430 F   0  0  0  0  0  0  0  0  0  0  0  0
    8.9859   13.6079   25.0078 H   0  0  0  0  0  0  0  0  0  0  0  0
    7.5822   12.3741   26.6318 H   0  0  0  0  0  0  0  0  0  0  0  0
    9.3507    9.9702   22.7482 H   0  0  0  0  0  0  0  0  0  0  0  0
   10.9331   14.4279   19.5169 H   0  0  0  0  0  0  0  0  0  0  0  0
   11.8393   13.9293   18.0993 H   0  0  0  0  0  0  0  0  0  0  0  0
   13.9607   14.8235   19.0227 H   0  0  0  0  0  0  0  0  0  0  0  0
   12.7006   16.0429   19.0039 H   0  0  0  0  0  0  0  0  0  0  0  0
   11.6317   11.9329   19.2639 H   0  0  0  0  0  0  0  0  0  0  0  0
   13.2619   12.4336   19.6877 H   0  0  0  0  0  0  0  0  0  0  0  0
   14.4162   14.6350   22.4558 H   0  0  0  0  0  0  0  0  0  0  0  0
   14.4837   13.7241   20.9535 H   0  0  0  0  0  0  0  0  0  0  0  0
   13.3298   12.4096   22.7385 H   0  0  0  0  0  0  0  0  0  0  0  0
   12.2271   13.7305   23.0131 H   0  0  0  0  0  0  0  0  0  0  0  0
   11.5881   17.7706   20.4065 H   0  0  0  0  0  0  0  0  0  0  0  0
   13.3338   17.7447   20.0721 H   0  0  0  0  0  0  0  0  0  0  0  0
   12.7246   18.5504   21.5292 H   0  0  0  0  0  0  0  0  0  0  0  0
   10.2470   13.5818   23.0237 H   0  0  0  0  0  0  0  0  0  0  0  0
  1  2  2  0  0  0  0
  1  4  1  0  0  0  0
  2  5  1  0  0  0  0
  3  4  2  0  0  0  0
  3 15  1  0  0  0  0
  4 18  1  0  0  0  0
  5 14  1  0  0  0  0
  5 15  2  0  0  0  0
  6 13  1  0  0  0  0
  6 16  1  0  0  0  0
  6 19  2  0  0  0  0
  7 17  1  0  0  0  0
  7 18  1  0  0  0  0
  7 20  2  0  0  0  0
  8  9  1  0  0  0  0
  8 10  1  0  0  0  0
  9 16  1  0  0  0  0
 10 17  1  0  0  0  0
 11 12  1  0  0  0  0
 11 16  1  0  0  0  0
 12 17  1  0  0  0  0
 14 21  1  0  0  0  0
 14 22  1  0  0  0  0
 14 23  1  0  0  0  0
  1 24  1  0  0  0  0
  2 25  1  0  0  0  0
  3 26  1  0  0  0  0
  8 27  1  0  0  0  0
  8 28  1  0  0  0  0
  9 29  1  0  0  0  0
  9 30  1  0  0  0  0
 10 31  1  0  0  0  0
 10 32  1  0  0  0  0
 11 33  1  0  0  0  0
 11 34  1  0  0  0  0
 12 35  1  0  0  0  0
 12 36  1  0  0  0  0
 13 37  1  0  0  0  0
 13 38  1  0  0  0  0
 13 39  1  0  0  0  0
 18 40  1  0  0  0  0
M  END
> <idnumber>
Z1538640556

> <heavy_atoms>
23

> <LogS>
-2.68

> <LogP>
0.579

> <rotating_bonds>
2

> <PSA>
65.54

> <hb_acceptors>
3

> <hb_donors>
1

> <Collection>
HTS

> <link>
https://www.enaminestore.com/catalog/Z1538640556

> <ROCS_ShapeQuery>
_x1140_x0812_0A_x1140_0A_x1097_0A_x0365_0A_x1097_0A_x0310_0A

> <ROCS_TanimotoCombo>
0.642 

> <ROCS_ShapeTanimoto>
0.206 

> <ROCS_ColorTanimoto>
0.436 

> <ROCS_RefTversky>
0.196 

> <ROCS_RefColorTversky>
0.538 

> <ROCS_RefTverskyCombo>
0.734 

> <ROCS_FitTversky>
1.327 

> <ROCS_FitColorTversky>
0.697 

> <ROCS_FitTverskyCombo>
2.024 

> <ROCS_ColorScore>
-4.250

> <ROCS_Overlap>
2014.329

> <ROCS_Rank>
201                 

$$$$
untitled-dbase-851709_13
  -OEChem-02092421083D

 30 30  0     1  0  0  0  0  0999 V2000
    8.1407   12.4840   24.1947 C   0  0  0  0  0  0  0  0  0  0  0  0
    7.1989   11.9535   25.0763 C   0  0  0  0  0  0  0  0  0  0  0  0
    8.0444    9.7322   24.6426 C   0  0  0  0  0  0  0  0  0  0  0  0
    9.0343   11.6386   23.5370 C   0  0  0  0  0  0  0  0  0  0  0  0
    7.1508   10.5776   25.3003 C   0  0  0  0  0  0  0  0  0  0  0  0
    8.9861   10.2627   23.7610 C   0  0  0  0  0  0  0  0  0  0  0  0
   10.0283   12.2250   22.6015 C   0  0  0  0  0  0  0  0  0  0  0  0
   12.2783   15.1564   22.8833 C   0  0  0  0  0  0  0  0  0  0  0  0
   10.6552   15.0092   20.9909 C   0  0  0  0  0  0  0  0  0  0  0  0
   13.7925   15.3042   24.6963 C   0  0  0  0  0  0  0  0  0  0  0  0
   11.3925   14.2272   22.0667 C   0  0  2  0  0  0  0  0  0  0  0  0
   10.4512   13.5149   22.8924 N   0  0  0  0  0  0  0  0  0  0  0  0
   10.4013   11.5678   21.6332 O   0  0  0  0  0  0  0  0  0  0  0  0
   12.3597   16.3597   22.6581 O   0  0  0  0  0  0  0  0  0  0  0  0
    6.2307   10.0601   26.1597 O   0  0  0  0  0  0  0  0  0  0  0  0
    9.8503    9.4199   23.1281 O   0  0  0  0  0  0  0  0  0  0  0  0
   12.9426   14.4977   23.8739 O   0  0  0  0  0  0  0  0  0  0  0  0
    8.1684   13.5580   24.0289 H   0  0  0  0  0  0  0  0  0  0  0  0
    6.5056   12.6178   25.5850 H   0  0  0  0  0  0  0  0  0  0  0  0
    8.0047    8.6595   24.8153 H   0  0  0  0  0  0  0  0  0  0  0  0
   10.0021   15.7697   21.4318 H   0  0  0  0  0  0  0  0  0  0  0  0
   11.3573   15.5215   20.3231 H   0  0  0  0  0  0  0  0  0  0  0  0
   10.0373   14.3444   20.3776 H   0  0  0  0  0  0  0  0  0  0  0  0
   14.2717   14.6768   25.4520 H   0  0  0  0  0  0  0  0  0  0  0  0
   13.1997   16.0855   25.1786 H   0  0  0  0  0  0  0  0  0  0  0  0
   14.5594   15.7659   24.0698 H   0  0  0  0  0  0  0  0  0  0  0  0
   12.0421   13.4702   21.6145 H   0  0  0  0  0  0  0  0  0  0  0  0
   10.0477   14.0172   23.6792 H   0  0  0  0  0  0  0  0  0  0  0  0
    6.3222    9.0952   26.2091 H   0  0  0  0  0  0  0  0  0  0  0  0
    9.6802    8.5035   23.3960 H   0  0  0  0  0  0  0  0  0  0  0  0
  1  2  2  0  0  0  0
  1  4  1  0  0  0  0
  2  5  1  0  0  0  0
  3  5  2  0  0  0  0
  3  6  1  0  0  0  0
  4  6  2  0  0  0  0
  4  7  1  0  0  0  0
  5 15  1  0  0  0  0
  6 16  1  0  0  0  0
  7 12  1  0  0  0  0
  7 13  2  0  0  0  0
  8 11  1  0  0  0  0
  8 14  2  0  0  0  0
  8 17  1  0  0  0  0
  9 11  1  6  0  0  0
 10 17  1  0  0  0  0
 11 12  1  0  0  0  0
  1 18  1  0  0  0  0
  2 19  1  0  0  0  0
  3 20  1  0  0  0  0
  9 21  1  0  0  0  0
  9 22  1  0  0  0  0
  9 23  1  0  0  0  0
 10 24  1  0  0  0  0
 10 25  1  0  0  0  0
 10 26  1  0  0  0  0
 11 27  1  0  0  0  0
 12 28  1  0  0  0  0
 15 29  1  0  0  0  0
 16 30  1  0  0  0  0
M  END
> <idnumber>
Z244478124

> <heavy_atoms>
17

> <LogS>
-1.54

> <LogP>
1.229

> <rotating_bonds>
4

> <PSA>
95.86

> <hb_acceptors>
4

> <hb_donors>
3

> <Collection>
HTS

> <link>
https://www.enaminestore.com/catalog/Z244478124

> <ROCS_ShapeQuery>
_x1140_x0812_0A_x1140_0A_x1097_0A_x0365_0A_x1097_0A_x0310_0A

> <ROCS_TanimotoCombo>
0.642 

> <ROCS_ShapeTanimoto>
0.250 

> <ROCS_ColorTanimoto>
0.392 

> <ROCS_RefTversky>
0.224 

> <ROCS_RefColorTversky>
0.563 

> <ROCS_RefTverskyCombo>
0.787 

> <ROCS_FitTversky>
1.846 

> <ROCS_FitColorTversky>
0.563 

> <ROCS_FitTverskyCombo>
2.409 

> <ROCS_ColorScore>
-4.506

> <ROCS_Overlap>
2299.806

> <ROCS_Rank>
202                 

$$$$
untitled-dbase-294572_155
  -OEChem-02092421083D

 35 36  0     0  0  0  0  0  0999 V2000
    8.0496   11.9287   25.5380 C   0  0  0  0  0  0  0  0  0  0  0  0
    8.8182   12.3529   24.4599 C   0  0  0  0  0  0  0  0  0  0  0  0
   12.6698   17.0105   22.8781 C   0  0  0  0  0  0  0  0  0  0  0  0
   14.6342   15.6041   22.8862 C   0  0  0  0  0  0  0  0  0  0  0  0
   11.9130   15.9507   22.3786 C   0  0  0  0  0  0  0  0  0  0  0  0
   13.8774   14.5442   22.3867 C   0  0  0  0  0  0  0  0  0  0  0  0
    7.6934   10.5909   25.5941 C   0  0  0  0  0  0  0  0  0  0  0  0
    9.2018   11.4393   23.4845 C   0  0  0  0  0  0  0  0  0  0  0  0
   14.0305   16.8373   23.1319 C   0  0  0  0  0  0  0  0  0  0  0  0
   12.5168   14.7175   22.1329 C   0  0  0  0  0  0  0  0  0  0  0  0
    8.7942   10.1233   23.6326 C   0  0  0  0  0  0  0  0  0  0  0  0
   10.0234   11.9196   22.3437 C   0  0  0  0  0  0  0  0  0  0  0  0
   14.8403   17.9699   23.6659 C   0  0  0  0  0  0  0  0  0  0  0  0
   11.0378    8.9763   22.5537 C   0  0  0  0  0  0  0  0  0  0  0  0
   11.7065   13.5842   21.6005 C   0  0  0  0  0  0  0  0  0  0  0  0
    8.0471    9.6740   24.6658 N   0  0  0  0  0  0  0  0  0  0  0  0
   10.8659   12.9905   22.6090 N   0  0  0  0  0  0  0  0  0  0  0  0
    9.9059   11.3759   21.2487 O   0  0  0  0  0  0  0  0  0  0  0  0
    9.2399    8.8765   22.4289 S   0  0  0  0  0  0  0  0  0  0  0  0
    7.7388   12.6231   26.3100 H   0  0  0  0  0  0  0  0  0  0  0  0
    9.1113   13.3975   24.3926 H   0  0  0  0  0  0  0  0  0  0  0  0
   12.1912   17.9681   23.0660 H   0  0  0  0  0  0  0  0  0  0  0  0
   15.6936   15.4601   23.0822 H   0  0  0  0  0  0  0  0  0  0  0  0
   10.8533   16.0943   22.1853 H   0  0  0  0  0  0  0  0  0  0  0  0
   14.3557   13.5867   22.1979 H   0  0  0  0  0  0  0  0  0  0  0  0
    7.0938   10.2100   26.4142 H   0  0  0  0  0  0  0  0  0  0  0  0
   14.8309   17.9625   24.7628 H   0  0  0  0  0  0  0  0  0  0  0  0
   15.8826   17.9094   23.3266 H   0  0  0  0  0  0  0  0  0  0  0  0
   14.4499   18.9363   23.3211 H   0  0  0  0  0  0  0  0  0  0  0  0
   11.4983    8.2617   21.8671 H   0  0  0  0  0  0  0  0  0  0  0  0
   11.3524    8.7436   23.5741 H   0  0  0  0  0  0  0  0  0  0  0  0
   11.3722    9.9845   22.2977 H   0  0  0  0  0  0  0  0  0  0  0  0
   11.0542   13.9149   20.7801 H   0  0  0  0  0  0  0  0  0  0  0  0
   12.3454   12.7872   21.1959 H   0  0  0  0  0  0  0  0  0  0  0  0
   10.8605   13.4272   23.5272 H   0  0  0  0  0  0  0  0  0  0  0  0
  1  2  2  0  0  0  0
  1  7  1  0  0  0  0
  2  8  1  0  0  0  0
  3  5  2  0  0  0  0
  3  9  1  0  0  0  0
  4  6  1  0  0  0  0
  4  9  2  0  0  0  0
  5 10  1  0  0  0  0
  6 10  2  0  0  0  0
  7 16  2  0  0  0  0
  8 11  2  0  0  0  0
  8 12  1  0  0  0  0
  9 13  1  0  0  0  0
 10 15  1  0  0  0  0
 11 16  1  0  0  0  0
 11 19  1  0  0  0  0
 12 17  1  0  0  0  0
 12 18  2  0  0  0  0
 14 19  1  0  0  0  0
 15 17  1  0  0  0  0
  1 20  1  0  0  0  0
  2 21  1  0  0  0  0
  3 22  1  0  0  0  0
  4 23  1  0  0  0  0
  5 24  1  0  0  0  0
  6 25  1  0  0  0  0
  7 26  1  0  0  0  0
 13 27  1  0  0  0  0
 13 28  1  0  0  0  0
 13 29  1  0  0  0  0
 14 30  1  0  0  0  0
 14 31  1  0  0  0  0
 14 32  1  0  0  0  0
 15 33  1  0  0  0  0
 15 34  1  0  0  0  0
 17 35  1  0  0  0  0
M  END
> <idnumber>
Z28429681

> <heavy_atoms>
19

> <LogS>
-4.07

> <LogP>
3.021

> <rotating_bonds>
4

> <PSA>
41.99

> <hb_acceptors>
2

> <hb_donors>
1

> <Collection>
Functional

> <link>
https://www.enaminestore.com/catalog/Z28429681

> <ROCS_ShapeQuery>
_x1140_x0812_0A_x1140_0A_x1097_0A_x0365_0A_x1097_0A_x0310_0A

> <ROCS_TanimotoCombo>
0.642 

> <ROCS_ShapeTanimoto>
0.222 

> <ROCS_ColorTanimoto>
0.420 

> <ROCS_RefTversky>
0.205 

> <ROCS_RefColorTversky>
0.524 

> <ROCS_RefTverskyCombo>
0.729 

> <ROCS_FitTversky>
1.594 

> <ROCS_FitColorTversky>
0.678 

> <ROCS_FitTverskyCombo>
2.273 

> <ROCS_ColorScore>
-4.138

> <ROCS_Overlap>
2106.501

> <ROCS_Rank>
203                 

$$$$
untitled-dbase-272001_136
  -OEChem-02092421083D

 32 33  0     0  0  0  0  0  0999 V2000
    8.0494   11.9288   25.5385 C   0  0  0  0  0  0  0  0  0  0  0  0
    8.8182   12.3533   24.4605 C   0  0  0  0  0  0  0  0  0  0  0  0
   12.0095   16.0175   22.0961 C   0  0  0  0  0  0  0  0  0  0  0  0
   13.7822   14.4794   22.6696 C   0  0  0  0  0  0  0  0  0  0  0  0
   12.7678   17.0771   22.5937 C   0  0  0  0  0  0  0  0  0  0  0  0
   14.5406   15.5391   23.1672 C   0  0  0  0  0  0  0  0  0  0  0  0
    7.6935   10.5909   25.5944 C   0  0  0  0  0  0  0  0  0  0  0  0
    9.2021   11.4397   23.4851 C   0  0  0  0  0  0  0  0  0  0  0  0
   12.5166   14.7186   22.1341 C   0  0  0  0  0  0  0  0  0  0  0  0
   14.0334   16.8380   23.1292 C   0  0  0  0  0  0  0  0  0  0  0  0
    8.7947   10.1237   23.6330 C   0  0  0  0  0  0  0  0  0  0  0  0
   10.0238   11.9203   22.3445 C   0  0  0  0  0  0  0  0  0  0  0  0
   11.0387    8.9772   22.5545 C   0  0  0  0  0  0  0  0  0  0  0  0
   11.7066   13.5853   21.6016 C   0  0  0  0  0  0  0  0  0  0  0  0
    8.0476    9.6741   24.6661 N   0  0  0  0  0  0  0  0  0  0  0  0
   10.8660   12.9913   22.6100 N   0  0  0  0  0  0  0  0  0  0  0  0
    9.9065   11.3766   21.2494 O   0  0  0  0  0  0  0  0  0  0  0  0
   14.7629   17.8559   23.6047 F   0  0  0  0  0  0  0  0  0  0  0  0
    9.2408    8.8770   22.4294 S   0  0  0  0  0  0  0  0  0  0  0  0
    7.7384   12.6231   26.3104 H   0  0  0  0  0  0  0  0  0  0  0  0
    9.1110   13.3979   24.3933 H   0  0  0  0  0  0  0  0  0  0  0  0
   11.0241   16.2136   21.6815 H   0  0  0  0  0  0  0  0  0  0  0  0
   14.1857   13.4708   22.7031 H   0  0  0  0  0  0  0  0  0  0  0  0
   12.3734   18.0884   22.5636 H   0  0  0  0  0  0  0  0  0  0  0  0
   15.5257   15.3533   23.5846 H   0  0  0  0  0  0  0  0  0  0  0  0
    7.0938   10.2099   26.4144 H   0  0  0  0  0  0  0  0  0  0  0  0
   11.4995    8.2628   21.8679 H   0  0  0  0  0  0  0  0  0  0  0  0
   11.3532    8.7445   23.5748 H   0  0  0  0  0  0  0  0  0  0  0  0
   11.3729    9.9855   22.2985 H   0  0  0  0  0  0  0  0  0  0  0  0
   11.0543   13.9158   20.7811 H   0  0  0  0  0  0  0  0  0  0  0  0
   12.3457   12.7883   21.1971 H   0  0  0  0  0  0  0  0  0  0  0  0
   10.8604   13.4280   23.5282 H   0  0  0  0  0  0  0  0  0  0  0  0
  1  2  2  0  0  0  0
  1  7  1  0  0  0  0
  2  8  1  0  0  0  0
  3  5  2  0  0  0  0
  3  9  1  0  0  0  0
  4  6  1  0  0  0  0
  4  9  2  0  0  0  0
  5 10  1  0  0  0  0
  6 10  2  0  0  0  0
  7 15  2  0  0  0  0
  8 11  2  0  0  0  0
  8 12  1  0  0  0  0
  9 14  1  0  0  0  0
 10 18  1  0  0  0  0
 11 15  1  0  0  0  0
 11 19  1  0  0  0  0
 12 16  1  0  0  0  0
 12 17  2  0  0  0  0
 13 19  1  0  0  0  0
 14 16  1  0  0  0  0
  1 20  1  0  0  0  0
  2 21  1  0  0  0  0
  3 22  1  0  0  0  0
  4 23  1  0  0  0  0
  5 24  1  0  0  0  0
  6 25  1  0  0  0  0
  7 26  1  0  0  0  0
 13 27  1  0  0  0  0
 13 28  1  0  0  0  0
 13 29  1  0  0  0  0
 14 30  1  0  0  0  0
 14 31  1  0  0  0  0
 16 32  1  0  0  0  0
M  END
> <idnumber>
Z26780009

> <heavy_atoms>
19

> <LogS>
-3.84

> <LogP>
2.665

> <rotating_bonds>
4

> <PSA>
41.99

> <hb_acceptors>
2

> <hb_donors>
1

> <Collection>
Functional

> <link>
https://www.enaminestore.com/catalog/Z26780009

> <ROCS_ShapeQuery>
_x1140_x0812_0A_x1140_0A_x1097_0A_x0365_0A_x1097_0A_x0310_0A

> <ROCS_TanimotoCombo>
0.642 

> <ROCS_ShapeTanimoto>
0.222 

> <ROCS_ColorTanimoto>
0.420 

> <ROCS_RefTversky>
0.205 

> <ROCS_RefColorTversky>
0.524 

> <ROCS_RefTverskyCombo>
0.729 

> <ROCS_FitTversky>
1.588 

> <ROCS_FitColorTversky>
0.678 

> <ROCS_FitTverskyCombo>
2.267 

> <ROCS_ColorScore>
-4.138

> <ROCS_Overlap>
2106.188

> <ROCS_Rank>
204                 

$$$$
untitled-dbase-105452_41
  -OEChem-02092421083D

 34 35  0     0  0  0  0  0  0999 V2000
    8.8176   12.3182   24.1780 C   0  0  0  0  0  0  0  0  0  0  0  0
    7.8329   12.0216   25.1137 C   0  0  0  0  0  0  0  0  0  0  0  0
    8.8783   10.0147   23.5888 C   0  0  0  0  0  0  0  0  0  0  0  0
    9.3555   11.3013   23.3970 C   0  0  0  0  0  0  0  0  0  0  0  0
   12.1423   14.4605   22.2480 C   0  0  0  0  0  0  0  0  0  0  0  0
   12.8569   15.4144   22.9930 C   0  0  0  0  0  0  0  0  0  0  0  0
   11.0768   15.1651   21.7534 C   0  0  0  0  0  0  0  0  0  0  0  0
    7.4237   10.7028   25.2286 C   0  0  0  0  0  0  0  0  0  0  0  0
   10.3987   11.5828   22.3980 C   0  0  0  0  0  0  0  0  0  0  0  0
   14.1027   15.2240   23.7549 C   0  0  0  0  0  0  0  0  0  0  0  0
    9.9317   14.8179   20.9016 C   0  0  0  0  0  0  0  0  0  0  0  0
   12.0765   11.8475   24.1837 C   0  0  0  0  0  0  0  0  0  0  0  0
   12.4655   13.0092   22.0395 C   0  0  0  0  0  0  0  0  0  0  0  0
    7.9228    9.6881   24.4877 N   0  0  0  0  0  0  0  0  0  0  0  0
   12.2788   16.6185   22.9628 N   0  0  0  0  0  0  0  0  0  0  0  0
   11.6054   12.1375   22.8368 N   0  0  0  0  0  0  0  0  0  0  0  0
   10.1298   11.2915   21.2332 O   0  0  0  0  0  0  0  0  0  0  0  0
   11.1472   16.4542   22.1730 O   0  0  0  0  0  0  0  0  0  0  0  0
    6.4543   10.3855   26.1437 O   0  0  0  0  0  0  0  0  0  0  0  0
    9.1585   13.3439   24.0654 H   0  0  0  0  0  0  0  0  0  0  0  0
    7.4033   12.8034   25.7305 H   0  0  0  0  0  0  0  0  0  0  0  0
    9.2594    9.1794   23.0092 H   0  0  0  0  0  0  0  0  0  0  0  0
   14.9897   15.4143   23.1265 H   0  0  0  0  0  0  0  0  0  0  0  0
   14.1641   15.8967   24.6289 H   0  0  0  0  0  0  0  0  0  0  0  0
   14.1935   14.1988   24.1563 H   0  0  0  0  0  0  0  0  0  0  0  0
    9.0682   14.4801   21.5026 H   0  0  0  0  0  0  0  0  0  0  0  0
    9.5904   15.6715   20.2864 H   0  0  0  0  0  0  0  0  0  0  0  0
   10.1699   14.0098   20.1847 H   0  0  0  0  0  0  0  0  0  0  0  0
   12.7061   10.9456   24.1664 H   0  0  0  0  0  0  0  0  0  0  0  0
   12.6653   12.6983   24.5572 H   0  0  0  0  0  0  0  0  0  0  0  0
   11.2141   11.6798   24.8455 H   0  0  0  0  0  0  0  0  0  0  0  0
   12.3418   12.7336   20.9865 H   0  0  0  0  0  0  0  0  0  0  0  0
   13.5042   12.7949   22.3119 H   0  0  0  0  0  0  0  0  0  0  0  0
    6.1735   11.1835   26.6127 H   0  0  0  0  0  0  0  0  0  0  0  0
  1  2  2  0  0  0  0
  1  4  1  0  0  0  0
  2  8  1  0  0  0  0
  3  4  2  0  0  0  0
  3 14  1  0  0  0  0
  4  9  1  0  0  0  0
  5  6  1  0  0  0  0
  5  7  2  0  0  0  0
  5 13  1  0  0  0  0
  6 10  1  0  0  0  0
  6 15  2  0  0  0  0
  7 11  1  0  0  0  0
  7 18  1  0  0  0  0
  8 14  2  0  0  0  0
  8 19  1  0  0  0  0
  9 16  1  0  0  0  0
  9 17  2  0  0  0  0
 12 16  1  0  0  0  0
 13 16  1  0  0  0  0
 15 18  1  0  0  0  0
  1 20  1  0  0  0  0
  2 21  1  0  0  0  0
  3 22  1  0  0  0  0
 10 23  1  0  0  0  0
 10 24  1  0  0  0  0
 10 25  1  0  0  0  0
 11 26  1  0  0  0  0
 11 27  1  0  0  0  0
 11 28  1  0  0  0  0
 12 29  1  0  0  0  0
 12 30  1  0  0  0  0
 12 31  1  0  0  0  0
 13 32  1  0  0  0  0
 13 33  1  0  0  0  0
 19 34  1  0  0  0  0
M  END
> <idnumber>
Z367588590

> <heavy_atoms>
19

> <LogS>
-1.21

> <LogP>
0.48

> <rotating_bonds>
3

> <PSA>
79.46

> <hb_acceptors>
4

> <hb_donors>
1

> <Collection>
HTS

> <link>
https://www.enaminestore.com/catalog/Z367588590

> <ROCS_ShapeQuery>
_x1140_x0812_0A_x1140_0A_x1097_0A_x0365_0A_x1097_0A_x0310_0A

> <ROCS_TanimotoCombo>
0.642 

> <ROCS_ShapeTanimoto>
0.238 

> <ROCS_ColorTanimoto>
0.404 

> <ROCS_RefTversky>
0.217 

> <ROCS_RefColorTversky>
0.543 

> <ROCS_RefTverskyCombo>
0.760 

> <ROCS_FitTversky>
1.653 

> <ROCS_FitColorTversky>
0.611 

> <ROCS_FitTverskyCombo>
2.265 

> <ROCS_ColorScore>
-4.316

> <ROCS_Overlap>
2232.104

> <ROCS_Rank>
205                 

$$$$
untitled-dbase-206171_25
  -OEChem-02092421083D

 46 48  0     0  0  0  0  0  0999 V2000
    5.3772   12.4505   26.2059 C   0  0  0  0  0  0  0  0  0  0  0  0
    5.1047   11.0883   26.1887 C   0  0  0  0  0  0  0  0  0  0  0  0
    6.5796   12.9173   25.6826 C   0  0  0  0  0  0  0  0  0  0  0  0
    6.0346   10.1963   25.6486 C   0  0  0  0  0  0  0  0  0  0  0  0
   12.0975   15.2078   22.3896 C   0  0  0  0  0  0  0  0  0  0  0  0
   14.2234   15.1766   22.9505 C   0  0  0  0  0  0  0  0  0  0  0  0
    7.5147   12.0199   25.1394 C   0  0  0  0  0  0  0  0  0  0  0  0
   13.2201   14.3634   22.4831 C   0  0  0  0  0  0  0  0  0  0  0  0
    8.7327   12.4626   24.6061 C   0  0  0  0  0  0  0  0  0  0  0  0
    9.6351   11.5513   24.0769 C   0  0  0  0  0  0  0  0  0  0  0  0
    7.2446   10.6355   25.1185 C   0  0  0  0  0  0  0  0  0  0  0  0
    9.2828   10.2171   24.1007 C   0  0  0  0  0  0  0  0  0  0  0  0
   10.9741   11.9990   21.9746 C   0  0  0  0  0  0  0  0  0  0  0  0
    9.0916   13.9181   24.5924 C   0  0  0  0  0  0  0  0  0  0  0  0
   10.2068    9.1816   23.5478 C   0  0  0  0  0  0  0  0  0  0  0  0
   14.3287   17.6015   23.5728 C   0  0  0  0  0  0  0  0  0  0  0  0
   12.3242   12.5096   19.9242 C   0  0  0  0  0  0  0  0  0  0  0  0
   10.9387   11.9944   23.5027 C   0  0  0  0  0  0  0  0  0  0  0  0
   13.3037   12.9017   22.1503 C   0  0  0  0  0  0  0  0  0  0  0  0
   12.3623   16.4613   22.7674 N   0  0  0  0  0  0  0  0  0  0  0  0
    8.1185    9.7488   24.6057 N   0  0  0  0  0  0  0  0  0  0  0  0
   13.6627   16.4105   23.1029 N   0  0  0  0  0  0  0  0  0  0  0  0
   12.1543   12.4524   21.3743 N   0  0  0  0  0  0  0  0  0  0  0  0
    9.9928   11.6154   21.3319 O   0  0  0  0  0  0  0  0  0  0  0  0
    4.6569   13.1466   26.6248 H   0  0  0  0  0  0  0  0  0  0  0  0
    4.1690   10.7152   26.5949 H   0  0  0  0  0  0  0  0  0  0  0  0
    6.7661   13.9880   25.7094 H   0  0  0  0  0  0  0  0  0  0  0  0
    5.7972    9.1340   25.6471 H   0  0  0  0  0  0  0  0  0  0  0  0
   11.0964   14.9641   22.0631 H   0  0  0  0  0  0  0  0  0  0  0  0
   15.2625   14.9868   23.1831 H   0  0  0  0  0  0  0  0  0  0  0  0
    9.6219   14.1814   25.5126 H   0  0  0  0  0  0  0  0  0  0  0  0
    9.7304   14.1549   23.7352 H   0  0  0  0  0  0  0  0  0  0  0  0
    8.1946   14.5408   24.5098 H   0  0  0  0  0  0  0  0  0  0  0  0
   10.8822    8.8186   24.3309 H   0  0  0  0  0  0  0  0  0  0  0  0
    9.6487    8.3281   23.1437 H   0  0  0  0  0  0  0  0  0  0  0  0
   10.8096    9.5872   22.7260 H   0  0  0  0  0  0  0  0  0  0  0  0
   14.7457   18.1194   22.7050 H   0  0  0  0  0  0  0  0  0  0  0  0
   13.6084   18.2414   24.0902 H   0  0  0  0  0  0  0  0  0  0  0  0
   15.1231   17.3203   24.2697 H   0  0  0  0  0  0  0  0  0  0  0  0
   11.9926   13.4910   19.5541 H   0  0  0  0  0  0  0  0  0  0  0  0
   13.3850   12.3626   19.6733 H   0  0  0  0  0  0  0  0  0  0  0  0
   11.7229   11.7180   19.4532 H   0  0  0  0  0  0  0  0  0  0  0  0
   11.7464   11.3366   23.8629 H   0  0  0  0  0  0  0  0  0  0  0  0
   11.1730   13.0117   23.8567 H   0  0  0  0  0  0  0  0  0  0  0  0
   14.2073   12.6893   21.5686 H   0  0  0  0  0  0  0  0  0  0  0  0
   13.3519   12.2938   23.0598 H   0  0  0  0  0  0  0  0  0  0  0  0
  1  2  1  0  0  0  0
  1  3  2  0  0  0  0
  2  4  2  0  0  0  0
  3  7  1  0  0  0  0
  4 11  1  0  0  0  0
  5  8  1  0  0  0  0
  5 20  2  0  0  0  0
  6  8  2  0  0  0  0
  6 22  1  0  0  0  0
  7  9  1  0  0  0  0
  7 11  2  0  0  0  0
  8 19  1  0  0  0  0
  9 10  2  0  0  0  0
  9 14  1  0  0  0  0
 10 12  1  0  0  0  0
 10 18  1  0  0  0  0
 11 21  1  0  0  0  0
 12 15  1  0  0  0  0
 12 21  2  0  0  0  0
 13 18  1  0  0  0  0
 13 23  1  0  0  0  0
 13 24  2  0  0  0  0
 16 22  1  0  0  0  0
 17 23  1  0  0  0  0
 19 23  1  0  0  0  0
 20 22  1  0  0  0  0
  1 25  1  0  0  0  0
  2 26  1  0  0  0  0
  3 27  1  0  0  0  0
  4 28  1  0  0  0  0
  5 29  1  0  0  0  0
  6 30  1  0  0  0  0
 14 31  1  0  0  0  0
 14 32  1  0  0  0  0
 14 33  1  0  0  0  0
 15 34  1  0  0  0  0
 15 35  1  0  0  0  0
 15 36  1  0  0  0  0
 16 37  1  0  0  0  0
 16 38  1  0  0  0  0
 16 39  1  0  0  0  0
 17 40  1  0  0  0  0
 17 41  1  0  0  0  0
 17 42  1  0  0  0  0
 18 43  1  0  0  0  0
 18 44  1  0  0  0  0
 19 45  1  0  0  0  0
 19 46  1  0  0  0  0
M  END
> <idnumber>
Z70770315

> <heavy_atoms>
24

> <LogS>
-2.37

> <LogP>
1.554

> <rotating_bonds>
4

> <PSA>
51.02

> <hb_acceptors>
3

> <hb_donors>
0

> <Collection>
HTS

> <link>
https://www.enaminestore.com/catalog/Z70770315

> <ROCS_ShapeQuery>
_x1140_x0812_0A_x1140_0A_x1097_0A_x0365_0A_x1097_0A_x0310_0A

> <ROCS_TanimotoCombo>
0.641 

> <ROCS_ShapeTanimoto>
0.276 

> <ROCS_ColorTanimoto>
0.366 

> <ROCS_RefTversky>
0.249 

> <ROCS_RefColorTversky>
0.475 

> <ROCS_RefTverskyCombo>
0.724 

> <ROCS_FitTversky>
1.622 

> <ROCS_FitColorTversky>
0.614 

> <ROCS_FitTverskyCombo>
2.236 

> <ROCS_ColorScore>
-3.750

> <ROCS_Overlap>
2560.892

> <ROCS_Rank>
206                 

$$$$
untitled-dbase-872219_126
  -OEChem-02092421083D

 45 47  0     0  0  0  0  0  0999 V2000
    8.5964   12.4192   23.9939 C   0  0  0  0  0  0  0  0  0  0  0  0
    7.6466   12.1545   24.9743 C   0  0  0  0  0  0  0  0  0  0  0  0
    9.3257   11.3730   23.4400 C   0  0  0  0  0  0  0  0  0  0  0  0
    7.4654   10.8369   25.3629 C   0  0  0  0  0  0  0  0  0  0  0  0
    9.0695   10.0904   23.8974 C   0  0  0  0  0  0  0  0  0  0  0  0
   10.3242   11.6492   22.4102 C   0  0  0  0  0  0  0  0  0  0  0  0
   12.9288   15.4432   22.3750 C   0  0  0  0  0  0  0  0  0  0  0  0
   13.4564   16.6801   20.1763 C   0  0  0  0  0  0  0  0  0  0  0  0
   14.6412   15.8156   20.4866 C   0  0  0  0  0  0  0  0  0  0  0  0
   11.8301   13.3080   24.8828 C   0  0  0  0  0  0  0  0  0  0  0  0
   11.9286   11.9059   24.2764 C   0  0  0  0  0  0  0  0  0  0  0  0
   13.0438   14.1865   24.5796 C   0  0  0  0  0  0  0  0  0  0  0  0
   12.7459   12.2463   21.9088 C   0  0  0  0  0  0  0  0  0  0  0  0
   13.8396   13.1554   22.4702 C   0  0  0  0  0  0  0  0  0  0  0  0
   13.2743   15.3933   20.9081 C   0  0  0  0  0  0  0  0  0  0  0  0
    9.8216    8.9256   23.3399 C   0  0  0  0  0  0  0  0  0  0  0  0
    6.4547   10.5156   26.4130 C   0  0  0  0  0  0  0  0  0  0  0  0
    8.1549    9.7943   24.8479 N   0  0  0  0  0  0  0  0  0  0  0  0
   11.6482   11.9140   22.8355 N   0  0  0  0  0  0  0  0  0  0  0  0
   13.2884   14.3327   23.1407 N   0  0  0  0  0  0  0  0  0  0  0  0
   10.0056   11.6372   21.2193 O   0  0  0  0  0  0  0  0  0  0  0  0
   12.3578   16.4377   22.8302 O   0  0  0  0  0  0  0  0  0  0  0  0
    5.7952   11.6120   26.8903 F   0  0  0  0  0  0  0  0  0  0  0  0
    5.4738    9.6675   25.9849 F   0  0  0  0  0  0  0  0  0  0  0  0
    7.0077    9.9152   27.5064 F   0  0  0  0  0  0  0  0  0  0  0  0
    8.7593   13.4438   23.6700 H   0  0  0  0  0  0  0  0  0  0  0  0
    7.0711   12.9617   25.4147 H   0  0  0  0  0  0  0  0  0  0  0  0
   13.3626   17.6170   20.7117 H   0  0  0  0  0  0  0  0  0  0  0  0
   13.1117   16.7145   19.1500 H   0  0  0  0  0  0  0  0  0  0  0  0
   15.0944   15.2684   19.6690 H   0  0  0  0  0  0  0  0  0  0  0  0
   15.3440   16.1737   21.2290 H   0  0  0  0  0  0  0  0  0  0  0  0
   10.9086   13.8026   24.5524 H   0  0  0  0  0  0  0  0  0  0  0  0
   11.7511   13.2073   25.9724 H   0  0  0  0  0  0  0  0  0  0  0  0
   12.9053   11.4429   24.4544 H   0  0  0  0  0  0  0  0  0  0  0  0
   11.1868   11.2686   24.7716 H   0  0  0  0  0  0  0  0  0  0  0  0
   12.9024   15.1653   25.0455 H   0  0  0  0  0  0  0  0  0  0  0  0
   13.9462   13.7592   25.0332 H   0  0  0  0  0  0  0  0  0  0  0  0
   12.3273   12.7108   21.0093 H   0  0  0  0  0  0  0  0  0  0  0  0
   13.1913   11.2943   21.5966 H   0  0  0  0  0  0  0  0  0  0  0  0
   14.4947   12.6139   23.1619 H   0  0  0  0  0  0  0  0  0  0  0  0
   14.4735   13.4896   21.6402 H   0  0  0  0  0  0  0  0  0  0  0  0
   12.8120   14.5730   20.3920 H   0  0  0  0  0  0  0  0  0  0  0  0
   10.7304    8.7460   23.9253 H   0  0  0  0  0  0  0  0  0  0  0  0
    9.2095    8.0158   23.3551 H   0  0  0  0  0  0  0  0  0  0  0  0
   10.1065    9.1021   22.2956 H   0  0  0  0  0  0  0  0  0  0  0  0
  1  2  2  0  0  0  0
  1  3  1  0  0  0  0
  2  4  1  0  0  0  0
  3  5  2  0  0  0  0
  3  6  1  0  0  0  0
  4 17  1  0  0  0  0
  4 18  2  0  0  0  0
  5 16  1  0  0  0  0
  5 18  1  0  0  0  0
  6 19  1  0  0  0  0
  6 21  2  0  0  0  0
  7 15  1  0  0  0  0
  7 20  1  0  0  0  0
  7 22  2  0  0  0  0
  8  9  1  0  0  0  0
  8 15  1  0  0  0  0
  9 15  1  0  0  0  0
 10 11  1  0  0  0  0
 10 12  1  0  0  0  0
 11 19  1  0  0  0  0
 12 20  1  0  0  0  0
 13 14  1  0  0  0  0
 13 19  1  0  0  0  0
 14 20  1  0  0  0  0
 17 23  1  0  0  0  0
 17 24  1  0  0  0  0
 17 25  1  0  0  0  0
  1 26  1  0  0  0  0
  2 27  1  0  0  0  0
  8 28  1  0  0  0  0
  8 29  1  0  0  0  0
  9 30  1  0  0  0  0
  9 31  1  0  0  0  0
 10 32  1  0  0  0  0
 10 33  1  0  0  0  0
 11 34  1  0  0  0  0
 11 35  1  0  0  0  0
 12 36  1  0  0  0  0
 12 37  1  0  0  0  0
 13 38  1  0  0  0  0
 13 39  1  0  0  0  0
 14 40  1  0  0  0  0
 14 41  1  0  0  0  0
 15 42  1  0  0  0  0
 16 43  1  0  0  0  0
 16 44  1  0  0  0  0
 16 45  1  0  0  0  0
M  END
> <idnumber>
Z1767652893

> <heavy_atoms>
25

> <LogS>
-3.314

> <LogP>
0.879

> <rotating_bonds>
3

> <PSA>
53.51

> <hb_acceptors>
3

> <hb_donors>
0

> <Collection>
HTS

> <link>
https://www.enaminestore.com/catalog/Z1767652893

> <ROCS_ShapeQuery>
_x1140_x0812_0A_x1140_0A_x1097_0A_x0365_0A_x1097_0A_x0310_0A

> <ROCS_TanimotoCombo>
0.641 

> <ROCS_ShapeTanimoto>
0.269 

> <ROCS_ColorTanimoto>
0.372 

> <ROCS_RefTversky>
0.245 

> <ROCS_RefColorTversky>
0.449 

> <ROCS_RefTverskyCombo>
0.694 

> <ROCS_FitTversky>
1.568 

> <ROCS_FitColorTversky>
0.684 

> <ROCS_FitTverskyCombo>
2.252 

> <ROCS_ColorScore>
-3.523

> <ROCS_Overlap>
2520.827

> <ROCS_Rank>
207                 

$$$$
untitled-dbase-1143306_9
  -OEChem-02092421083D

 24 24  0     0  0  0  0  0  0999 V2000
   11.1008    8.8813   22.6208 C   0  0  0  0  0  0  0  0  0  0  0  0
   10.3604    9.6202   23.2104 C   0  0  0  0  0  0  0  0  0  0  0  0
    7.7346   12.1696   25.3150 C   0  0  0  0  0  0  0  0  0  0  0  0
    8.6430   12.7147   24.4077 C   0  0  0  0  0  0  0  0  0  0  0  0
    8.5688    9.9567   24.8208 C   0  0  0  0  0  0  0  0  0  0  0  0
    9.4772   10.5018   23.9134 C   0  0  0  0  0  0  0  0  0  0  0  0
    7.6975   10.7906   25.5216 C   0  0  0  0  0  0  0  0  0  0  0  0
    9.5143   11.8808   23.7069 C   0  0  0  0  0  0  0  0  0  0  0  0
   10.4824   12.1938   21.4425 C   0  0  0  0  0  0  0  0  0  0  0  0
   11.5751   12.9951   20.7737 C   0  0  0  0  0  0  0  0  0  0  0  0
    6.7256   10.2083   26.4915 C   0  0  0  0  0  0  0  0  0  0  0  0
   10.4138   12.4568   22.8037 N   0  0  0  0  0  0  0  0  0  0  0  0
    9.7999   11.4122   20.7857 O   0  0  0  0  0  0  0  0  0  0  0  0
    5.9369   11.1410   27.1030 F   0  0  0  0  0  0  0  0  0  0  0  0
    5.8545    9.3208   25.9265 F   0  0  0  0  0  0  0  0  0  0  0  0
    7.3379    9.5267   27.5032 F   0  0  0  0  0  0  0  0  0  0  0  0
   10.8709   14.5304   20.2423 Cl  0  0  0  0  0  0  0  0  0  0  0  0
   11.7571    8.2259   22.0975 H   0  0  0  0  0  0  0  0  0  0  0  0
    7.0590   12.8260   25.8570 H   0  0  0  0  0  0  0  0  0  0  0  0
    8.6635   13.7912   24.2569 H   0  0  0  0  0  0  0  0  0  0  0  0
    8.5334    8.8818   24.9881 H   0  0  0  0  0  0  0  0  0  0  0  0
   12.0043   12.4852   19.9075 H   0  0  0  0  0  0  0  0  0  0  0  0
   12.3717   13.1978   21.4951 H   0  0  0  0  0  0  0  0  0  0  0  0
   11.0779   13.1293   23.1784 H   0  0  0  0  0  0  0  0  0  0  0  0
  1  2  3  0  0  0  0
  2  6  1  0  0  0  0
  3  4  2  0  0  0  0
  3  7  1  0  0  0  0
  4  8  1  0  0  0  0
  5  6  1  0  0  0  0
  5  7  2  0  0  0  0
  6  8  2  0  0  0  0
  7 11  1  0  0  0  0
  8 12  1  0  0  0  0
  9 10  1  0  0  0  0
  9 12  1  0  0  0  0
  9 13  2  0  0  0  0
 10 17  1  0  0  0  0
 11 14  1  0  0  0  0
 11 15  1  0  0  0  0
 11 16  1  0  0  0  0
  1 18  1  0  0  0  0
  3 19  1  0  0  0  0
  4 20  1  0  0  0  0
  5 21  1  0  0  0  0
 10 22  1  0  0  0  0
 10 23  1  0  0  0  0
 12 24  1  0  0  0  0
M  END
> <idnumber>
Z6615079513

> <heavy_atoms>
17

> <LogS>
-4.118

> <LogP>
3.378

> <rotating_bonds>
3

> <PSA>
29.1

> <hb_acceptors>
1

> <hb_donors>
1

> <Collection>
Functional

> <link>
https://www.enaminestore.com/catalog/Z6615079513

> <ROCS_ShapeQuery>
_x1140_x0812_0A_x1140_0A_x1097_0A_x0365_0A_x1097_0A_x0310_0A

> <ROCS_TanimotoCombo>
0.641 

> <ROCS_ShapeTanimoto>
0.243 

> <ROCS_ColorTanimoto>
0.398 

> <ROCS_RefTversky>
0.219 

> <ROCS_RefColorTversky>
0.438 

> <ROCS_RefTverskyCombo>
0.657 

> <ROCS_FitTversky>
1.807 

> <ROCS_FitColorTversky>
0.813 

> <ROCS_FitTverskyCombo>
2.620 

> <ROCS_ColorScore>
-3.414

> <ROCS_Overlap>
2250.916

> <ROCS_Rank>
208                 

$$$$
untitled-dbase-979801_196
  -OEChem-02092421083D

 42 44  0     1  0  0  0  0  0999 V2000
    5.5405   12.2615   26.6894 C   0  0  0  0  0  0  0  0  0  0  0  0
    5.5823   10.9179   27.0549 C   0  0  0  0  0  0  0  0  0  0  0  0
    6.3641   12.7320   25.6663 C   0  0  0  0  0  0  0  0  0  0  0  0
    6.4529   10.0458   26.4030 C   0  0  0  0  0  0  0  0  0  0  0  0
   11.0793   14.8169   21.0359 C   0  0  0  0  0  0  0  0  0  0  0  0
   11.6522   17.0287   21.6965 C   0  0  0  0  0  0  0  0  0  0  0  0
   12.5299   15.2581   22.8682 C   0  0  0  0  0  0  0  0  0  0  0  0
    7.2349   11.8611   24.9975 C   0  0  0  0  0  0  0  0  0  0  0  0
   10.9591   16.1883   20.8403 C   0  0  0  0  0  0  0  0  0  0  0  0
   11.8778   14.3347   22.0671 C   0  0  0  0  0  0  0  0  0  0  0  0
    7.2876   10.5184   25.3868 C   0  0  0  0  0  0  0  0  0  0  0  0
    9.7937   11.7764   22.2140 C   0  0  0  0  0  0  0  0  0  0  0  0
    8.1141   12.3815   23.8985 C   0  0  0  0  0  0  0  0  0  0  0  0
    8.6892   11.2338   23.0691 C   0  0  2  0  0  0  0  0  0  0  0  0
    9.1821   10.1272   24.0085 C   0  0  2  0  0  0  0  0  0  0  0  0
   10.1138   16.7356   19.7456 C   0  0  0  0  0  0  0  0  0  0  0  0
   12.0299   12.8598   22.3031 C   0  0  0  0  0  0  0  0  0  0  0  0
    9.7733    8.9443   23.2428 C   0  0  0  0  0  0  0  0  0  0  0  0
   12.4373   16.5974   22.7091 N   0  0  0  0  0  0  0  0  0  0  0  0
   10.8592   12.2887   22.9293 N   0  0  0  0  0  0  0  0  0  0  0  0
    9.6899   11.7333   20.9937 O   0  0  0  0  0  0  0  0  0  0  0  0
    8.1042    9.5917   24.7957 O   0  0  0  0  0  0  0  0  0  0  0  0
   11.0123    9.2874   22.8581 F   0  0  0  0  0  0  0  0  0  0  0  0
    9.0235    8.7537   22.1465 F   0  0  0  0  0  0  0  0  0  0  0  0
    4.8679   12.9433   27.2019 H   0  0  0  0  0  0  0  0  0  0  0  0
    4.9353   10.5494   27.8457 H   0  0  0  0  0  0  0  0  0  0  0  0
    6.3260   13.7840   25.3962 H   0  0  0  0  0  0  0  0  0  0  0  0
    6.4715    8.9977   26.6880 H   0  0  0  0  0  0  0  0  0  0  0  0
   10.5508   14.1241   20.3856 H   0  0  0  0  0  0  0  0  0  0  0  0
   11.5967   18.1081   21.5921 H   0  0  0  0  0  0  0  0  0  0  0  0
   13.1670   14.9410   23.6883 H   0  0  0  0  0  0  0  0  0  0  0  0
    7.5102   13.0293   23.2556 H   0  0  0  0  0  0  0  0  0  0  0  0
    8.9229   12.9851   24.3216 H   0  0  0  0  0  0  0  0  0  0  0  0
    7.9252   10.8661   22.3980 H   0  0  0  0  0  0  0  0  0  0  0  0
    9.9053   10.5023   24.6827 H   0  0  0  0  0  0  0  0  0  0  0  0
    9.0856   16.8971   20.0960 H   0  0  0  0  0  0  0  0  0  0  0  0
   10.5060   17.6931   19.3747 H   0  0  0  0  0  0  0  0  0  0  0  0
   10.0813   16.0543   18.8835 H   0  0  0  0  0  0  0  0  0  0  0  0
   12.1977   12.3328   21.3576 H   0  0  0  0  0  0  0  0  0  0  0  0
   12.8899   12.6518   22.9484 H   0  0  0  0  0  0  0  0  0  0  0  0
    9.7864    8.0662   23.8648 H   0  0  0  0  0  0  0  0  0  0  0  0
   10.8176   12.2626   23.9437 H   0  0  0  0  0  0  0  0  0  0  0  0
  1  2  1  0  0  0  0
  1  3  2  0  0  0  0
  2  4  2  0  0  0  0
  3  8  1  0  0  0  0
  4 11  1  0  0  0  0
  5  9  2  0  0  0  0
  5 10  1  0  0  0  0
  6  9  1  0  0  0  0
  6 19  2  0  0  0  0
  7 10  2  0  0  0  0
  7 19  1  0  0  0  0
  8 11  2  0  0  0  0
  8 13  1  0  0  0  0
  9 16  1  0  0  0  0
 10 17  1  0  0  0  0
 11 22  1  0  0  0  0
 12 14  1  6  0  0  0
 12 20  1  0  0  0  0
 12 21  2  0  0  0  0
 13 14  1  0  0  0  0
 14 15  1  0  0  0  0
 15 18  1  1  0  0  0
 15 22  1  0  0  0  0
 17 20  1  0  0  0  0
 18 23  1  0  0  0  0
 18 24  1  0  0  0  0
  1 25  1  0  0  0  0
  2 26  1  0  0  0  0
  3 27  1  0  0  0  0
  4 28  1  0  0  0  0
  5 29  1  0  0  0  0
  6 30  1  0  0  0  0
  7 31  1  0  0  0  0
 13 32  1  0  0  0  0
 13 33  1  0  0  0  0
 14 34  1  0  0  0  0
 15 35  1  0  0  0  0
 16 36  1  0  0  0  0
 16 37  1  0  0  0  0
 16 38  1  0  0  0  0
 17 39  1  0  0  0  0
 17 40  1  0  0  0  0
 18 41  1  0  0  0  0
 20 42  1  0  0  0  0
M  END
> <idnumber>
Z2958092120

> <heavy_atoms>
24

> <LogS>
-3.652

> <LogP>
2.607

> <rotating_bonds>
4

> <PSA>
51.22

> <hb_acceptors>
3

> <hb_donors>
1

> <Collection>
HTS

> <link>
https://www.enaminestore.com/catalog/Z2958092120

> <ROCS_ShapeQuery>
_x1140_x0812_0A_x1140_0A_x1097_0A_x0365_0A_x1097_0A_x0310_0A

> <ROCS_TanimotoCombo>
0.641 

> <ROCS_ShapeTanimoto>
0.302 

> <ROCS_ColorTanimoto>
0.339 

> <ROCS_RefTversky>
0.267 

> <ROCS_RefColorTversky>
0.478 

> <ROCS_RefTverskyCombo>
0.746 

> <ROCS_FitTversky>
1.739 

> <ROCS_FitColorTversky>
0.539 

> <ROCS_FitTverskyCombo>
2.278 

> <ROCS_ColorScore>
-3.802

> <ROCS_Overlap>
2746.680

> <ROCS_Rank>
209                 

$$$$
untitled-dbase-1142869_48
  -OEChem-02092421083D

 25 25  0     1  0  0  0  0  0999 V2000
    8.9429   12.3501   25.1960 C   0  0  0  0  0  0  0  0  0  0  0  0
    7.7558   11.8514   25.7208 C   0  0  0  0  0  0  0  0  0  0  0  0
    9.2022   10.3174   23.9886 C   0  0  0  0  0  0  0  0  0  0  0  0
    9.6858   11.5747   24.3126 C   0  0  0  0  0  0  0  0  0  0  0  0
    7.3585   10.5818   25.3336 C   0  0  0  0  0  0  0  0  0  0  0  0
   10.1572   12.3388   21.4003 C   0  0  0  0  0  0  0  0  0  0  0  0
   11.9764   10.9681   23.4270 C   0  0  0  0  0  0  0  0  0  0  0  0
    9.9943   13.3461   20.2908 C   0  0  0  0  0  0  0  0  0  0  0  0
   10.9820   12.0886   23.7239 C   0  0  1  0  0  0  0  0  0  0  0  0
    8.0535    9.7991   24.4780 N   0  0  0  0  0  0  0  0  0  0  0  0
   10.7473   12.8721   22.5336 N   0  0  0  0  0  0  0  0  0  0  0  0
    9.7775   11.1752   21.2808 O   0  0  0  0  0  0  0  0  0  0  0  0
    6.1921   10.0684   25.8373 O   0  0  0  0  0  0  0  0  0  0  0  0
   11.3051   14.5280   20.4318 Cl  0  0  0  0  0  0  0  0  0  0  0  0
    9.2813   13.3426   25.4803 H   0  0  0  0  0  0  0  0  0  0  0  0
    7.1650   12.4437   26.4109 H   0  0  0  0  0  0  0  0  0  0  0  0
    9.7389    9.6673   23.3045 H   0  0  0  0  0  0  0  0  0  0  0  0
   11.5582   10.2477   22.7155 H   0  0  0  0  0  0  0  0  0  0  0  0
   12.8971   11.3762   22.9951 H   0  0  0  0  0  0  0  0  0  0  0  0
   12.2609   10.4216   24.3332 H   0  0  0  0  0  0  0  0  0  0  0  0
   10.0396   12.8895   19.2990 H   0  0  0  0  0  0  0  0  0  0  0  0
    9.0356   13.8595   20.4041 H   0  0  0  0  0  0  0  0  0  0  0  0
   11.4541   12.7747   24.4378 H   0  0  0  0  0  0  0  0  0  0  0  0
   11.0250   13.8489   22.5276 H   0  0  0  0  0  0  0  0  0  0  0  0
    5.7828   10.7106   26.4338 H   0  0  0  0  0  0  0  0  0  0  0  0
  1  2  2  0  0  0  0
  1  4  1  0  0  0  0
  2  5  1  0  0  0  0
  3  4  2  0  0  0  0
  3 10  1  0  0  0  0
  4  9  1  0  0  0  0
  5 10  2  0  0  0  0
  5 13  1  0  0  0  0
  6  8  1  0  0  0  0
  6 11  1  0  0  0  0
  6 12  2  0  0  0  0
  7  9  1  6  0  0  0
  8 14  1  0  0  0  0
  9 11  1  0  0  0  0
  1 15  1  0  0  0  0
  2 16  1  0  0  0  0
  3 17  1  0  0  0  0
  7 18  1  0  0  0  0
  7 19  1  0  0  0  0
  7 20  1  0  0  0  0
  8 21  1  0  0  0  0
  8 22  1  0  0  0  0
  9 23  1  0  0  0  0
 11 24  1  0  0  0  0
 13 25  1  0  0  0  0
M  END
> <idnumber>
Z6598567966

> <heavy_atoms>
14

> <LogS>
-1.391

> <LogP>
0.662

> <rotating_bonds>
3

> <PSA>
62.22

> <hb_acceptors>
3

> <hb_donors>
2

> <Collection>
Functional

> <link>
https://www.enaminestore.com/catalog/Z6598567966

> <ROCS_ShapeQuery>
_x1140_x0812_0A_x1140_0A_x1097_0A_x0365_0A_x1097_0A_x0310_0A

> <ROCS_TanimotoCombo>
0.641 

> <ROCS_ShapeTanimoto>
0.209 

> <ROCS_ColorTanimoto>
0.432 

> <ROCS_RefTversky>
0.191 

> <ROCS_RefColorTversky>
0.535 

> <ROCS_RefTverskyCombo>
0.726 

> <ROCS_FitTversky>
1.780 

> <ROCS_FitColorTversky>
0.692 

> <ROCS_FitTverskyCombo>
2.472 

> <ROCS_ColorScore>
-4.226

> <ROCS_Overlap>
1961.647

> <ROCS_Rank>
210                 

$$$$
untitled-dbase-1119096_19
  -OEChem-02092421083D

 38 39  0     1  0  0  0  0  0999 V2000
    8.0320   11.9821   25.4435 C   0  0  0  0  0  0  0  0  0  0  0  0
    7.7037   10.6504   25.3157 C   0  0  0  0  0  0  0  0  0  0  0  0
    9.4287   11.8110   23.6410 C   0  0  0  0  0  0  0  0  0  0  0  0
    9.1011   10.4791   23.5134 C   0  0  0  0  0  0  0  0  0  0  0  0
   13.6458   11.9442   20.4194 C   0  0  0  0  0  0  0  0  0  0  0  0
   13.9777   11.2762   21.5327 C   0  0  0  0  0  0  0  0  0  0  0  0
   11.5913   15.3359   22.4135 C   0  0  0  0  0  0  0  0  0  0  0  0
   12.2486   12.3385   20.0593 C   0  0  0  0  0  0  0  0  0  0  0  0
   13.0108   10.8053   22.5774 C   0  0  0  0  0  0  0  0  0  0  0  0
   11.8613   13.7111   20.6071 C   0  0  0  0  0  0  0  0  0  0  0  0
   12.6196   11.8848   23.5912 C   0  0  0  0  0  0  0  0  0  0  0  0
   12.1463   13.9715   22.1015 C   0  0  2  0  0  0  0  0  0  0  0  0
   11.6024   12.9619   23.1435 C   0  0  1  0  0  0  0  0  0  0  0  0
    9.5743   16.5606   22.5395 C   0  0  0  0  0  0  0  0  0  0  0  0
    8.9003   12.5863   24.6084 N   0  0  0  0  0  0  0  0  0  0  0  0
    8.2325    9.8750   24.3483 N   0  0  0  0  0  0  0  0  0  0  0  0
   10.3296   12.3590   22.7451 N   0  0  0  0  0  0  0  0  0  0  0  0
   12.2758   16.2952   22.7426 O   0  0  0  0  0  0  0  0  0  0  0  0
   10.2353   15.3200   22.2712 O   0  0  0  0  0  0  0  0  0  0  0  0
    9.6478    9.7392   22.5368 F   0  0  0  0  0  0  0  0  0  0  0  0
    7.6072   12.6048   26.2211 H   0  0  0  0  0  0  0  0  0  0  0  0
    7.0053   10.1658   25.9867 H   0  0  0  0  0  0  0  0  0  0  0  0
   14.4383   12.2528   19.7425 H   0  0  0  0  0  0  0  0  0  0  0  0
   15.0298   11.0663   21.7103 H   0  0  0  0  0  0  0  0  0  0  0  0
   12.1655   12.3552   18.9652 H   0  0  0  0  0  0  0  0  0  0  0  0
   11.5280   11.5811   20.3814 H   0  0  0  0  0  0  0  0  0  0  0  0
   12.1315   10.3369   22.1249 H   0  0  0  0  0  0  0  0  0  0  0  0
   13.5072    9.9926   23.1247 H   0  0  0  0  0  0  0  0  0  0  0  0
   12.3885   14.4788   20.0223 H   0  0  0  0  0  0  0  0  0  0  0  0
   10.7959   13.8766   20.3957 H   0  0  0  0  0  0  0  0  0  0  0  0
   12.1882   11.3714   24.4621 H   0  0  0  0  0  0  0  0  0  0  0  0
   13.5243   12.3830   23.9646 H   0  0  0  0  0  0  0  0  0  0  0  0
   13.2326   14.0736   22.2401 H   0  0  0  0  0  0  0  0  0  0  0  0
   11.3823   13.5233   24.0637 H   0  0  0  0  0  0  0  0  0  0  0  0
    8.4977   16.4389   22.3971 H   0  0  0  0  0  0  0  0  0  0  0  0
    9.9569   17.3315   21.8659 H   0  0  0  0  0  0  0  0  0  0  0  0
    9.7720   16.8524   23.5737 H   0  0  0  0  0  0  0  0  0  0  0  0
   10.0998   12.3458   21.7596 H   0  0  0  0  0  0  0  0  0  0  0  0
  1  2  1  0  0  0  0
  1 15  2  0  0  0  0
  2 16  2  0  0  0  0
  3  4  2  0  0  0  0
  3 15  1  0  0  0  0
  3 17  1  0  0  0  0
  4 16  1  0  0  0  0
  4 20  1  0  0  0  0
  5  6  2  0  0  0  0
  5  8  1  4  0  0  0
  6  9  1  0  0  0  0
  7 12  1  6  0  0  0
  7 18  2  0  0  0  0
  7 19  1  0  0  0  0
  8 10  1  0  0  0  0
  9 11  1  0  0  0  0
 10 12  1  0  0  0  0
 11 13  1  0  0  0  0
 12 13  1  0  0  0  0
 13 17  1  6  0  0  0
 14 19  1  0  0  0  0
  1 21  1  0  0  0  0
  2 22  1  0  0  0  0
  5 23  1  0  0  0  0
  6 24  1  0  0  0  0
  8 25  1  0  0  0  0
  8 26  1  0  0  0  0
  9 27  1  0  0  0  0
  9 28  1  0  0  0  0
 10 29  1  0  0  0  0
 10 30  1  0  0  0  0
 11 31  1  0  0  0  0
 11 32  1  0  0  0  0
 12 33  1  0  0  0  0
 13 34  1  0  0  0  0
 14 35  1  0  0  0  0
 14 36  1  0  0  0  0
 14 37  1  0  0  0  0
 17 38  1  0  0  0  0
M  END
> <idnumber>
Z5279128110

> <heavy_atoms>
20

> <LogS>
-2.663

> <LogP>
2.86

> <rotating_bonds>
4

> <PSA>
64.11

> <hb_acceptors>
4

> <hb_donors>
1

> <Collection>
Advanced

> <link>
https://www.enaminestore.com/catalog/Z5279128110

> <ROCS_ShapeQuery>
_x1140_x0812_0A_x1140_0A_x1097_0A_x0365_0A_x1097_0A_x0310_0A

> <ROCS_TanimotoCombo>
0.641 

> <ROCS_ShapeTanimoto>
0.225 

> <ROCS_ColorTanimoto>
0.415 

> <ROCS_RefTversky>
0.208 

> <ROCS_RefColorTversky>
0.486 

> <ROCS_RefTverskyCombo>
0.694 

> <ROCS_FitTversky>
1.556 

> <ROCS_FitColorTversky>
0.741 

> <ROCS_FitTverskyCombo>
2.297 

> <ROCS_ColorScore>
-3.816

> <ROCS_Overlap>
2138.688

> <ROCS_Rank>
211                 

$$$$
untitled-dbase-1131317_1
  -OEChem-02092421083D

 42 45  0     0  0  0  0  0  0999 V2000
    8.5582   12.6213   24.3980 C   0  0  0  0  0  0  0  0  0  0  0  0
   11.5310   13.1017   23.6442 C   0  0  0  0  0  0  0  0  0  0  0  0
   12.7572   13.3179   21.5515 C   0  0  0  0  0  0  0  0  0  0  0  0
    9.2790   10.3888   23.9205 C   0  0  0  0  0  0  0  0  0  0  0  0
    5.6907   11.4587   26.3386 C   0  0  0  0  0  0  0  0  0  0  0  0
    7.4952   12.0525   25.1180 C   0  0  0  0  0  0  0  0  0  0  0  0
    9.4667   11.7581   23.7882 C   0  0  0  0  0  0  0  0  0  0  0  0
   10.5822   12.2807   23.0321 C   0  0  0  0  0  0  0  0  0  0  0  0
   11.8163   12.4952   20.9604 C   0  0  0  0  0  0  0  0  0  0  0  0
   12.6124   13.6160   22.9091 C   0  0  0  0  0  0  0  0  0  0  0  0
    6.3907   12.5459   25.8617 C   0  0  0  0  0  0  0  0  0  0  0  0
   10.7527   11.9893   21.6927 C   0  0  0  0  0  0  0  0  0  0  0  0
    7.4274   10.6633   25.1695 C   0  0  0  0  0  0  0  0  0  0  0  0
   13.2506   15.9690   23.5287 C   0  0  0  0  0  0  0  0  0  0  0  0
   11.6868   12.0702   19.5497 C   0  0  0  0  0  0  0  0  0  0  0  0
   10.6363   10.9726   19.7251 C   0  0  0  0  0  0  0  0  0  0  0  0
    6.0453   13.9636   26.0879 C   0  0  0  0  0  0  0  0  0  0  0  0
   14.0358   18.1146   24.1459 C   0  0  0  0  0  0  0  0  0  0  0  0
   13.6108   14.4975   23.5826 C   0  0  0  0  0  0  0  0  0  0  0  0
    8.2759    9.7862   24.6004 N   0  0  0  0  0  0  0  0  0  0  0  0
    6.3285   10.3223   25.9132 N   0  0  0  0  0  0  0  0  0  0  0  0
   12.2291   16.4225   23.0308 O   0  0  0  0  0  0  0  0  0  0  0  0
    9.9038   11.2074   20.9513 O   0  0  0  0  0  0  0  0  0  0  0  0
   14.2424   16.6985   24.1221 O   0  0  0  0  0  0  0  0  0  0  0  0
    8.6635   13.6997   24.3220 H   0  0  0  0  0  0  0  0  0  0  0  0
   11.4370   13.3535   24.6991 H   0  0  0  0  0  0  0  0  0  0  0  0
   13.5802   13.7254   20.9731 H   0  0  0  0  0  0  0  0  0  0  0  0
    9.9708    9.6891   23.4560 H   0  0  0  0  0  0  0  0  0  0  0  0
    4.7962   11.3905   26.9425 H   0  0  0  0  0  0  0  0  0  0  0  0
   11.3008   12.8935   18.9402 H   0  0  0  0  0  0  0  0  0  0  0  0
   12.6122   11.6828   19.1163 H   0  0  0  0  0  0  0  0  0  0  0  0
    9.9356   10.9477   18.8841 H   0  0  0  0  0  0  0  0  0  0  0  0
   11.1074    9.9843   19.8023 H   0  0  0  0  0  0  0  0  0  0  0  0
    6.5271   14.3485   27.0013 H   0  0  0  0  0  0  0  0  0  0  0  0
    6.3595   14.6048   25.2470 H   0  0  0  0  0  0  0  0  0  0  0  0
    4.9571   14.1118   26.1945 H   0  0  0  0  0  0  0  0  0  0  0  0
   14.8822   18.5989   24.6392 H   0  0  0  0  0  0  0  0  0  0  0  0
   13.1104   18.3398   24.6819 H   0  0  0  0  0  0  0  0  0  0  0  0
   13.9579   18.4798   23.1191 H   0  0  0  0  0  0  0  0  0  0  0  0
   13.7155   14.2119   24.6412 H   0  0  0  0  0  0  0  0  0  0  0  0
   14.6011   14.3727   23.1169 H   0  0  0  0  0  0  0  0  0  0  0  0
    6.0341    9.3773   26.1167 H   0  0  0  0  0  0  0  0  0  0  0  0
  1  6  1  0  0  0  0
  1  7  2  0  0  0  0
  2  8  1  0  0  0  0
  2 10  2  0  0  0  0
  3  9  2  0  0  0  0
  3 10  1  0  0  0  0
  4  7  1  0  0  0  0
  4 20  2  0  0  0  0
  5 11  2  0  0  0  0
  5 21  1  0  0  0  0
  6 11  1  0  0  0  0
  6 13  2  0  0  0  0
  7  8  1  0  0  0  0
  8 12  2  0  0  0  0
  9 12  1  0  0  0  0
  9 15  1  0  0  0  0
 10 19  1  0  0  0  0
 11 17  1  0  0  0  0
 12 23  1  0  0  0  0
 13 20  1  0  0  0  0
 13 21  1  0  0  0  0
 14 19  1  0  0  0  0
 14 22  2  0  0  0  0
 14 24  1  0  0  0  0
 15 16  1  0  0  0  0
 16 23  1  0  0  0  0
 18 24  1  0  0  0  0
  1 25  1  0  0  0  0
  2 26  1  0  0  0  0
  3 27  1  0  0  0  0
  4 28  1  0  0  0  0
  5 29  1  0  0  0  0
 15 30  1  0  0  0  0
 15 31  1  0  0  0  0
 16 32  1  0  0  0  0
 16 33  1  0  0  0  0
 17 34  1  0  0  0  0
 17 35  1  0  0  0  0
 17 36  1  0  0  0  0
 18 37  1  0  0  0  0
 18 38  1  0  0  0  0
 18 39  1  0  0  0  0
 19 40  1  0  0  0  0
 19 41  1  0  0  0  0
 21 42  1  0  0  0  0
M  END
> <idnumber>
Z5615201675

> <heavy_atoms>
24

> <LogS>
-4.737

> <LogP>
3.394

> <rotating_bonds>
4

> <PSA>
64.21

> <hb_acceptors>
3

> <hb_donors>
1

> <Collection>
Advanced

> <link>
https://www.enaminestore.com/catalog/Z5615201675

> <ROCS_ShapeQuery>
_x1140_x0812_0A_x1140_0A_x1097_0A_x0365_0A_x1097_0A_x0310_0A

> <ROCS_TanimotoCombo>
0.640 

> <ROCS_ShapeTanimoto>
0.267 

> <ROCS_ColorTanimoto>
0.374 

> <ROCS_RefTversky>
0.243 

> <ROCS_RefColorTversky>
0.545 

> <ROCS_RefTverskyCombo>
0.789 

> <ROCS_FitTversky>
1.559 

> <ROCS_FitColorTversky>
0.543 

> <ROCS_FitTverskyCombo>
2.102 

> <ROCS_ColorScore>
-4.364

> <ROCS_Overlap>
2501.236

> <ROCS_Rank>
212                 

$$$$
untitled-dbase-700804_31
  -OEChem-02092421083D

 44 46  0     0  0  0  0  0  0999 V2000
    5.9606   12.9704   26.5931 C   0  0  0  0  0  0  0  0  0  0  0  0
    5.3430   11.7406   26.3948 C   0  0  0  0  0  0  0  0  0  0  0  0
    7.2448   13.1809   26.1010 C   0  0  0  0  0  0  0  0  0  0  0  0
   10.2872   14.0148   26.2783 C   0  0  0  0  0  0  0  0  0  0  0  0
   10.3919   14.1937   23.8712 C   0  0  0  0  0  0  0  0  0  0  0  0
   11.0324   15.1878   26.3980 C   0  0  0  0  0  0  0  0  0  0  0  0
   11.1370   15.3668   23.9908 C   0  0  0  0  0  0  0  0  0  0  0  0
    6.0103   10.7242   25.7049 C   0  0  0  0  0  0  0  0  0  0  0  0
    7.9092   12.1539   25.4083 C   0  0  0  0  0  0  0  0  0  0  0  0
    9.9670   13.5177   25.0150 C   0  0  0  0  0  0  0  0  0  0  0  0
   11.4572   15.8639   25.2542 C   0  0  0  0  0  0  0  0  0  0  0  0
    7.2959   10.9075   25.2014 C   0  0  0  0  0  0  0  0  0  0  0  0
    9.1933   12.2993   24.8908 C   0  0  0  0  0  0  0  0  0  0  0  0
    9.1644   10.1834   24.0877 C   0  0  0  0  0  0  0  0  0  0  0  0
   12.2541   17.1180   25.3821 C   0  0  0  0  0  0  0  0  0  0  0  0
   11.2682    8.0329   21.8360 C   0  0  0  0  0  0  0  0  0  0  0  0
   11.9622   10.1761   22.9301 C   0  0  0  0  0  0  0  0  0  0  0  0
   10.1084   10.1621   21.2035 C   0  0  0  0  0  0  0  0  0  0  0  0
   10.7756    9.3904   22.3555 C   0  0  0  0  0  0  0  0  0  0  0  0
    7.9220    9.9184   24.5401 N   0  0  0  0  0  0  0  0  0  0  0  0
    9.8490   11.3304   24.2244 N   0  0  0  0  0  0  0  0  0  0  0  0
    9.8010    9.1635   23.4096 N   0  0  0  0  0  0  0  0  0  0  0  0
   10.0573   11.5591   21.4703 O   0  0  0  0  0  0  0  0  0  0  0  0
    5.4448   13.7603   27.1307 H   0  0  0  0  0  0  0  0  0  0  0  0
    4.3411   11.5671   26.7759 H   0  0  0  0  0  0  0  0  0  0  0  0
    7.7078   14.1498   26.2698 H   0  0  0  0  0  0  0  0  0  0  0  0
    9.9639   13.4989   27.1794 H   0  0  0  0  0  0  0  0  0  0  0  0
   10.1497   13.8192   22.8795 H   0  0  0  0  0  0  0  0  0  0  0  0
   11.2782   15.5673   27.3862 H   0  0  0  0  0  0  0  0  0  0  0  0
   11.4635   15.8874   23.0944 H   0  0  0  0  0  0  0  0  0  0  0  0
    5.5047    9.7709   25.5627 H   0  0  0  0  0  0  0  0  0  0  0  0
   13.3262   16.8880   25.4115 H   0  0  0  0  0  0  0  0  0  0  0  0
   12.0669   17.7967   24.5399 H   0  0  0  0  0  0  0  0  0  0  0  0
   11.9906   17.6660   26.2962 H   0  0  0  0  0  0  0  0  0  0  0  0
   10.4447    7.4437   21.4175 H   0  0  0  0  0  0  0  0  0  0  0  0
   12.0246    8.1597   21.0527 H   0  0  0  0  0  0  0  0  0  0  0  0
   11.7289    7.4452   22.6386 H   0  0  0  0  0  0  0  0  0  0  0  0
   11.6517   11.1549   23.3129 H   0  0  0  0  0  0  0  0  0  0  0  0
   12.7345   10.3398   22.1705 H   0  0  0  0  0  0  0  0  0  0  0  0
   12.4218    9.6376   23.7672 H   0  0  0  0  0  0  0  0  0  0  0  0
   10.6679   10.0293   20.2711 H   0  0  0  0  0  0  0  0  0  0  0  0
    9.0835    9.8145   21.0301 H   0  0  0  0  0  0  0  0  0  0  0  0
    9.5854    8.2069   23.6492 H   0  0  0  0  0  0  0  0  0  0  0  0
    9.6270   11.9729   20.7053 H   0  0  0  0  0  0  0  0  0  0  0  0
  1  2  1  0  0  0  0
  1  3  2  0  0  0  0
  2  8  2  0  0  0  0
  3  9  1  0  0  0  0
  4  6  2  0  0  0  0
  4 10  1  0  0  0  0
  5  7  1  0  0  0  0
  5 10  2  0  0  0  0
  6 11  1  0  0  0  0
  7 11  2  0  0  0  0
  8 12  1  0  0  0  0
  9 12  1  0  0  0  0
  9 13  2  0  0  0  0
 10 13  1  0  0  0  0
 11 15  1  0  0  0  0
 12 20  2  0  0  0  0
 13 21  1  0  0  0  0
 14 20  1  0  0  0  0
 14 21  2  0  0  0  0
 14 22  1  0  0  0  0
 16 19  1  0  0  0  0
 17 19  1  0  0  0  0
 18 19  1  0  0  0  0
 18 23  1  0  0  0  0
 19 22  1  0  0  0  0
  1 24  1  0  0  0  0
  2 25  1  0  0  0  0
  3 26  1  0  0  0  0
  4 27  1  0  0  0  0
  5 28  1  0  0  0  0
  6 29  1  0  0  0  0
  7 30  1  0  0  0  0
  8 31  1  0  0  0  0
 15 32  1  0  0  0  0
 15 33  1  0  0  0  0
 15 34  1  0  0  0  0
 16 35  1  0  0  0  0
 16 36  1  0  0  0  0
 16 37  1  0  0  0  0
 17 38  1  0  0  0  0
 17 39  1  0  0  0  0
 17 40  1  0  0  0  0
 18 41  1  0  0  0  0
 18 42  1  0  0  0  0
 22 43  1  0  0  0  0
 23 44  1  0  0  0  0
M  END
> <idnumber>
Z314599450

> <heavy_atoms>
23

> <LogS>
-5.57

> <LogP>
4.424

> <rotating_bonds>
4

> <PSA>
58.04

> <hb_acceptors>
4

> <hb_donors>
2

> <Collection>
HTS

> <link>
https://www.enaminestore.com/catalog/Z314599450

> <ROCS_ShapeQuery>
_x1140_x0812_0A_x1140_0A_x1097_0A_x0365_0A_x1097_0A_x0310_0A

> <ROCS_TanimotoCombo>
0.640 

> <ROCS_ShapeTanimoto>
0.259 

> <ROCS_ColorTanimoto>
0.381 

> <ROCS_RefTversky>
0.237 

> <ROCS_RefColorTversky>
0.583 

> <ROCS_RefTverskyCombo>
0.820 

> <ROCS_FitTversky>
1.581 

> <ROCS_FitColorTversky>
0.524 

> <ROCS_FitTverskyCombo>
2.104 

> <ROCS_ColorScore>
-4.693

> <ROCS_Overlap>
2431.902

> <ROCS_Rank>
213                 

$$$$
untitled-dbase-989241_6
  -OEChem-02092421083D

 34 36  0     1  0  0  0  0  0999 V2000
   14.0856   15.2531   22.0734 C   0  0  0  0  0  0  0  0  0  0  0  0
    6.4579   12.5730   25.7471 C   0  0  0  0  0  0  0  0  0  0  0  0
   13.3917   16.4742   22.1692 C   0  0  0  0  0  0  0  0  0  0  0  0
   13.3088   14.3611   22.7716 C   0  0  0  0  0  0  0  0  0  0  0  0
    5.7407   11.5354   26.3038 C   0  0  0  0  0  0  0  0  0  0  0  0
    7.5095   12.0038   24.9842 C   0  0  0  0  0  0  0  0  0  0  0  0
    7.3951   10.6241   25.1029 C   0  0  0  0  0  0  0  0  0  0  0  0
    8.5580   12.4785   24.1976 C   0  0  0  0  0  0  0  0  0  0  0  0
    9.1634   10.2825   23.8047 C   0  0  0  0  0  0  0  0  0  0  0  0
    7.8675   14.8189   24.6511 C   0  0  0  0  0  0  0  0  0  0  0  0
   11.1292   14.5589   24.0223 C   0  0  0  0  0  0  0  0  0  0  0  0
    9.8556   14.3497   23.2103 C   0  0  0  0  0  0  0  0  0  0  0  0
   12.2610   16.3710   22.8726 N   0  0  0  0  0  0  0  0  0  0  0  0
    8.1919    9.7007   24.5370 N   0  0  0  0  0  0  0  0  0  0  0  0
    9.3953   11.5989   23.6008 N   0  0  0  0  0  0  0  0  0  0  0  0
    6.3179   10.3569   25.9054 N   0  0  0  0  0  0  0  0  0  0  0  0
   12.2384   15.0743   23.2252 N   0  0  0  0  0  0  0  0  0  0  0  0
   10.0603    9.3974   23.1644 N   0  0  0  0  0  0  0  0  0  0  0  0
    8.7544   13.8598   24.0188 N   0  0  3  0  0  0  0  0  0  0  0  0
   15.0182   15.0488   21.5690 H   0  0  0  0  0  0  0  0  0  0  0  0
    6.2416   13.6241   25.8809 H   0  0  0  0  0  0  0  0  0  0  0  0
   13.6641   17.4342   21.7545 H   0  0  0  0  0  0  0  0  0  0  0  0
   13.4261   13.3064   22.9786 H   0  0  0  0  0  0  0  0  0  0  0  0
    4.8716   11.5317   26.9466 H   0  0  0  0  0  0  0  0  0  0  0  0
    8.1853   15.8395   24.3914 H   0  0  0  0  0  0  0  0  0  0  0  0
    6.8386   14.6545   24.2986 H   0  0  0  0  0  0  0  0  0  0  0  0
    7.9062   14.6896   25.7428 H   0  0  0  0  0  0  0  0  0  0  0  0
   10.9495   15.2826   24.8263 H   0  0  0  0  0  0  0  0  0  0  0  0
   11.4567   13.6250   24.4946 H   0  0  0  0  0  0  0  0  0  0  0  0
    9.5302   15.2990   22.7738 H   0  0  0  0  0  0  0  0  0  0  0  0
   10.0107   13.6330   22.3975 H   0  0  0  0  0  0  0  0  0  0  0  0
    5.9981    9.4337   26.1637 H   0  0  0  0  0  0  0  0  0  0  0  0
    9.9653    8.4155   23.3183 H   0  0  0  0  0  0  0  0  0  0  0  0
   10.8271    9.7744   22.6477 H   0  0  0  0  0  0  0  0  0  0  0  0
  1  3  1  0  0  0  0
  1  4  2  0  0  0  0
  2  5  2  0  0  0  0
  2  6  1  0  0  0  0
  3 13  2  0  0  0  0
  4 17  1  0  0  0  0
  5 16  1  0  0  0  0
  6  7  1  0  0  0  0
  6  8  2  0  0  0  0
  7 14  2  0  0  0  0
  7 16  1  0  0  0  0
  8 15  1  0  0  0  0
  8 19  1  0  0  0  0
  9 14  1  0  0  0  0
  9 15  2  0  0  0  0
  9 18  1  0  0  0  0
 10 19  1  0  0  0  0
 11 12  1  0  0  0  0
 11 17  1  0  0  0  0
 12 19  1  0  0  0  0
 13 17  1  0  0  0  0
  1 20  1  0  0  0  0
  2 21  1  0  0  0  0
  3 22  1  0  0  0  0
  4 23  1  0  0  0  0
  5 24  1  0  0  0  0
 10 25  1  0  0  0  0
 10 26  1  0  0  0  0
 10 27  1  0  0  0  0
 11 28  1  0  0  0  0
 11 29  1  0  0  0  0
 12 30  1  0  0  0  0
 12 31  1  0  0  0  0
 16 32  1  0  0  0  0
 18 33  1  0  0  0  0
 18 34  1  0  0  0  0
M  END
> <idnumber>
Z2979016735

> <heavy_atoms>
19

> <LogS>
-2.789

> <LogP>
1.51

> <rotating_bonds>
4

> <PSA>
88.65

> <hb_acceptors>
5

> <hb_donors>
2

> <Collection>
Advanced

> <link>
https://www.enaminestore.com/catalog/Z2979016735

> <ROCS_ShapeQuery>
_x1140_x0812_0A_x1140_0A_x1097_0A_x0365_0A_x1097_0A_x0310_0A

> <ROCS_TanimotoCombo>
0.640 

> <ROCS_ShapeTanimoto>
0.255 

> <ROCS_ColorTanimoto>
0.385 

> <ROCS_RefTversky>
0.231 

> <ROCS_RefColorTversky>
0.588 

> <ROCS_RefTverskyCombo>
0.819 

> <ROCS_FitTversky>
1.711 

> <ROCS_FitColorTversky>
0.527 

> <ROCS_FitTverskyCombo>
2.238 

> <ROCS_ColorScore>
-4.738

> <ROCS_Overlap>
2368.130

> <ROCS_Rank>
214                 

$$$$
untitled-dbase-145061_6
  -OEChem-02092421083D

 39 40  0     0  0  0  0  0  0999 V2000
    8.6767   12.5774   24.6975 C   0  0  0  0  0  0  0  0  0  0  0  0
    7.6862   11.9869   25.4743 C   0  0  0  0  0  0  0  0  0  0  0  0
   14.2144   13.0721   20.7229 C   0  0  0  0  0  0  0  0  0  0  0  0
   12.6833   14.7362   19.8725 C   0  0  0  0  0  0  0  0  0  0  0  0
    8.9737   10.4956   23.5864 C   0  0  0  0  0  0  0  0  0  0  0  0
   11.8376   12.8184   21.0740 C   0  0  0  0  0  0  0  0  0  0  0  0
   13.9859   14.2661   20.0389 C   0  0  0  0  0  0  0  0  0  0  0  0
   13.1402   12.3482   21.2404 C   0  0  0  0  0  0  0  0  0  0  0  0
   11.6091   14.0124   20.3901 C   0  0  0  0  0  0  0  0  0  0  0  0
    9.3375   11.8245   23.7333 C   0  0  0  0  0  0  0  0  0  0  0  0
    7.3962   10.6508   25.2494 C   0  0  0  0  0  0  0  0  0  0  0  0
   10.7139   12.0611   21.6158 C   0  0  0  0  0  0  0  0  0  0  0  0
   15.1346   15.0389   19.4847 C   0  0  0  0  0  0  0  0  0  0  0  0
   13.4163   11.0730   21.9683 C   0  0  0  0  0  0  0  0  0  0  0  0
   10.2249   14.5407   20.1944 C   0  0  0  0  0  0  0  0  0  0  0  0
    6.1139   10.4903   27.3838 C   0  0  0  0  0  0  0  0  0  0  0  0
    8.0166    9.8872   24.3222 N   0  0  0  0  0  0  0  0  0  0  0  0
   10.3525   12.3987   22.9271 N   0  0  0  0  0  0  0  0  0  0  0  0
    6.3854   10.0631   26.0501 N   0  0  0  0  0  0  0  0  0  0  0  0
   10.1605   11.1694   20.9624 O   0  0  0  0  0  0  0  0  0  0  0  0
    8.9261   13.6237   24.8525 H   0  0  0  0  0  0  0  0  0  0  0  0
    7.1641   12.5675   26.2282 H   0  0  0  0  0  0  0  0  0  0  0  0
   15.2306   12.7064   20.8510 H   0  0  0  0  0  0  0  0  0  0  0  0
   12.5062   15.6681   19.3406 H   0  0  0  0  0  0  0  0  0  0  0  0
    9.4540    9.8565   22.8516 H   0  0  0  0  0  0  0  0  0  0  0  0
   15.3529   14.7162   18.4592 H   0  0  0  0  0  0  0  0  0  0  0  0
   14.9218   16.1158   19.4726 H   0  0  0  0  0  0  0  0  0  0  0  0
   16.0383   14.9007   20.0927 H   0  0  0  0  0  0  0  0  0  0  0  0
   13.5613   11.2698   23.0366 H   0  0  0  0  0  0  0  0  0  0  0  0
   12.5879   10.3636   21.8522 H   0  0  0  0  0  0  0  0  0  0  0  0
   14.3156   10.5811   21.5777 H   0  0  0  0  0  0  0  0  0  0  0  0
    9.7998   14.1534   19.2616 H   0  0  0  0  0  0  0  0  0  0  0  0
    9.5700   14.2510   21.0249 H   0  0  0  0  0  0  0  0  0  0  0  0
   10.2224   15.6367   20.1522 H   0  0  0  0  0  0  0  0  0  0  0  0
    6.7951   11.3113   27.6522 H   0  0  0  0  0  0  0  0  0  0  0  0
    5.0733   10.8403   27.4519 H   0  0  0  0  0  0  0  0  0  0  0  0
    6.2638    9.6486   28.0760 H   0  0  0  0  0  0  0  0  0  0  0  0
   10.8862   13.1514   23.3547 H   0  0  0  0  0  0  0  0  0  0  0  0
    5.8603    9.3209   25.6347 H   0  0  0  0  0  0  0  0  0  0  0  0
  1  2  2  0  0  0  0
  1 10  1  0  0  0  0
  2 11  1  0  0  0  0
  3  7  1  0  0  0  0
  3  8  2  0  0  0  0
  4  7  2  0  0  0  0
  4  9  1  0  0  0  0
  5 10  2  0  0  0  0
  5 17  1  0  0  0  0
  6  8  1  0  0  0  0
  6  9  2  0  0  0  0
  6 12  1  0  0  0  0
  7 13  1  0  0  0  0
  8 14  1  0  0  0  0
  9 15  1  0  0  0  0
 10 18  1  0  0  0  0
 11 17  2  0  0  0  0
 11 19  1  0  0  0  0
 12 18  1  0  0  0  0
 12 20  2  0  0  0  0
 16 19  1  0  0  0  0
  1 21  1  0  0  0  0
  2 22  1  0  0  0  0
  3 23  1  0  0  0  0
  4 24  1  0  0  0  0
  5 25  1  0  0  0  0
 13 26  1  0  0  0  0
 13 27  1  0  0  0  0
 13 28  1  0  0  0  0
 14 29  1  0  0  0  0
 14 30  1  0  0  0  0
 14 31  1  0  0  0  0
 15 32  1  0  0  0  0
 15 33  1  0  0  0  0
 15 34  1  0  0  0  0
 16 35  1  0  0  0  0
 16 36  1  0  0  0  0
 16 37  1  0  0  0  0
 18 38  1  0  0  0  0
 19 39  1  0  0  0  0
M  END
> <idnumber>
Z2394919511

> <heavy_atoms>
20

> <LogS>
-4.284

> <LogP>
3.269

> <rotating_bonds>
3

> <PSA>
54.02

> <hb_acceptors>
3

> <hb_donors>
2

> <Collection>
Advanced

> <link>
https://www.enaminestore.com/catalog/Z2394919511

> <ROCS_ShapeQuery>
_x1140_x0812_0A_x1140_0A_x1097_0A_x0365_0A_x1097_0A_x0310_0A

> <ROCS_TanimotoCombo>
0.640 

> <ROCS_ShapeTanimoto>
0.209 

> <ROCS_ColorTanimoto>
0.431 

> <ROCS_RefTversky>
0.196 

> <ROCS_RefColorTversky>
0.534 

> <ROCS_RefTverskyCombo>
0.730 

> <ROCS_FitTversky>
1.455 

> <ROCS_FitColorTversky>
0.691 

> <ROCS_FitTverskyCombo>
2.146 

> <ROCS_ColorScore>
-4.216

> <ROCS_Overlap>
2016.283

> <ROCS_Rank>
215                 

$$$$
untitled-dbase-888453_46
  -OEChem-02092421083D

 29 30  0     0  0  0  0  0  0999 V2000
    8.7178   12.3017   24.5018 C   0  0  0  0  0  0  0  0  0  0  0  0
    7.4740   10.5355   25.4969 C   0  0  0  0  0  0  0  0  0  0  0  0
   13.5161   16.1031   23.2748 C   0  0  0  0  0  0  0  0  0  0  0  0
    9.2678   11.3772   23.6208 C   0  0  0  0  0  0  0  0  0  0  0  0
    7.8030   11.8809   25.4607 C   0  0  0  0  0  0  0  0  0  0  0  0
   11.8103   15.4843   22.2116 C   0  0  0  0  0  0  0  0  0  0  0  0
   12.5215   14.3572   22.5409 C   0  0  0  0  0  0  0  0  0  0  0  0
    8.8734   10.0542   23.7395 C   0  0  0  0  0  0  0  0  0  0  0  0
   10.2244   11.8287   22.6206 C   0  0  0  0  0  0  0  0  0  0  0  0
   10.5461   15.5964   21.4707 C   0  0  0  0  0  0  0  0  0  0  0  0
   12.3407   12.8846   22.3163 C   0  0  0  0  0  0  0  0  0  0  0  0
    7.1957   12.8450   26.4167 C   0  0  0  0  0  0  0  0  0  0  0  0
    7.9874    9.6080   24.6580 N   0  0  0  0  0  0  0  0  0  0  0  0
   12.4525   16.5999   22.6848 N   0  0  0  0  0  0  0  0  0  0  0  0
   10.0647   11.7140   21.3990 O   0  0  0  0  0  0  0  0  0  0  0  0
   13.6295   14.7473   23.2306 O   0  0  0  0  0  0  0  0  0  0  0  0
   11.3246   12.3983   23.1999 O   0  0  0  0  0  0  0  0  0  0  0  0
    7.6239   14.1329   26.2481 F   0  0  0  0  0  0  0  0  0  0  0  0
    5.8322   12.9140   26.3379 F   0  0  0  0  0  0  0  0  0  0  0  0
    7.4685   12.5403   27.7205 F   0  0  0  0  0  0  0  0  0  0  0  0
    9.4804    8.8143   22.7118 Cl  0  0  0  0  0  0  0  0  0  0  0  0
    8.9984   13.3508   24.4428 H   0  0  0  0  0  0  0  0  0  0  0  0
    6.7666   10.1483   26.2239 H   0  0  0  0  0  0  0  0  0  0  0  0
   14.3031   16.6367   23.7865 H   0  0  0  0  0  0  0  0  0  0  0  0
    9.6754   15.5547   22.1492 H   0  0  0  0  0  0  0  0  0  0  0  0
   10.4752   16.5416   20.9011 H   0  0  0  0  0  0  0  0  0  0  0  0
   10.4226   14.7883   20.7257 H   0  0  0  0  0  0  0  0  0  0  0  0
   12.0430   12.6797   21.2824 H   0  0  0  0  0  0  0  0  0  0  0  0
   13.2741   12.3453   22.5108 H   0  0  0  0  0  0  0  0  0  0  0  0
  1  4  1  0  0  0  0
  1  5  2  0  0  0  0
  2  5  1  0  0  0  0
  2 13  2  0  0  0  0
  3 14  2  0  0  0  0
  3 16  1  0  0  0  0
  4  8  2  0  0  0  0
  4  9  1  0  0  0  0
  5 12  1  0  0  0  0
  6  7  2  0  0  0  0
  6 10  1  0  0  0  0
  6 14  1  0  0  0  0
  7 11  1  0  0  0  0
  7 16  1  0  0  0  0
  8 13  1  0  0  0  0
  8 21  1  0  0  0  0
  9 15  2  0  0  0  0
  9 17  1  0  0  0  0
 11 17  1  0  0  0  0
 12 18  1  0  0  0  0
 12 19  1  0  0  0  0
 12 20  1  0  0  0  0
  1 22  1  0  0  0  0
  2 23  1  0  0  0  0
  3 24  1  0  0  0  0
 10 25  1  0  0  0  0
 10 26  1  0  0  0  0
 10 27  1  0  0  0  0
 11 28  1  0  0  0  0
 11 29  1  0  0  0  0
M  END
> <idnumber>
Z2322237538

> <heavy_atoms>
21

> <LogS>
-3.653

> <LogP>
1.711

> <rotating_bonds>
5

> <PSA>
65.22

> <hb_acceptors>
3

> <hb_donors>
0

> <Collection>
Functional

> <link>
https://www.enaminestore.com/catalog/Z2322237538

> <ROCS_ShapeQuery>
_x1140_x0812_0A_x1140_0A_x1097_0A_x0365_0A_x1097_0A_x0310_0A

> <ROCS_TanimotoCombo>
0.640 

> <ROCS_ShapeTanimoto>
0.264 

> <ROCS_ColorTanimoto>
0.376 

> <ROCS_RefTversky>
0.238 

> <ROCS_RefColorTversky>
0.452 

> <ROCS_RefTverskyCombo>
0.691 

> <ROCS_FitTversky>
1.695 

> <ROCS_FitColorTversky>
0.690 

> <ROCS_FitTverskyCombo>
2.384 

> <ROCS_ColorScore>
-3.551

> <ROCS_Overlap>
2447.939

> <ROCS_Rank>
216                 

$$$$
untitled-dbase-1009043_19
  -OEChem-02092421083D

 33 33  0     0  0  0  0  0  0999 V2000
    8.4458   12.6478   24.3046 C   0  0  0  0  0  0  0  0  0  0  0  0
    7.4493   12.0488   25.0672 C   0  0  0  0  0  0  0  0  0  0  0  0
    9.1988   10.4798   23.6803 C   0  0  0  0  0  0  0  0  0  0  0  0
    9.3413   11.8554   23.5950 C   0  0  0  0  0  0  0  0  0  0  0  0
    7.3913   10.6646   25.0865 C   0  0  0  0  0  0  0  0  0  0  0  0
   10.6369   13.7901   22.6280 C   0  0  0  0  0  0  0  0  0  0  0  0
   11.5702   13.4294   20.3137 C   0  0  0  0  0  0  0  0  0  0  0  0
   13.1268   13.4422   22.2971 C   0  0  0  0  0  0  0  0  0  0  0  0
    5.8504   10.6798   27.0488 C   0  0  0  0  0  0  0  0  0  0  0  0
   12.0446   15.5734   21.4974 C   0  0  0  0  0  0  0  0  0  0  0  0
   11.8487   14.0511   21.6936 C   0  0  0  0  0  0  0  0  0  0  0  0
    8.2435    9.8618   24.4104 N   0  0  0  0  0  0  0  0  0  0  0  0
   10.3674   12.4368   22.8107 N   0  0  0  0  0  0  0  0  0  0  0  0
    6.3711   10.0693   25.8694 N   0  0  0  0  0  0  0  0  0  0  0  0
   10.0061   14.7221   23.1237 O   0  0  0  0  0  0  0  0  0  0  0  0
   12.3023   16.2178   22.7399 O   0  0  0  0  0  0  0  0  0  0  0  0
    8.5160   13.7317   24.2714 H   0  0  0  0  0  0  0  0  0  0  0  0
    6.7450   12.6596   25.6230 H   0  0  0  0  0  0  0  0  0  0  0  0
    9.8678    9.8088   23.1501 H   0  0  0  0  0  0  0  0  0  0  0  0
   12.3987   13.5867   19.6149 H   0  0  0  0  0  0  0  0  0  0  0  0
   11.4161   12.3473   20.3958 H   0  0  0  0  0  0  0  0  0  0  0  0
   10.6739   13.8647   19.8574 H   0  0  0  0  0  0  0  0  0  0  0  0
   14.0020   13.6095   21.6602 H   0  0  0  0  0  0  0  0  0  0  0  0
   13.3501   13.8855   23.2740 H   0  0  0  0  0  0  0  0  0  0  0  0
   13.0281   12.3589   22.4299 H   0  0  0  0  0  0  0  0  0  0  0  0
    6.3593   11.6397   27.2208 H   0  0  0  0  0  0  0  0  0  0  0  0
    4.7713   10.8540   26.9255 H   0  0  0  0  0  0  0  0  0  0  0  0
    6.0186   10.0163   27.9099 H   0  0  0  0  0  0  0  0  0  0  0  0
   12.8979   15.7717   20.8389 H   0  0  0  0  0  0  0  0  0  0  0  0
   11.1564   16.0338   21.0498 H   0  0  0  0  0  0  0  0  0  0  0  0
   10.9800   11.7886   22.3232 H   0  0  0  0  0  0  0  0  0  0  0  0
    6.0247    9.1855   25.5562 H   0  0  0  0  0  0  0  0  0  0  0  0
   11.5319   16.0498   23.3055 H   0  0  0  0  0  0  0  0  0  0  0  0
  1  2  2  0  0  0  0
  1  4  1  0  0  0  0
  2  5  1  0  0  0  0
  3  4  2  0  0  0  0
  3 12  1  0  0  0  0
  4 13  1  0  0  0  0
  5 12  2  0  0  0  0
  5 14  1  0  0  0  0
  6 11  1  0  0  0  0
  6 13  1  0  0  0  0
  6 15  2  0  0  0  0
  7 11  1  0  0  0  0
  8 11  1  0  0  0  0
  9 14  1  0  0  0  0
 10 11  1  0  0  0  0
 10 16  1  0  0  0  0
  1 17  1  0  0  0  0
  2 18  1  0  0  0  0
  3 19  1  0  0  0  0
  7 20  1  0  0  0  0
  7 21  1  0  0  0  0
  7 22  1  0  0  0  0
  8 23  1  0  0  0  0
  8 24  1  0  0  0  0
  8 25  1  0  0  0  0
  9 26  1  0  0  0  0
  9 27  1  0  0  0  0
  9 28  1  0  0  0  0
 10 29  1  0  0  0  0
 10 30  1  0  0  0  0
 13 31  1  0  0  0  0
 14 32  1  0  0  0  0
 16 33  1  0  0  0  0
M  END
> <idnumber>
Z3091717388

> <heavy_atoms>
16

> <LogS>
-1.117

> <LogP>
1.032

> <rotating_bonds>
4

> <PSA>
74.25

> <hb_acceptors>
4

> <hb_donors>
3

> <Collection>
HTS

> <link>
https://www.enaminestore.com/catalog/Z3091717388

> <ROCS_ShapeQuery>
_x1140_x0812_0A_x1140_0A_x1097_0A_x0365_0A_x1097_0A_x0310_0A

> <ROCS_TanimotoCombo>
0.640 

> <ROCS_ShapeTanimoto>
0.229 

> <ROCS_ColorTanimoto>
0.410 

> <ROCS_RefTversky>
0.208 

> <ROCS_RefColorTversky>
0.582 

> <ROCS_RefTverskyCombo>
0.790 

> <ROCS_FitTversky>
1.792 

> <ROCS_FitColorTversky>
0.582 

> <ROCS_FitTverskyCombo>
2.374 

> <ROCS_ColorScore>
-4.655

> <ROCS_Overlap>
2136.254

> <ROCS_Rank>
217                 

$$$$
untitled-dbase-288353_9
  -OEChem-02092421083D

 25 26  0     0  0  0  0  0  0999 V2000
   11.9159   15.3028   22.2952 C   0  0  0  0  0  0  0  0  0  0  0  0
    6.3101   12.1196   27.4556 C   0  0  0  0  0  0  0  0  0  0  0  0
    7.0890   12.6914   26.4538 C   0  0  0  0  0  0  0  0  0  0  0  0
    6.1502   10.7401   27.4966 C   0  0  0  0  0  0  0  0  0  0  0  0
    8.5009   12.4317   24.4686 C   0  0  0  0  0  0  0  0  0  0  0  0
    8.8895   10.2471   23.6459 C   0  0  0  0  0  0  0  0  0  0  0  0
    7.7114   11.8824   25.4879 C   0  0  0  0  0  0  0  0  0  0  0  0
    9.1020   11.6058   23.5297 C   0  0  0  0  0  0  0  0  0  0  0  0
    7.5533   10.4811   25.5233 C   0  0  0  0  0  0  0  0  0  0  0  0
    6.7691    9.9360   26.5363 C   0  0  0  0  0  0  0  0  0  0  0  0
    9.9245   12.1507   22.4642 C   0  0  0  0  0  0  0  0  0  0  0  0
   11.3929   14.0535   21.7452 C   0  0  0  0  0  0  0  0  0  0  0  0
   12.3333   16.2948   22.7288 N   0  0  0  0  0  0  0  0  0  0  0  0
    8.1355    9.6771   24.6136 N   0  0  0  0  0  0  0  0  0  0  0  0
   10.5616   13.3732   22.7122 N   0  0  0  0  0  0  0  0  0  0  0  0
   10.0300   11.5535   21.3770 O   0  0  0  0  0  0  0  0  0  0  0  0
    6.5970    8.6067   26.6006 F   0  0  0  0  0  0  0  0  0  0  0  0
    5.8308   12.7478   28.2001 H   0  0  0  0  0  0  0  0  0  0  0  0
    7.2077   13.7725   26.4309 H   0  0  0  0  0  0  0  0  0  0  0  0
    5.5443   10.2851   28.2746 H   0  0  0  0  0  0  0  0  0  0  0  0
    8.6454   13.5089   24.4096 H   0  0  0  0  0  0  0  0  0  0  0  0
    9.3301    9.5445   22.9449 H   0  0  0  0  0  0  0  0  0  0  0  0
   10.7826   14.2390   20.8567 H   0  0  0  0  0  0  0  0  0  0  0  0
   12.2043   13.3737   21.4703 H   0  0  0  0  0  0  0  0  0  0  0  0
   10.3923   13.8500   23.5918 H   0  0  0  0  0  0  0  0  0  0  0  0
  1 12  1  0  0  0  0
  1 13  3  0  0  0  0
  2  3  1  0  0  0  0
  2  4  2  0  0  0  0
  3  7  2  0  0  0  0
  4 10  1  0  0  0  0
  5  7  1  0  0  0  0
  5  8  2  0  0  0  0
  6  8  1  0  0  0  0
  6 14  2  0  0  0  0
  7  9  1  0  0  0  0
  8 11  1  0  0  0  0
  9 10  2  0  0  0  0
  9 14  1  0  0  0  0
 10 17  1  0  0  0  0
 11 15  1  0  0  0  0
 11 16  2  0  0  0  0
 12 15  1  0  0  0  0
  2 18  1  0  0  0  0
  3 19  1  0  0  0  0
  4 20  1  0  0  0  0
  5 21  1  0  0  0  0
  6 22  1  0  0  0  0
 12 23  1  0  0  0  0
 12 24  1  0  0  0  0
 15 25  1  0  0  0  0
M  END
> <idnumber>
Z2219592521

> <heavy_atoms>
17

> <LogS>
-2.938

> <LogP>
1.063

> <rotating_bonds>
2

> <PSA>
65.78

> <hb_acceptors>
3

> <hb_donors>
1

> <Collection>
Functional

> <link>
https://www.enaminestore.com/catalog/Z2219592521

> <ROCS_ShapeQuery>
_x1140_x0812_0A_x1140_0A_x1097_0A_x0365_0A_x1097_0A_x0310_0A

> <ROCS_TanimotoCombo>
0.640 

> <ROCS_ShapeTanimoto>
0.245 

> <ROCS_ColorTanimoto>
0.395 

> <ROCS_RefTversky>
0.221 

> <ROCS_RefColorTversky>
0.502 

> <ROCS_RefTverskyCombo>
0.723 

> <ROCS_FitTversky>
1.783 

> <ROCS_FitColorTversky>
0.650 

> <ROCS_FitTverskyCombo>
2.433 

> <ROCS_ColorScore>
-3.967

> <ROCS_Overlap>
2266.460

> <ROCS_Rank>
218                 

$$$$
untitled-dbase-147661_85
  -OEChem-02092421083D

 45 47  0     0  0  0  0  0  0999 V2000
    8.3288   14.1730   25.8194 C   0  0  0  0  0  0  0  0  0  0  0  0
    7.4645   13.3904   26.5748 C   0  0  0  0  0  0  0  0  0  0  0  0
    9.0310   13.5983   24.7639 C   0  0  0  0  0  0  0  0  0  0  0  0
    7.3042   12.0357   26.2733 C   0  0  0  0  0  0  0  0  0  0  0  0
    8.8696   12.2357   24.4607 C   0  0  0  0  0  0  0  0  0  0  0  0
    9.3826   10.2836   23.1299 C   0  0  0  0  0  0  0  0  0  0  0  0
   11.6218   14.7830   21.4439 C   0  0  0  0  0  0  0  0  0  0  0  0
    7.9935   11.4351   25.2234 C   0  0  0  0  0  0  0  0  0  0  0  0
    9.5639   11.6315   23.4039 C   0  0  0  0  0  0  0  0  0  0  0  0
    8.5047    9.5821   23.9310 C   0  0  0  0  0  0  0  0  0  0  0  0
   12.4902   15.1905   22.4713 C   0  0  0  0  0  0  0  0  0  0  0  0
   10.8500   15.8904   21.2114 C   0  0  0  0  0  0  0  0  0  0  0  0
   10.3870   12.5854   21.2227 C   0  0  0  0  0  0  0  0  0  0  0  0
    8.2629    8.1270   23.6934 C   0  0  0  0  0  0  0  0  0  0  0  0
   13.5483   14.4063   23.1301 C   0  0  0  0  0  0  0  0  0  0  0  0
    9.7490   16.1902   20.2867 C   0  0  0  0  0  0  0  0  0  0  0  0
   11.2756    8.7629   22.5050 C   0  0  0  0  0  0  0  0  0  0  0  0
   11.5515   13.4448   20.7561 C   0  0  0  0  0  0  0  0  0  0  0  0
   10.1069    9.6110   22.0114 C   0  0  0  0  0  0  0  0  0  0  0  0
    7.8156   10.1267   24.9599 N   0  0  0  0  0  0  0  0  0  0  0  0
   12.2734   16.4540   22.8473 N   0  0  0  0  0  0  0  0  0  0  0  0
   10.4499   12.3685   22.6049 N   0  0  0  0  0  0  0  0  0  0  0  0
    9.5335   12.1622   20.4497 O   0  0  0  0  0  0  0  0  0  0  0  0
   11.2293   16.8944   22.0429 O   0  0  0  0  0  0  0  0  0  0  0  0
    8.4572   15.2257   26.0520 H   0  0  0  0  0  0  0  0  0  0  0  0
    6.9121   13.8309   27.3997 H   0  0  0  0  0  0  0  0  0  0  0  0
    9.7014   14.2349   24.1914 H   0  0  0  0  0  0  0  0  0  0  0  0
    6.6216   11.4438   26.8806 H   0  0  0  0  0  0  0  0  0  0  0  0
    8.9716    7.5250   24.2734 H   0  0  0  0  0  0  0  0  0  0  0  0
    7.2437    7.8427   23.9823 H   0  0  0  0  0  0  0  0  0  0  0  0
    8.3763    7.8752   22.6318 H   0  0  0  0  0  0  0  0  0  0  0  0
   14.5140   14.5180   22.6077 H   0  0  0  0  0  0  0  0  0  0  0  0
   13.7016   14.7121   24.1805 H   0  0  0  0  0  0  0  0  0  0  0  0
   13.3102   13.3280   23.1615 H   0  0  0  0  0  0  0  0  0  0  0  0
    8.7679   15.9477   20.7336 H   0  0  0  0  0  0  0  0  0  0  0  0
    9.7228   17.2568   19.9948 H   0  0  0  0  0  0  0  0  0  0  0  0
    9.8283   15.6237   19.3399 H   0  0  0  0  0  0  0  0  0  0  0  0
   11.9837    9.3671   23.0824 H   0  0  0  0  0  0  0  0  0  0  0  0
   11.8159    8.3209   21.6620 H   0  0  0  0  0  0  0  0  0  0  0  0
   10.9261    7.9484   23.1486 H   0  0  0  0  0  0  0  0  0  0  0  0
   11.4674   13.5920   19.6718 H   0  0  0  0  0  0  0  0  0  0  0  0
   12.4860   12.8953   20.9261 H   0  0  0  0  0  0  0  0  0  0  0  0
    9.4165    8.9740   21.4365 H   0  0  0  0  0  0  0  0  0  0  0  0
   10.4811   10.3581   21.2937 H   0  0  0  0  0  0  0  0  0  0  0  0
   11.2396   12.8009   23.0917 H   0  0  0  0  0  0  0  0  0  0  0  0
  1  2  1  0  0  0  0
  1  3  2  0  0  0  0
  2  4  2  0  0  0  0
  3  5  1  0  0  0  0
  4  8  1  0  0  0  0
  5  8  2  0  0  0  0
  5  9  1  0  0  0  0
  6  9  2  0  0  0  0
  6 10  1  0  0  0  0
  6 19  1  0  0  0  0
  7 11  1  0  0  0  0
  7 12  2  0  0  0  0
  7 18  1  0  0  0  0
  8 20  1  0  0  0  0
  9 22  1  0  0  0  0
 10 14  1  0  0  0  0
 10 20  2  0  0  0  0
 11 15  1  0  0  0  0
 11 21  2  0  0  0  0
 12 16  1  0  0  0  0
 12 24  1  0  0  0  0
 13 18  1  0  0  0  0
 13 22  1  0  0  0  0
 13 23  2  0  0  0  0
 17 19  1  0  0  0  0
 21 24  1  0  0  0  0
  1 25  1  0  0  0  0
  2 26  1  0  0  0  0
  3 27  1  0  0  0  0
  4 28  1  0  0  0  0
 14 29  1  0  0  0  0
 14 30  1  0  0  0  0
 14 31  1  0  0  0  0
 15 32  1  0  0  0  0
 15 33  1  0  0  0  0
 15 34  1  0  0  0  0
 16 35  1  0  0  0  0
 16 36  1  0  0  0  0
 16 37  1  0  0  0  0
 17 38  1  0  0  0  0
 17 39  1  0  0  0  0
 17 40  1  0  0  0  0
 18 41  1  0  0  0  0
 18 42  1  0  0  0  0
 19 43  1  0  0  0  0
 19 44  1  0  0  0  0
 22 45  1  0  0  0  0
M  END
> <idnumber>
Z1779523179

> <heavy_atoms>
24

> <LogS>
-3.32

> <LogP>
2.438

> <rotating_bonds>
4

> <PSA>
68.02

> <hb_acceptors>
3

> <hb_donors>
1

> <Collection>
Legacy

> <link>
https://www.enaminestore.com/catalog/Z1779523179

> <ROCS_ShapeQuery>
_x1140_x0812_0A_x1140_0A_x1097_0A_x0365_0A_x1097_0A_x0310_0A

> <ROCS_TanimotoCombo>
0.640 

> <ROCS_ShapeTanimoto>
0.267 

> <ROCS_ColorTanimoto>
0.372 

> <ROCS_RefTversky>
0.243 

> <ROCS_RefColorTversky>
0.543 

> <ROCS_RefTverskyCombo>
0.786 

> <ROCS_FitTversky>
1.584 

> <ROCS_FitColorTversky>
0.543 

> <ROCS_FitTverskyCombo>
2.127 

> <ROCS_ColorScore>
-4.344

> <ROCS_Overlap>
2499.795

> <ROCS_Rank>
219                 

$$$$
untitled-dbase-549287_106
  -OEChem-02092421083D

 32 33  0     0  0  0  0  0  0999 V2000
    7.2025   11.9064   24.7774 C   0  0  0  0  0  0  0  0  0  0  0  0
    8.1380   12.3411   23.8451 C   0  0  0  0  0  0  0  0  0  0  0  0
   13.9767   14.9987   22.1352 C   0  0  0  0  0  0  0  0  0  0  0  0
    7.2767   10.5908   25.2057 C   0  0  0  0  0  0  0  0  0  0  0  0
   13.7917   16.3178   22.4780 C   0  0  0  0  0  0  0  0  0  0  0  0
    9.1054   11.4594   23.3762 C   0  0  0  0  0  0  0  0  0  0  0  0
   12.7123   14.3768   22.2683 C   0  0  0  0  0  0  0  0  0  0  0  0
   11.8448   15.3603   22.6833 C   0  0  0  0  0  0  0  0  0  0  0  0
    9.0946   10.1638   23.8674 C   0  0  0  0  0  0  0  0  0  0  0  0
   10.0982   11.9120   22.3889 C   0  0  0  0  0  0  0  0  0  0  0  0
   10.4088   15.3725   22.9997 C   0  0  0  0  0  0  0  0  0  0  0  0
   11.5191   12.5729   24.2911 C   0  0  0  0  0  0  0  0  0  0  0  0
   12.3884   12.9341   22.0080 C   0  0  0  0  0  0  0  0  0  0  0  0
    8.2019    9.7052   24.7732 N   0  0  0  0  0  0  0  0  0  0  0  0
   11.2987   12.4566   22.8564 N   0  0  0  0  0  0  0  0  0  0  0  0
    9.7965   11.7622   21.2054 O   0  0  0  0  0  0  0  0  0  0  0  0
   12.4949   16.5464   22.8136 O   0  0  0  0  0  0  0  0  0  0  0  0
   10.0311    9.2627   23.4310 O   0  0  0  0  0  0  0  0  0  0  0  0
    6.4398   12.5762   25.1582 H   0  0  0  0  0  0  0  0  0  0  0  0
    8.1038   13.3680   23.4909 H   0  0  0  0  0  0  0  0  0  0  0  0
   14.9085   14.5456   21.8279 H   0  0  0  0  0  0  0  0  0  0  0  0
    6.5710   10.2023   25.9326 H   0  0  0  0  0  0  0  0  0  0  0  0
   14.4464   17.1753   22.5317 H   0  0  0  0  0  0  0  0  0  0  0  0
   10.2294   15.1510   24.0666 H   0  0  0  0  0  0  0  0  0  0  0  0
    9.9396   16.3494   22.7816 H   0  0  0  0  0  0  0  0  0  0  0  0
    9.8428   14.6294   22.4082 H   0  0  0  0  0  0  0  0  0  0  0  0
   11.9993   11.6563   24.6643 H   0  0  0  0  0  0  0  0  0  0  0  0
   12.1702   13.4361   24.4931 H   0  0  0  0  0  0  0  0  0  0  0  0
   10.5541   12.7143   24.7999 H   0  0  0  0  0  0  0  0  0  0  0  0
   12.0919   12.7873   20.9637 H   0  0  0  0  0  0  0  0  0  0  0  0
   13.2596   12.2965   22.1914 H   0  0  0  0  0  0  0  0  0  0  0  0
    9.8903    8.4097   23.8646 H   0  0  0  0  0  0  0  0  0  0  0  0
  1  2  2  0  0  0  0
  1  4  1  0  0  0  0
  2  6  1  0  0  0  0
  3  5  2  0  0  0  0
  3  7  1  0  0  0  0
  4 14  2  0  0  0  0
  5 17  1  0  0  0  0
  6  9  2  0  0  0  0
  6 10  1  0  0  0  0
  7  8  2  0  0  0  0
  7 13  1  0  0  0  0
  8 11  1  0  0  0  0
  8 17  1  0  0  0  0
  9 14  1  0  0  0  0
  9 18  1  0  0  0  0
 10 15  1  0  0  0  0
 10 16  2  0  0  0  0
 12 15  1  0  0  0  0
 13 15  1  0  0  0  0
  1 19  1  0  0  0  0
  2 20  1  0  0  0  0
  3 21  1  0  0  0  0
  4 22  1  0  0  0  0
  5 23  1  0  0  0  0
 11 24  1  0  0  0  0
 11 25  1  0  0  0  0
 11 26  1  0  0  0  0
 12 27  1  0  0  0  0
 12 28  1  0  0  0  0
 12 29  1  0  0  0  0
 13 30  1  0  0  0  0
 13 31  1  0  0  0  0
 18 32  1  0  0  0  0
M  END
> <idnumber>
Z809323128

> <heavy_atoms>
18

> <LogS>
-1.753

> <LogP>
1.688

> <rotating_bonds>
3

> <PSA>
66.57

> <hb_acceptors>
3

> <hb_donors>
1

> <Collection>
HTS

> <link>
https://www.enaminestore.com/catalog/Z809323128

> <ROCS_ShapeQuery>
_x1140_x0812_0A_x1140_0A_x1097_0A_x0365_0A_x1097_0A_x0310_0A

> <ROCS_TanimotoCombo>
0.640 

> <ROCS_ShapeTanimoto>
0.239 

> <ROCS_ColorTanimoto>
0.401 

> <ROCS_RefTversky>
0.218 

> <ROCS_RefColorTversky>
0.540 

> <ROCS_RefTverskyCombo>
0.758 

> <ROCS_FitTversky>
1.705 

> <ROCS_FitColorTversky>
0.608 

> <ROCS_FitTverskyCombo>
2.313 

> <ROCS_ColorScore>
-4.293

> <ROCS_Overlap>
2233.012

> <ROCS_Rank>
220                 

$$$$
untitled-dbase-45367_26
  -OEChem-02092421083D

 31 31  0     0  0  0  0  0  0999 V2000
    8.9602   12.2205   24.6018 C   0  0  0  0  0  0  0  0  0  0  0  0
    7.4448   10.6851   25.2203 C   0  0  0  0  0  0  0  0  0  0  0  0
    9.0840   10.1314   23.7909 C   0  0  0  0  0  0  0  0  0  0  0  0
    5.0780   12.2813   26.6701 C   0  0  0  0  0  0  0  0  0  0  0  0
   11.4781    8.0239   21.7959 C   0  0  0  0  0  0  0  0  0  0  0  0
   11.4902   10.5224   22.0099 C   0  0  0  0  0  0  0  0  0  0  0  0
   11.9150    9.0868   24.0216 C   0  0  0  0  0  0  0  0  0  0  0  0
    5.8436   11.0743   27.0939 C   0  0  0  0  0  0  0  0  0  0  0  0
   11.1329    9.2063   22.7085 C   0  0  0  0  0  0  0  0  0  0  0  0
    7.8679   11.9540   25.3362 N   0  0  0  0  0  0  0  0  0  0  0  0
    9.6206   11.3622   23.8078 N   0  0  0  0  0  0  0  0  0  0  0  0
    8.0003    9.7207   24.4690 N   0  0  0  0  0  0  0  0  0  0  0  0
    6.2979   10.3282   25.9626 N   0  0  0  0  0  0  0  0  0  0  0  0
    9.7099    9.1920   22.9946 N   0  0  0  0  0  0  0  0  0  0  0  0
    9.3488   13.2296   24.6569 H   0  0  0  0  0  0  0  0  0  0  0  0
    4.2058   11.9727   26.0752 H   0  0  0  0  0  0  0  0  0  0  0  0
    4.7386   12.8313   27.5603 H   0  0  0  0  0  0  0  0  0  0  0  0
    5.7250   12.9310   26.0624 H   0  0  0  0  0  0  0  0  0  0  0  0
   11.2313    7.0689   22.2742 H   0  0  0  0  0  0  0  0  0  0  0  0
   10.9296    8.0774   20.8490 H   0  0  0  0  0  0  0  0  0  0  0  0
   12.5496    8.0029   21.5648 H   0  0  0  0  0  0  0  0  0  0  0  0
   11.2519   11.3841   22.6443 H   0  0  0  0  0  0  0  0  0  0  0  0
   10.9258   10.6409   21.0776 H   0  0  0  0  0  0  0  0  0  0  0  0
   12.5574   10.5679   21.7662 H   0  0  0  0  0  0  0  0  0  0  0  0
   11.6868    9.9214   24.6947 H   0  0  0  0  0  0  0  0  0  0  0  0
   11.6749    8.1551   24.5456 H   0  0  0  0  0  0  0  0  0  0  0  0
   12.9962    9.1025   23.8414 H   0  0  0  0  0  0  0  0  0  0  0  0
    6.7135   11.3911   27.6879 H   0  0  0  0  0  0  0  0  0  0  0  0
    5.1935   10.4343   27.7085 H   0  0  0  0  0  0  0  0  0  0  0  0
    5.8003    9.5120   25.6627 H   0  0  0  0  0  0  0  0  0  0  0  0
    9.1559    8.4533   22.5847 H   0  0  0  0  0  0  0  0  0  0  0  0
  1 10  2  0  0  0  0
  1 11  1  0  0  0  0
  2 10  1  0  0  0  0
  2 12  2  0  0  0  0
  2 13  1  0  0  0  0
  3 11  2  0  0  0  0
  3 12  1  0  0  0  0
  3 14  1  0  0  0  0
  4  8  1  0  0  0  0
  5  9  1  0  0  0  0
  6  9  1  0  0  0  0
  7  9  1  0  0  0  0
  8 13  1  0  0  0  0
  9 14  1  0  0  0  0
  1 15  1  0  0  0  0
  4 16  1  0  0  0  0
  4 17  1  0  0  0  0
  4 18  1  0  0  0  0
  5 19  1  0  0  0  0
  5 20  1  0  0  0  0
  5 21  1  0  0  0  0
  6 22  1  0  0  0  0
  6 23  1  0  0  0  0
  6 24  1  0  0  0  0
  7 25  1  0  0  0  0
  7 26  1  0  0  0  0
  7 27  1  0  0  0  0
  8 28  1  0  0  0  0
  8 29  1  0  0  0  0
 13 30  1  0  0  0  0
 14 31  1  0  0  0  0
M  END
> <idnumber>
Z1262618056

> <heavy_atoms>
14

> <LogS>
-2.59

> <LogP>
2.371

> <rotating_bonds>
4

> <PSA>
62.73

> <hb_acceptors>
5

> <hb_donors>
2

> <Collection>
Legacy

> <link>
https://www.enaminestore.com/catalog/Z1262618056

> <ROCS_ShapeQuery>
_x1140_x0812_0A_x1140_0A_x1097_0A_x0365_0A_x1097_0A_x0310_0A

> <ROCS_TanimotoCombo>
0.640 

> <ROCS_ShapeTanimoto>
0.221 

> <ROCS_ColorTanimoto>
0.418 

> <ROCS_RefTversky>
0.201 

> <ROCS_RefColorTversky>
0.557 

> <ROCS_RefTverskyCombo>
0.758 

> <ROCS_FitTversky>
1.844 

> <ROCS_FitColorTversky>
0.627 

> <ROCS_FitTverskyCombo>
2.471 

> <ROCS_ColorScore>
-4.429

> <ROCS_Overlap>
2060.402

> <ROCS_Rank>
221                 

$$$$
untitled-dbase-929654_121
  -OEChem-02092421083D

 32 33  0     0  0  0  0  0  0999 V2000
    8.3788   12.4627   24.8742 C   0  0  0  0  0  0  0  0  0  0  0  0
   11.5896   15.4643   22.1606 C   0  0  0  0  0  0  0  0  0  0  0  0
    7.2176   10.4252   25.2701 C   0  0  0  0  0  0  0  0  0  0  0  0
    9.3161   11.7496   24.1351 C   0  0  0  0  0  0  0  0  0  0  0  0
   12.1756   14.1873   22.0739 C   0  0  0  0  0  0  0  0  0  0  0  0
    7.3066   11.7954   25.4558 C   0  0  0  0  0  0  0  0  0  0  0  0
   13.3573   14.3042   22.7641 C   0  0  0  0  0  0  0  0  0  0  0  0
    9.1373   10.3814   24.0087 C   0  0  0  0  0  0  0  0  0  0  0  0
   10.4407   12.4409   23.5238 C   0  0  0  0  0  0  0  0  0  0  0  0
   14.4257   13.3246   23.0384 C   0  0  0  0  0  0  0  0  0  0  0  0
   14.4571   16.2069   23.9828 C   0  0  0  0  0  0  0  0  0  0  0  0
   11.6270   12.9736   21.3809 C   0  0  0  0  0  0  0  0  0  0  0  0
    8.1085    9.6984   24.5590 N   0  0  0  0  0  0  0  0  0  0  0  0
   12.3373   16.3289   22.8516 N   0  0  0  0  0  0  0  0  0  0  0  0
   13.4052   15.5938   23.2054 N   0  0  0  0  0  0  0  0  0  0  0  0
   10.5542   12.3611   22.1312 N   0  0  0  0  0  0  0  0  0  0  0  0
   11.2639   13.0519   24.2278 O   0  0  0  0  0  0  0  0  0  0  0  0
   10.0386    9.6408   23.2885 O   0  0  0  0  0  0  0  0  0  0  0  0
    6.3896   12.4558   26.1716 F   0  0  0  0  0  0  0  0  0  0  0  0
    8.4741   13.5377   25.0034 H   0  0  0  0  0  0  0  0  0  0  0  0
   10.6492   15.8035   21.7502 H   0  0  0  0  0  0  0  0  0  0  0  0
    6.3998    9.8586   25.7028 H   0  0  0  0  0  0  0  0  0  0  0  0
   15.1924   13.3394   22.2461 H   0  0  0  0  0  0  0  0  0  0  0  0
   14.9330   13.5223   23.9985 H   0  0  0  0  0  0  0  0  0  0  0  0
   14.0357   12.2942   23.1073 H   0  0  0  0  0  0  0  0  0  0  0  0
   15.1860   16.6320   23.2879 H   0  0  0  0  0  0  0  0  0  0  0  0
   14.0320   16.9897   24.6172 H   0  0  0  0  0  0  0  0  0  0  0  0
   14.9273   15.4491   24.6157 H   0  0  0  0  0  0  0  0  0  0  0  0
   11.2388   13.2366   20.3909 H   0  0  0  0  0  0  0  0  0  0  0  0
   12.4066   12.2186   21.2346 H   0  0  0  0  0  0  0  0  0  0  0  0
    9.8905   11.7969   21.6107 H   0  0  0  0  0  0  0  0  0  0  0  0
   10.7309   10.2187   22.9392 H   0  0  0  0  0  0  0  0  0  0  0  0
  1  4  1  0  0  0  0
  1  6  2  0  0  0  0
  2  5  1  0  0  0  0
  2 14  2  0  0  0  0
  3  6  1  0  0  0  0
  3 13  2  0  0  0  0
  4  8  2  0  0  0  0
  4  9  1  0  0  0  0
  5  7  2  0  0  0  0
  5 12  1  0  0  0  0
  6 19  1  0  0  0  0
  7 10  1  0  0  0  0
  7 15  1  0  0  0  0
  8 13  1  0  0  0  0
  8 18  1  0  0  0  0
  9 16  1  0  0  0  0
  9 17  2  0  0  0  0
 11 15  1  0  0  0  0
 12 16  1  0  0  0  0
 14 15  1  0  0  0  0
  1 20  1  0  0  0  0
  2 21  1  0  0  0  0
  3 22  1  0  0  0  0
 10 23  1  0  0  0  0
 10 24  1  0  0  0  0
 10 25  1  0  0  0  0
 11 26  1  0  0  0  0
 11 27  1  0  0  0  0
 11 28  1  0  0  0  0
 12 29  1  0  0  0  0
 12 30  1  0  0  0  0
 16 31  1  0  0  0  0
 18 32  1  0  0  0  0
M  END
> <idnumber>
Z2659385219

> <heavy_atoms>
19

> <LogS>
-0.894

> <LogP>
1.902

> <rotating_bonds>
3

> <PSA>
80.04

> <hb_acceptors>
4

> <hb_donors>
2

> <Collection>
HTS

> <link>
https://www.enaminestore.com/catalog/Z2659385219

> <ROCS_ShapeQuery>
_x1140_x0812_0A_x1140_0A_x1097_0A_x0365_0A_x1097_0A_x0310_0A

> <ROCS_TanimotoCombo>
0.640 

> <ROCS_ShapeTanimoto>
0.252 

> <ROCS_ColorTanimoto>
0.387 

> <ROCS_RefTversky>
0.228 

> <ROCS_RefColorTversky>
0.559 

> <ROCS_RefTverskyCombo>
0.787 

> <ROCS_FitTversky>
1.724 

> <ROCS_FitColorTversky>
0.558 

> <ROCS_FitTverskyCombo>
2.282 

> <ROCS_ColorScore>
-4.469

> <ROCS_Overlap>
2342.102

> <ROCS_Rank>
222                 

$$$$
untitled-dbase-183614_87
  -OEChem-02092421083D

 38 39  0     0  0  0  0  0  0999 V2000
    9.4061   11.5813   23.5411 C   0  0  0  0  0  0  0  0  0  0  0  0
    8.9731   10.2418   23.5441 C   0  0  0  0  0  0  0  0  0  0  0  0
    8.7668   12.1512   24.6149 C   0  0  0  0  0  0  0  0  0  0  0  0
   12.5310   13.7597   22.6800 C   0  0  0  0  0  0  0  0  0  0  0  0
   11.3186   14.3190   22.5319 C   0  0  0  0  0  0  0  0  0  0  0  0
   13.7213   14.5638   23.1052 C   0  0  0  0  0  0  0  0  0  0  0  0
   11.1189   15.7970   22.7540 C   0  0  0  0  0  0  0  0  0  0  0  0
   13.3008   15.9148   23.6736 C   0  0  0  0  0  0  0  0  0  0  0  0
    9.3457    9.1672   22.6064 C   0  0  0  0  0  0  0  0  0  0  0  0
    8.7968   13.5254   25.1523 C   0  0  0  0  0  0  0  0  0  0  0  0
    5.6942   11.3398   25.9595 C   0  0  0  0  0  0  0  0  0  0  0  0
   10.1078   13.5266   22.1450 C   0  0  0  0  0  0  0  0  0  0  0  0
    7.1642   11.2609   26.3339 C   0  0  0  0  0  0  0  0  0  0  0  0
    8.1244    9.9765   24.5407 N   0  0  0  0  0  0  0  0  0  0  0  0
    8.0191   11.1571   25.1741 N   0  0  0  0  0  0  0  0  0  0  0  0
   10.2833   12.1974   22.6546 N   0  0  0  0  0  0  0  0  0  0  0  0
   12.3529   16.5248   22.7991 O   0  0  0  0  0  0  0  0  0  0  0  0
   12.6776   12.6992   22.4989 H   0  0  0  0  0  0  0  0  0  0  0  0
   14.3012   14.0149   23.8545 H   0  0  0  0  0  0  0  0  0  0  0  0
   14.3619   14.7097   22.2278 H   0  0  0  0  0  0  0  0  0  0  0  0
   10.5336   16.2238   21.9329 H   0  0  0  0  0  0  0  0  0  0  0  0
   10.5691   15.9716   23.6860 H   0  0  0  0  0  0  0  0  0  0  0  0
   12.8680   15.8173   24.6769 H   0  0  0  0  0  0  0  0  0  0  0  0
   14.1699   16.5758   23.7505 H   0  0  0  0  0  0  0  0  0  0  0  0
   10.2376    8.6218   22.9581 H   0  0  0  0  0  0  0  0  0  0  0  0
    8.5342    8.4300   22.4751 H   0  0  0  0  0  0  0  0  0  0  0  0
    9.5686    9.5552   21.5968 H   0  0  0  0  0  0  0  0  0  0  0  0
    8.0140   14.1498   24.6912 H   0  0  0  0  0  0  0  0  0  0  0  0
    8.6417   13.5463   26.2446 H   0  0  0  0  0  0  0  0  0  0  0  0
    9.7676   14.0188   24.9732 H   0  0  0  0  0  0  0  0  0  0  0  0
    5.4944   12.2071   25.3212 H   0  0  0  0  0  0  0  0  0  0  0  0
    5.0777   11.4291   26.8593 H   0  0  0  0  0  0  0  0  0  0  0  0
    5.3762   10.4445   25.4150 H   0  0  0  0  0  0  0  0  0  0  0  0
   10.0288   13.5182   21.0588 H   0  0  0  0  0  0  0  0  0  0  0  0
    9.2284   13.9970   22.5829 H   0  0  0  0  0  0  0  0  0  0  0  0
    7.3541   10.3906   26.9722 H   0  0  0  0  0  0  0  0  0  0  0  0
    7.4674   12.1502   26.8980 H   0  0  0  0  0  0  0  0  0  0  0  0
   11.0967   11.6640   22.3532 H   0  0  0  0  0  0  0  0  0  0  0  0
  1  2  1  0  0  0  0
  1  3  2  0  0  0  0
  1 16  1  0  0  0  0
  2  9  1  0  0  0  0
  2 14  2  0  0  0  0
  3 10  1  0  0  0  0
  3 15  1  0  0  0  0
  4  5  2  0  0  0  0
  4  6  1  0  0  0  0
  5  7  1  0  0  0  0
  5 12  1  0  0  0  0
  6  8  1  0  0  0  0
  7 17  1  0  0  0  0
  8 17  1  0  0  0  0
 11 13  1  0  0  0  0
 12 16  1  0  0  0  0
 13 15  1  0  0  0  0
 14 15  1  0  0  0  0
  4 18  1  0  0  0  0
  6 19  1  0  0  0  0
  6 20  1  0  0  0  0
  7 21  1  0  0  0  0
  7 22  1  0  0  0  0
  8 23  1  0  0  0  0
  8 24  1  0  0  0  0
  9 25  1  0  0  0  0
  9 26  1  0  0  0  0
  9 27  1  0  0  0  0
 10 28  1  0  0  0  0
 10 29  1  0  0  0  0
 10 30  1  0  0  0  0
 11 31  1  0  0  0  0
 11 32  1  0  0  0  0
 11 33  1  0  0  0  0
 12 34  1  0  0  0  0
 12 35  1  0  0  0  0
 13 36  1  0  0  0  0
 13 37  1  0  0  0  0
 16 38  1  0  0  0  0
M  END
> <idnumber>
Z1564422316

> <heavy_atoms>
17

> <LogS>
-0.893

> <LogP>
1.267

> <rotating_bonds>
4

> <PSA>
39.08

> <hb_acceptors>
3

> <hb_donors>
1

> <Collection>
HTS

> <link>
https://www.enaminestore.com/catalog/Z1564422316

> <ROCS_ShapeQuery>
_x1140_x0812_0A_x1140_0A_x1097_0A_x0365_0A_x1097_0A_x0310_0A

> <ROCS_TanimotoCombo>
0.639 

> <ROCS_ShapeTanimoto>
0.245 

> <ROCS_ColorTanimoto>
0.394 

> <ROCS_RefTversky>
0.221 

> <ROCS_RefColorTversky>
0.468 

> <ROCS_RefTverskyCombo>
0.689 

> <ROCS_FitTversky>
1.818 

> <ROCS_FitColorTversky>
0.713 

> <ROCS_FitTverskyCombo>
2.532 

> <ROCS_ColorScore>
-3.674

> <ROCS_Overlap>
2264.167

> <ROCS_Rank>
223                 

$$$$
untitled-dbase-755831_29
  -OEChem-02092421083D

 31 32  0     0  0  0  0  0  0999 V2000
    7.1846   11.7973   24.9533 C   0  0  0  0  0  0  0  0  0  0  0  0
    7.2117   10.4400   25.2305 C   0  0  0  0  0  0  0  0  0  0  0  0
   12.8951   15.3489   23.0354 C   0  0  0  0  0  0  0  0  0  0  0  0
   11.2849   15.0106   21.5767 C   0  0  0  0  0  0  0  0  0  0  0  0
    9.0984   11.4513   23.5384 C   0  0  0  0  0  0  0  0  0  0  0  0
    8.1494   12.3046   24.0902 C   0  0  0  0  0  0  0  0  0  0  0  0
   12.1701   14.3351   22.3809 C   0  0  0  0  0  0  0  0  0  0  0  0
    9.0400   10.1095   23.8791 C   0  0  0  0  0  0  0  0  0  0  0  0
   10.1240   11.9498   22.6317 C   0  0  0  0  0  0  0  0  0  0  0  0
    8.1429   13.7646   23.7753 C   0  0  0  0  0  0  0  0  0  0  0  0
   10.8384   17.4415   21.1648 C   0  0  0  0  0  0  0  0  0  0  0  0
   12.3286   12.8501   22.5253 C   0  0  0  0  0  0  0  0  0  0  0  0
    8.1178    9.5800   24.7138 N   0  0  0  0  0  0  0  0  0  0  0  0
   12.5044   16.5751   22.6778 N   0  0  0  0  0  0  0  0  0  0  0  0
   11.5244   16.3362   21.7898 N   0  0  0  0  0  0  0  0  0  0  0  0
    9.9973   12.0149   21.4031 O   0  0  0  0  0  0  0  0  0  0  0  0
    9.9562    9.2327   23.3584 O   0  0  0  0  0  0  0  0  0  0  0  0
   11.2458   12.3386   23.3098 O   0  0  0  0  0  0  0  0  0  0  0  0
    6.4301   12.4357   25.4002 H   0  0  0  0  0  0  0  0  0  0  0  0
    6.4809    9.9948   25.8978 H   0  0  0  0  0  0  0  0  0  0  0  0
   13.6928   15.2478   23.7577 H   0  0  0  0  0  0  0  0  0  0  0  0
   10.5247   14.6693   20.8871 H   0  0  0  0  0  0  0  0  0  0  0  0
    8.7640   14.3110   24.4944 H   0  0  0  0  0  0  0  0  0  0  0  0
    8.5279   13.9540   22.7658 H   0  0  0  0  0  0  0  0  0  0  0  0
    7.1253   14.1731   23.8108 H   0  0  0  0  0  0  0  0  0  0  0  0
    9.9798   17.7022   21.7892 H   0  0  0  0  0  0  0  0  0  0  0  0
   11.5207   18.2918   21.0788 H   0  0  0  0  0  0  0  0  0  0  0  0
   10.5093   17.1440   20.1653 H   0  0  0  0  0  0  0  0  0  0  0  0
   12.3239   12.3585   21.5464 H   0  0  0  0  0  0  0  0  0  0  0  0
   13.2758   12.6074   23.0190 H   0  0  0  0  0  0  0  0  0  0  0  0
    9.7809    8.3416   23.6910 H   0  0  0  0  0  0  0  0  0  0  0  0
  1  2  2  0  0  0  0
  1  6  1  0  0  0  0
  2 13  1  0  0  0  0
  3  7  1  0  0  0  0
  3 14  2  0  0  0  0
  4  7  2  0  0  0  0
  4 15  1  0  0  0  0
  5  6  2  0  0  0  0
  5  8  1  0  0  0  0
  5  9  1  0  0  0  0
  6 10  1  0  0  0  0
  7 12  1  0  0  0  0
  8 13  2  0  0  0  0
  8 17  1  0  0  0  0
  9 16  2  0  0  0  0
  9 18  1  0  0  0  0
 11 15  1  0  0  0  0
 12 18  1  0  0  0  0
 14 15  1  0  0  0  0
  1 19  1  0  0  0  0
  2 20  1  0  0  0  0
  3 21  1  0  0  0  0
  4 22  1  0  0  0  0
 10 23  1  0  0  0  0
 10 24  1  0  0  0  0
 10 25  1  0  0  0  0
 11 26  1  0  0  0  0
 11 27  1  0  0  0  0
 11 28  1  0  0  0  0
 12 29  1  0  0  0  0
 12 30  1  0  0  0  0
 17 31  1  0  0  0  0
M  END
> <idnumber>
Z1669565892

> <heavy_atoms>
18

> <LogS>
-1.13

> <LogP>
1.928

> <rotating_bonds>
4

> <PSA>
77.24

> <hb_acceptors>
4

> <hb_donors>
1

> <Collection>
HTS

> <link>
https://www.enaminestore.com/catalog/Z1669565892

> <ROCS_ShapeQuery>
_x1140_x0812_0A_x1140_0A_x1097_0A_x0365_0A_x1097_0A_x0310_0A

> <ROCS_TanimotoCombo>
0.639 

> <ROCS_ShapeTanimoto>
0.250 

> <ROCS_ColorTanimoto>
0.389 

> <ROCS_RefTversky>
0.226 

> <ROCS_RefColorTversky>
0.528 

> <ROCS_RefTverskyCombo>
0.754 

> <ROCS_FitTversky>
1.761 

> <ROCS_FitColorTversky>
0.595 

> <ROCS_FitTverskyCombo>
2.356 

> <ROCS_ColorScore>
-4.200

> <ROCS_Overlap>
2317.691

> <ROCS_Rank>
224                 

$$$$
untitled-dbase-547126_84
  -OEChem-02092421083D

 30 31  0     0  0  0  0  0  0999 V2000
    8.9947   12.3917   24.2956 C   0  0  0  0  0  0  0  0  0  0  0  0
   12.9304   15.3724   22.7656 C   0  0  0  0  0  0  0  0  0  0  0  0
    9.3959   11.3513   23.4650 C   0  0  0  0  0  0  0  0  0  0  0  0
    8.1099   12.1398   25.3382 C   0  0  0  0  0  0  0  0  0  0  0  0
   12.1469   14.4545   22.0979 C   0  0  0  0  0  0  0  0  0  0  0  0
    8.8874   10.0873   23.7169 C   0  0  0  0  0  0  0  0  0  0  0  0
    7.6588   10.8405   25.5061 C   0  0  0  0  0  0  0  0  0  0  0  0
   11.2481   16.6838   22.2558 C   0  0  0  0  0  0  0  0  0  0  0  0
   10.3328   11.6294   22.3648 C   0  0  0  0  0  0  0  0  0  0  0  0
   10.3947   17.8876   22.1490 C   0  0  0  0  0  0  0  0  0  0  0  0
   12.2036   11.7892   23.9612 C   0  0  0  0  0  0  0  0  0  0  0  0
   12.3956   13.0006   21.8178 C   0  0  0  0  0  0  0  0  0  0  0  0
   12.4168   16.6513   22.8567 N   0  0  0  0  0  0  0  0  0  0  0  0
    8.0261    9.8040   24.7197 N   0  0  0  0  0  0  0  0  0  0  0  0
   11.5985   12.1330   22.6822 N   0  0  0  0  0  0  0  0  0  0  0  0
    9.9285   11.3809   21.2295 O   0  0  0  0  0  0  0  0  0  0  0  0
    7.7141   13.1314   26.1462 F   0  0  0  0  0  0  0  0  0  0  0  0
   10.7054   15.2120   21.5597 S   0  0  0  0  0  0  0  0  0  0  0  0
    9.3055    8.7181   22.7624 Cl  0  0  0  0  0  0  0  0  0  0  0  0
    6.5647   10.4323   26.7636 Cl  0  0  0  0  0  0  0  0  0  0  0  0
    9.3641   13.4019   24.1409 H   0  0  0  0  0  0  0  0  0  0  0  0
   13.8944   15.1619   23.2096 H   0  0  0  0  0  0  0  0  0  0  0  0
   10.6292   18.4570   21.2362 H   0  0  0  0  0  0  0  0  0  0  0  0
    9.3234   17.6301   22.1210 H   0  0  0  0  0  0  0  0  0  0  0  0
   10.5264   18.5617   23.0111 H   0  0  0  0  0  0  0  0  0  0  0  0
   12.7962   10.8690   23.8515 H   0  0  0  0  0  0  0  0  0  0  0  0
   12.8583   12.6099   24.2894 H   0  0  0  0  0  0  0  0  0  0  0  0
   11.4132   11.6291   24.7094 H   0  0  0  0  0  0  0  0  0  0  0  0
   12.1484   12.7599   20.7781 H   0  0  0  0  0  0  0  0  0  0  0  0
   13.4500   12.7461   21.9687 H   0  0  0  0  0  0  0  0  0  0  0  0
  1  3  1  0  0  0  0
  1  4  2  0  0  0  0
  2  5  2  0  0  0  0
  2 13  1  0  0  0  0
  3  6  2  0  0  0  0
  3  9  1  0  0  0  0
  4  7  1  0  0  0  0
  4 17  1  0  0  0  0
  5 12  1  0  0  0  0
  5 18  1  0  0  0  0
  6 14  1  0  0  0  0
  6 19  1  0  0  0  0
  7 14  2  0  0  0  0
  7 20  1  0  0  0  0
  8 10  1  0  0  0  0
  8 13  2  0  0  0  0
  8 18  1  0  0  0  0
  9 15  1  0  0  0  0
  9 16  2  0  0  0  0
 11 15  1  0  0  0  0
 12 15  1  0  0  0  0
  1 21  1  0  0  0  0
  2 22  1  0  0  0  0
 10 23  1  0  0  0  0
 10 24  1  0  0  0  0
 10 25  1  0  0  0  0
 11 26  1  0  0  0  0
 11 27  1  0  0  0  0
 11 28  1  0  0  0  0
 12 29  1  0  0  0  0
 12 30  1  0  0  0  0
M  END
> <idnumber>
Z1118696998

> <heavy_atoms>
20

> <LogS>
-4.496

> <LogP>
2.161

> <rotating_bonds>
3

> <PSA>
46.09

> <hb_acceptors>
3

> <hb_donors>
0

> <Collection>
Functional

> <link>
https://www.enaminestore.com/catalog/Z1118696998

> <ROCS_ShapeQuery>
_x1140_x0812_0A_x1140_0A_x1097_0A_x0365_0A_x1097_0A_x0310_0A

> <ROCS_TanimotoCombo>
0.639 

> <ROCS_ShapeTanimoto>
0.251 

> <ROCS_ColorTanimoto>
0.388 

> <ROCS_RefTversky>
0.227 

> <ROCS_RefColorTversky>
0.463 

> <ROCS_RefTverskyCombo>
0.690 

> <ROCS_FitTversky>
1.714 

> <ROCS_FitColorTversky>
0.706 

> <ROCS_FitTverskyCombo>
2.420 

> <ROCS_ColorScore>
-3.636

> <ROCS_Overlap>
2328.616

> <ROCS_Rank>
225                 

$$$$
untitled-dbase-190227_24
  -OEChem-02092421083D

 40 42  0     0  0  0  0  0  0999 V2000
    7.0532   13.1327   25.9516 C   0  0  0  0  0  0  0  0  0  0  0  0
    6.2395   12.7878   27.0269 C   0  0  0  0  0  0  0  0  0  0  0  0
   12.5090   12.4712   20.4889 C   0  0  0  0  0  0  0  0  0  0  0  0
    8.5186   12.4549   24.1091 C   0  0  0  0  0  0  0  0  0  0  0  0
    6.7005   10.4576   26.6007 C   0  0  0  0  0  0  0  0  0  0  0  0
   13.4796   13.1967   19.8338 C   0  0  0  0  0  0  0  0  0  0  0  0
    7.6941   12.1358   25.1964 C   0  0  0  0  0  0  0  0  0  0  0  0
    9.1373   11.4474   23.3832 C   0  0  0  0  0  0  0  0  0  0  0  0
    6.0632   11.4484   27.3516 C   0  0  0  0  0  0  0  0  0  0  0  0
    7.5195   10.7740   25.5202 C   0  0  0  0  0  0  0  0  0  0  0  0
   12.0863   13.1068   21.6920 C   0  0  0  0  0  0  0  0  0  0  0  0
   12.7501   14.2939   21.9108 C   0  0  0  0  0  0  0  0  0  0  0  0
    8.9065   10.1444   23.7753 C   0  0  0  0  0  0  0  0  0  0  0  0
    9.9925   11.7835   22.2553 C   0  0  0  0  0  0  0  0  0  0  0  0
   12.6188   15.2217   22.9893 C   0  0  0  0  0  0  0  0  0  0  0  0
    5.1935   11.0668   28.5015 C   0  0  0  0  0  0  0  0  0  0  0  0
    9.5400    9.0099   23.0376 C   0  0  0  0  0  0  0  0  0  0  0  0
   12.8075   15.4859   25.3739 C   0  0  0  0  0  0  0  0  0  0  0  0
    8.1187    9.7940   24.8176 N   0  0  0  0  0  0  0  0  0  0  0  0
   11.0998   12.5871   22.5677 N   0  0  0  0  0  0  0  0  0  0  0  0
    9.7290   11.4091   21.1044 O   0  0  0  0  0  0  0  0  0  0  0  0
   12.2825   16.4233   22.8763 O   0  0  0  0  0  0  0  0  0  0  0  0
   12.9049   14.6550   24.2121 O   0  0  0  0  0  0  0  0  0  0  0  0
   13.8775   14.6379   20.6686 S   0  0  0  0  0  0  0  0  0  0  0  0
    7.1843   14.1841   25.7052 H   0  0  0  0  0  0  0  0  0  0  0  0
    5.7501   13.5681   27.6031 H   0  0  0  0  0  0  0  0  0  0  0  0
   12.1244   11.5296   20.1174 H   0  0  0  0  0  0  0  0  0  0  0  0
    8.6755   13.4954   23.8301 H   0  0  0  0  0  0  0  0  0  0  0  0
    6.5531    9.4122   26.8686 H   0  0  0  0  0  0  0  0  0  0  0  0
   13.9739   12.9494   18.9050 H   0  0  0  0  0  0  0  0  0  0  0  0
    4.1589   10.9234   28.1668 H   0  0  0  0  0  0  0  0  0  0  0  0
    5.5393   10.1368   28.9711 H   0  0  0  0  0  0  0  0  0  0  0  0
    5.2031   11.8391   29.2817 H   0  0  0  0  0  0  0  0  0  0  0  0
   10.5133    8.7671   23.4788 H   0  0  0  0  0  0  0  0  0  0  0  0
    8.9076    8.1144   23.0702 H   0  0  0  0  0  0  0  0  0  0  0  0
    9.6873    9.2590   21.9796 H   0  0  0  0  0  0  0  0  0  0  0  0
   13.0616   14.9027   26.2623 H   0  0  0  0  0  0  0  0  0  0  0  0
   11.7901   15.8759   25.4597 H   0  0  0  0  0  0  0  0  0  0  0  0
   13.5077   16.3187   25.2750 H   0  0  0  0  0  0  0  0  0  0  0  0
   11.2087   12.8280   23.5497 H   0  0  0  0  0  0  0  0  0  0  0  0
  1  2  2  0  0  0  0
  1  7  1  0  0  0  0
  2  9  1  0  0  0  0
  3  6  2  0  0  0  0
  3 11  1  0  0  0  0
  4  7  2  0  0  0  0
  4  8  1  0  0  0  0
  5  9  2  0  0  0  0
  5 10  1  0  0  0  0
  6 24  1  0  0  0  0
  7 10  1  0  0  0  0
  8 13  2  0  0  0  0
  8 14  1  0  0  0  0
  9 16  1  0  0  0  0
 10 19  2  0  0  0  0
 11 12  2  0  0  0  0
 11 20  1  0  0  0  0
 12 15  1  0  0  0  0
 12 24  1  0  0  0  0
 13 17  1  0  0  0  0
 13 19  1  0  0  0  0
 14 20  1  0  0  0  0
 14 21  2  0  0  0  0
 15 22  2  0  0  0  0
 15 23  1  0  0  0  0
 18 23  1  0  0  0  0
  1 25  1  0  0  0  0
  2 26  1  0  0  0  0
  3 27  1  0  0  0  0
  4 28  1  0  0  0  0
  5 29  1  0  0  0  0
  6 30  1  0  0  0  0
 16 31  1  0  0  0  0
 16 32  1  0  0  0  0
 16 33  1  0  0  0  0
 17 34  1  0  0  0  0
 17 35  1  0  0  0  0
 17 36  1  0  0  0  0
 18 37  1  0  0  0  0
 18 38  1  0  0  0  0
 18 39  1  0  0  0  0
 20 40  1  0  0  0  0
M  END
> <idnumber>
Z392348148

> <heavy_atoms>
24

> <LogS>
-5.01

> <LogP>
3.764

> <rotating_bonds>
4

> <PSA>
68.29

> <hb_acceptors>
3

> <hb_donors>
1

> <Collection>
Legacy

> <link>
https://www.enaminestore.com/catalog/Z392348148

> <ROCS_ShapeQuery>
_x1140_x0812_0A_x1140_0A_x1097_0A_x0365_0A_x1097_0A_x0310_0A

> <ROCS_TanimotoCombo>
0.639 

> <ROCS_ShapeTanimoto>
0.275 

> <ROCS_ColorTanimoto>
0.364 

> <ROCS_RefTversky>
0.249 

> <ROCS_RefColorTversky>
0.504 

> <ROCS_RefTverskyCombo>
0.752 

> <ROCS_FitTversky>
1.626 

> <ROCS_FitColorTversky>
0.567 

> <ROCS_FitTverskyCombo>
2.193 

> <ROCS_ColorScore>
-4.004

> <ROCS_Overlap>
2554.309

> <ROCS_Rank>
226                 

$$$$
untitled-dbase-478224_30
  -OEChem-02092421083D

 37 39  0     0  0  0  0  0  0999 V2000
    6.7020   10.4553   26.6016 C   0  0  0  0  0  0  0  0  0  0  0  0
    6.0652   11.4457   27.3534 C   0  0  0  0  0  0  0  0  0  0  0  0
   12.5067   12.4723   20.4869 C   0  0  0  0  0  0  0  0  0  0  0  0
    8.5198   12.4541   24.1109 C   0  0  0  0  0  0  0  0  0  0  0  0
    7.0552   13.1308   25.9544 C   0  0  0  0  0  0  0  0  0  0  0  0
   13.4765   13.1983   19.8311 C   0  0  0  0  0  0  0  0  0  0  0  0
    7.6956   12.1344   25.1983 C   0  0  0  0  0  0  0  0  0  0  0  0
    9.1380   11.4469   23.3840 C   0  0  0  0  0  0  0  0  0  0  0  0
    7.5207   10.7723   25.5211 C   0  0  0  0  0  0  0  0  0  0  0  0
   12.0850   13.1075   21.6906 C   0  0  0  0  0  0  0  0  0  0  0  0
    6.2417   12.7852   27.0298 C   0  0  0  0  0  0  0  0  0  0  0  0
   12.7489   14.2947   21.9091 C   0  0  0  0  0  0  0  0  0  0  0  0
    8.9070   10.1437   23.7752 C   0  0  0  0  0  0  0  0  0  0  0  0
    9.9921   11.7836   22.2555 C   0  0  0  0  0  0  0  0  0  0  0  0
   12.6184   15.2221   22.9881 C   0  0  0  0  0  0  0  0  0  0  0  0
    9.5398    9.0093   23.0370 C   0  0  0  0  0  0  0  0  0  0  0  0
   12.8093   15.4855   25.3726 C   0  0  0  0  0  0  0  0  0  0  0  0
    8.1194    9.7928   24.8175 N   0  0  0  0  0  0  0  0  0  0  0  0
   11.0995   12.5873   22.5670 N   0  0  0  0  0  0  0  0  0  0  0  0
    9.7275   11.4096   21.1047 O   0  0  0  0  0  0  0  0  0  0  0  0
   12.2818   16.4236   22.8758 O   0  0  0  0  0  0  0  0  0  0  0  0
   12.9058   14.6549   24.2105 O   0  0  0  0  0  0  0  0  0  0  0  0
   13.8750   14.6393   20.6660 S   0  0  0  0  0  0  0  0  0  0  0  0
    5.4602   14.0085   27.9524 Cl  0  0  0  0  0  0  0  0  0  0  0  0
    6.5479    9.4131   26.8757 H   0  0  0  0  0  0  0  0  0  0  0  0
    5.4349   11.1521   28.1891 H   0  0  0  0  0  0  0  0  0  0  0  0
   12.1219   11.5308   20.1154 H   0  0  0  0  0  0  0  0  0  0  0  0
    8.6774   13.4947   23.8329 H   0  0  0  0  0  0  0  0  0  0  0  0
    7.1959   14.1795   25.6981 H   0  0  0  0  0  0  0  0  0  0  0  0
   13.9700   12.9514   18.9017 H   0  0  0  0  0  0  0  0  0  0  0  0
   10.5132    8.7659   23.4780 H   0  0  0  0  0  0  0  0  0  0  0  0
    8.9071    8.1141   23.0693 H   0  0  0  0  0  0  0  0  0  0  0  0
    9.6872    9.2587   21.9791 H   0  0  0  0  0  0  0  0  0  0  0  0
   13.0644   14.9019   26.2606 H   0  0  0  0  0  0  0  0  0  0  0  0
   11.7920   15.8753   25.4595 H   0  0  0  0  0  0  0  0  0  0  0  0
   13.5093   16.3184   25.2733 H   0  0  0  0  0  0  0  0  0  0  0  0
   11.2093   12.8279   23.5491 H   0  0  0  0  0  0  0  0  0  0  0  0
  1  2  2  0  0  0  0
  1  9  1  0  0  0  0
  2 11  1  0  0  0  0
  3  6  2  0  0  0  0
  3 10  1  0  0  0  0
  4  7  2  0  0  0  0
  4  8  1  0  0  0  0
  5  7  1  0  0  0  0
  5 11  2  0  0  0  0
  6 23  1  0  0  0  0
  7  9  1  0  0  0  0
  8 13  2  0  0  0  0
  8 14  1  0  0  0  0
  9 18  2  0  0  0  0
 10 12  2  0  0  0  0
 10 19  1  0  0  0  0
 11 24  1  0  0  0  0
 12 15  1  0  0  0  0
 12 23  1  0  0  0  0
 13 16  1  0  0  0  0
 13 18  1  0  0  0  0
 14 19  1  0  0  0  0
 14 20  2  0  0  0  0
 15 21  2  0  0  0  0
 15 22  1  0  0  0  0
 17 22  1  0  0  0  0
  1 25  1  0  0  0  0
  2 26  1  0  0  0  0
  3 27  1  0  0  0  0
  4 28  1  0  0  0  0
  5 29  1  0  0  0  0
  6 30  1  0  0  0  0
 16 31  1  0  0  0  0
 16 32  1  0  0  0  0
 16 33  1  0  0  0  0
 17 34  1  0  0  0  0
 17 35  1  0  0  0  0
 17 36  1  0  0  0  0
 19 37  1  0  0  0  0
M  END
> <idnumber>
Z216593084

> <heavy_atoms>
24

> <LogS>
-5.23

> <LogP>
3.991

> <rotating_bonds>
4

> <PSA>
68.29

> <hb_acceptors>
3

> <hb_donors>
1

> <Collection>
Legacy

> <link>
https://www.enaminestore.com/catalog/Z216593084

> <ROCS_ShapeQuery>
_x1140_x0812_0A_x1140_0A_x1097_0A_x0365_0A_x1097_0A_x0310_0A

> <ROCS_TanimotoCombo>
0.639 

> <ROCS_ShapeTanimoto>
0.275 

> <ROCS_ColorTanimoto>
0.364 

> <ROCS_RefTversky>
0.248 

> <ROCS_RefColorTversky>
0.504 

> <ROCS_RefTverskyCombo>
0.752 

> <ROCS_FitTversky>
1.631 

> <ROCS_FitColorTversky>
0.567 

> <ROCS_FitTverskyCombo>
2.198 

> <ROCS_ColorScore>
-4.004

> <ROCS_Overlap>
2551.889

> <ROCS_Rank>
227                 

$$$$
untitled-dbase-857109_165
  -OEChem-02092421083D

 26 26  0     0  0  0  0  0  0999 V2000
    8.4063   12.5753   24.0093 C   0  0  0  0  0  0  0  0  0  0  0  0
    7.4443   12.1792   24.9383 C   0  0  0  0  0  0  0  0  0  0  0  0
    8.1818    9.8884   24.7252 C   0  0  0  0  0  0  0  0  0  0  0  0
    9.2561   11.6280   23.4381 C   0  0  0  0  0  0  0  0  0  0  0  0
    7.3320   10.8357   25.2963 C   0  0  0  0  0  0  0  0  0  0  0  0
    9.1438   10.2846   23.7961 C   0  0  0  0  0  0  0  0  0  0  0  0
   10.2525   12.0631   22.4694 C   0  0  0  0  0  0  0  0  0  0  0  0
   11.2875   15.3185   22.5965 C   0  0  0  0  0  0  0  0  0  0  0  0
    9.4013   16.6870   23.0018 C   0  0  0  0  0  0  0  0  0  0  0  0
   11.6777   13.9430   22.1235 C   0  0  0  0  0  0  0  0  0  0  0  0
   10.3109   11.6634   21.3001 O   0  0  0  0  0  0  0  0  0  0  0  0
   12.0734   16.1909   22.9404 O   0  0  0  0  0  0  0  0  0  0  0  0
    6.3922   10.4493   26.2020 O   0  0  0  0  0  0  0  0  0  0  0  0
    9.9645    9.3436   23.2493 O   0  0  0  0  0  0  0  0  0  0  0  0
   11.1175   12.9717   23.0137 O   0  0  0  0  0  0  0  0  0  0  0  0
    9.9264   15.4255   22.5760 O   0  0  0  0  0  0  0  0  0  0  0  0
    8.4840   13.6253   23.7388 H   0  0  0  0  0  0  0  0  0  0  0  0
    6.7854   12.9223   25.3790 H   0  0  0  0  0  0  0  0  0  0  0  0
    8.0922    8.8409   25.0024 H   0  0  0  0  0  0  0  0  0  0  0  0
    8.3101   16.6655   22.9472 H   0  0  0  0  0  0  0  0  0  0  0  0
    9.7932   17.4808   22.3609 H   0  0  0  0  0  0  0  0  0  0  0  0
    9.7087   16.8698   24.0342 H   0  0  0  0  0  0  0  0  0  0  0  0
   12.7668   13.8476   22.1359 H   0  0  0  0  0  0  0  0  0  0  0  0
   11.2795   13.7749   21.1193 H   0  0  0  0  0  0  0  0  0  0  0  0
    6.4381    9.4907   26.3460 H   0  0  0  0  0  0  0  0  0  0  0  0
    9.7523    8.4670   23.6059 H   0  0  0  0  0  0  0  0  0  0  0  0
  1  2  2  0  0  0  0
  1  4  1  0  0  0  0
  2  5  1  0  0  0  0
  3  5  2  0  0  0  0
  3  6  1  0  0  0  0
  4  6  2  0  0  0  0
  4  7  1  0  0  0  0
  5 13  1  0  0  0  0
  6 14  1  0  0  0  0
  7 11  2  0  0  0  0
  7 15  1  0  0  0  0
  8 10  1  0  0  0  0
  8 12  2  0  0  0  0
  8 16  1  0  0  0  0
  9 16  1  0  0  0  0
 10 15  1  0  0  0  0
  1 17  1  0  0  0  0
  2 18  1  0  0  0  0
  3 19  1  0  0  0  0
  9 20  1  0  0  0  0
  9 21  1  0  0  0  0
  9 22  1  0  0  0  0
 10 23  1  0  0  0  0
 10 24  1  0  0  0  0
 13 25  1  0  0  0  0
 14 26  1  0  0  0  0
M  END
> <idnumber>
Z54342712

> <heavy_atoms>
16

> <LogS>
-1.147

> <LogP>
1.432

> <rotating_bonds>
5

> <PSA>
93.06

> <hb_acceptors>
4

> <hb_donors>
2

> <Collection>
Legacy

> <link>
https://www.enaminestore.com/catalog/Z54342712

> <ROCS_ShapeQuery>
_x1140_x0812_0A_x1140_0A_x1097_0A_x0365_0A_x1097_0A_x0310_0A

> <ROCS_TanimotoCombo>
0.639 

> <ROCS_ShapeTanimoto>
0.248 

> <ROCS_ColorTanimoto>
0.391 

> <ROCS_RefTversky>
0.222 

> <ROCS_RefColorTversky>
0.530 

> <ROCS_RefTverskyCombo>
0.752 

> <ROCS_FitTversky>
1.884 

> <ROCS_FitColorTversky>
0.598 

> <ROCS_FitTverskyCombo>
2.482 

> <ROCS_ColorScore>
-4.215

> <ROCS_Overlap>
2276.613

> <ROCS_Rank>
228                 

$$$$
untitled-dbase-195833_48
  -OEChem-02092421083D

 39 40  0     0  0  0  0  0  0999 V2000
    8.1270   12.1444   25.3623 C   0  0  0  0  0  0  0  0  0  0  0  0
    9.0118   12.4054   24.3220 C   0  0  0  0  0  0  0  0  0  0  0  0
   10.9930   15.2466   21.7385 C   0  0  0  0  0  0  0  0  0  0  0  0
    7.6708   10.8450   25.5151 C   0  0  0  0  0  0  0  0  0  0  0  0
   11.1979   16.5215   22.2122 C   0  0  0  0  0  0  0  0  0  0  0  0
    9.4077   11.3737   23.4781 C   0  0  0  0  0  0  0  0  0  0  0  0
   12.1348   14.4994   22.1143 C   0  0  0  0  0  0  0  0  0  0  0  0
   12.9561   15.3711   22.7907 C   0  0  0  0  0  0  0  0  0  0  0  0
    8.8943   10.1088   23.7153 C   0  0  0  0  0  0  0  0  0  0  0  0
   10.3404   11.6612   22.3769 C   0  0  0  0  0  0  0  0  0  0  0  0
   14.2723   15.2279   23.4305 C   0  0  0  0  0  0  0  0  0  0  0  0
   10.6868    8.6912   22.7469 C   0  0  0  0  0  0  0  0  0  0  0  0
    8.3009    8.3204   22.0998 C   0  0  0  0  0  0  0  0  0  0  0  0
   12.2134   11.8292   23.9699 C   0  0  0  0  0  0  0  0  0  0  0  0
   12.3927   13.0480   21.8295 C   0  0  0  0  0  0  0  0  0  0  0  0
    8.0329    9.8168   24.7155 N   0  0  0  0  0  0  0  0  0  0  0  0
    9.2912    9.0520   22.8576 N   0  0  0  0  0  0  0  0  0  0  0  0
   11.6033   12.1726   22.6931 N   0  0  0  0  0  0  0  0  0  0  0  0
    9.9354   11.4132   21.2417 O   0  0  0  0  0  0  0  0  0  0  0  0
   12.3923   16.6058   22.8547 O   0  0  0  0  0  0  0  0  0  0  0  0
    7.8035   12.9335   26.0313 H   0  0  0  0  0  0  0  0  0  0  0  0
    9.3853   13.4159   24.1787 H   0  0  0  0  0  0  0  0  0  0  0  0
   10.1270   14.9025   21.1910 H   0  0  0  0  0  0  0  0  0  0  0  0
    6.9792   10.5895   26.3112 H   0  0  0  0  0  0  0  0  0  0  0  0
   10.6210   17.4340   22.1767 H   0  0  0  0  0  0  0  0  0  0  0  0
   15.0908   15.4438   22.7212 H   0  0  0  0  0  0  0  0  0  0  0  0
   14.3953   15.9077   24.2936 H   0  0  0  0  0  0  0  0  0  0  0  0
   14.4378   14.2087   23.8258 H   0  0  0  0  0  0  0  0  0  0  0  0
   10.7951    7.8560   22.0393 H   0  0  0  0  0  0  0  0  0  0  0  0
   11.2612    9.5562   22.3837 H   0  0  0  0  0  0  0  0  0  0  0  0
   11.0662    8.3873   23.7336 H   0  0  0  0  0  0  0  0  0  0  0  0
    8.7980    7.5456   21.4977 H   0  0  0  0  0  0  0  0  0  0  0  0
    7.5875    7.8466   22.7901 H   0  0  0  0  0  0  0  0  0  0  0  0
    7.7633    9.0125   21.4350 H   0  0  0  0  0  0  0  0  0  0  0  0
   12.8120   10.9134   23.8563 H   0  0  0  0  0  0  0  0  0  0  0  0
   12.8632   12.6534   24.2990 H   0  0  0  0  0  0  0  0  0  0  0  0
   11.4257   11.6616   24.7192 H   0  0  0  0  0  0  0  0  0  0  0  0
   12.1450   12.8086   20.7896 H   0  0  0  0  0  0  0  0  0  0  0  0
   13.4491   12.8002   21.9775 H   0  0  0  0  0  0  0  0  0  0  0  0
  1  2  2  0  0  0  0
  1  4  1  0  0  0  0
  2  6  1  0  0  0  0
  3  5  2  0  0  0  0
  3  7  1  0  0  0  0
  4 16  2  0  0  0  0
  5 20  1  0  0  0  0
  6  9  2  0  0  0  0
  6 10  1  0  0  0  0
  7  8  2  0  0  0  0
  7 15  1  0  0  0  0
  8 11  1  0  0  0  0
  8 20  1  0  0  0  0
  9 16  1  0  0  0  0
  9 17  1  0  0  0  0
 10 18  1  0  0  0  0
 10 19  2  0  0  0  0
 12 17  1  0  0  0  0
 13 17  1  0  0  0  0
 14 18  1  0  0  0  0
 15 18  1  0  0  0  0
  1 21  1  0  0  0  0
  2 22  1  0  0  0  0
  3 23  1  0  0  0  0
  4 24  1  0  0  0  0
  5 25  1  0  0  0  0
 11 26  1  0  0  0  0
 11 27  1  0  0  0  0
 11 28  1  0  0  0  0
 12 29  1  0  0  0  0
 12 30  1  0  0  0  0
 12 31  1  0  0  0  0
 13 32  1  0  0  0  0
 13 33  1  0  0  0  0
 13 34  1  0  0  0  0
 14 35  1  0  0  0  0
 14 36  1  0  0  0  0
 14 37  1  0  0  0  0
 15 38  1  0  0  0  0
 15 39  1  0  0  0  0
M  END
> <idnumber>
Z811811170

> <heavy_atoms>
20

> <LogS>
-2.033

> <LogP>
2.035

> <rotating_bonds>
4

> <PSA>
49.58

> <hb_acceptors>
3

> <hb_donors>
0

> <Collection>
Legacy

> <link>
https://www.enaminestore.com/catalog/Z811811170

> <ROCS_ShapeQuery>
_x1140_x0812_0A_x1140_0A_x1097_0A_x0365_0A_x1097_0A_x0310_0A

> <ROCS_TanimotoCombo>
0.639 

> <ROCS_ShapeTanimoto>
0.245 

> <ROCS_ColorTanimoto>
0.394 

> <ROCS_RefTversky>
0.223 

> <ROCS_RefColorTversky>
0.468 

> <ROCS_RefTverskyCombo>
0.691 

> <ROCS_FitTversky>
1.650 

> <ROCS_FitColorTversky>
0.713 

> <ROCS_FitTverskyCombo>
2.363 

> <ROCS_ColorScore>
-3.672

> <ROCS_Overlap>
2293.239

> <ROCS_Rank>
229                 

$$$$
untitled-dbase-8217_0
  -OEChem-02092421083D

 21 21  0     0  0  0  0  0  0999 V2000
    7.6085   12.1828   25.0136 C   0  0  0  0  0  0  0  0  0  0  0  0
    7.5018   10.8243   25.2644 C   0  0  0  0  0  0  0  0  0  0  0  0
    8.5459   12.5998   24.0752 C   0  0  0  0  0  0  0  0  0  0  0  0
    9.3370   11.6588   23.4255 C   0  0  0  0  0  0  0  0  0  0  0  0
    9.1531   10.3237   23.7475 C   0  0  0  0  0  0  0  0  0  0  0  0
    8.6802   14.0593   23.7873 C   0  0  0  0  0  0  0  0  0  0  0  0
    9.8422    7.9584   23.3529 C   0  0  0  0  0  0  0  0  0  0  0  0
    8.2526    9.8807   24.6533 N   0  0  0  0  0  0  0  0  0  0  0  0
   10.2920   12.0617   22.4705 N   0  0  0  0  0  0  0  0  0  0  0  0
    9.9539    9.3557   23.0904 N   0  0  0  0  0  0  0  0  0  0  0  0
    6.9751   12.8910   25.5370 H   0  0  0  0  0  0  0  0  0  0  0  0
    6.7860   10.4478   25.9876 H   0  0  0  0  0  0  0  0  0  0  0  0
    9.4211   14.5117   24.4564 H   0  0  0  0  0  0  0  0  0  0  0  0
    8.9941   14.2313   22.7504 H   0  0  0  0  0  0  0  0  0  0  0  0
    7.7236   14.5792   23.9218 H   0  0  0  0  0  0  0  0  0  0  0  0
    9.0647    7.7884   24.1123 H   0  0  0  0  0  0  0  0  0  0  0  0
    9.5706    7.4319   22.4260 H   0  0  0  0  0  0  0  0  0  0  0  0
   10.8054    7.5767   23.7226 H   0  0  0  0  0  0  0  0  0  0  0  0
   10.3635   13.0299   22.2290 H   0  0  0  0  0  0  0  0  0  0  0  0
   10.8173   11.3652   21.9809 H   0  0  0  0  0  0  0  0  0  0  0  0
   10.6138    9.6996   22.4236 H   0  0  0  0  0  0  0  0  0  0  0  0
  1  2  1  0  0  0  0
  1  3  2  0  0  0  0
  2  8  2  0  0  0  0
  3  4  1  0  0  0  0
  3  6  1  0  0  0  0
  4  5  2  0  0  0  0
  4  9  1  0  0  0  0
  5  8  1  0  0  0  0
  5 10  1  0  0  0  0
  7 10  1  0  0  0  0
  1 11  1  0  0  0  0
  2 12  1  0  0  0  0
  6 13  1  0  0  0  0
  6 14  1  0  0  0  0
  6 15  1  0  0  0  0
  7 16  1  0  0  0  0
  7 17  1  0  0  0  0
  7 18  1  0  0  0  0
  9 19  1  0  0  0  0
  9 20  1  0  0  0  0
 10 21  1  0  0  0  0
M  END
> <idnumber>
Z1203638672

> <heavy_atoms>
10

> <LogS>
-0.763

> <LogP>
1.238

> <rotating_bonds>
1

> <PSA>
50.94

> <hb_acceptors>
3

> <hb_donors>
2

> <Collection>
Legacy

> <link>
https://www.enaminestore.com/catalog/Z1203638672

> <ROCS_ShapeQuery>
_x1140_x0812_0A_x1140_0A_x1097_0A_x0365_0A_x1097_0A_x0310_0A

> <ROCS_TanimotoCombo>
0.638 

> <ROCS_ShapeTanimoto>
0.201 

> <ROCS_ColorTanimoto>
0.437 

> <ROCS_RefTversky>
0.183 

> <ROCS_RefColorTversky>
0.504 

> <ROCS_RefTverskyCombo>
0.687 

> <ROCS_FitTversky>
1.973 

> <ROCS_FitColorTversky>
0.768 

> <ROCS_FitTverskyCombo>
2.741 

> <ROCS_ColorScore>
-3.957

> <ROCS_Overlap>
1872.683

> <ROCS_Rank>
230                 

$$$$
untitled-dbase-174935_44
  -OEChem-02092421083D

 38 39  0     0  0  0  0  0  0999 V2000
    9.1505   12.3248   25.1260 C   0  0  0  0  0  0  0  0  0  0  0  0
    8.1759   11.7272   25.9175 C   0  0  0  0  0  0  0  0  0  0  0  0
    8.9641   10.5012   23.6107 C   0  0  0  0  0  0  0  0  0  0  0  0
   11.8307   14.4264   21.6157 C   0  0  0  0  0  0  0  0  0  0  0  0
    9.5577   11.7066   23.9490 C   0  0  0  0  0  0  0  0  0  0  0  0
   12.5337   15.0983   22.6305 C   0  0  0  0  0  0  0  0  0  0  0  0
   11.0841   15.4133   21.0285 C   0  0  0  0  0  0  0  0  0  0  0  0
    7.6441   10.5210   25.4909 C   0  0  0  0  0  0  0  0  0  0  0  0
   10.6750   12.1788   21.7414 C   0  0  0  0  0  0  0  0  0  0  0  0
   13.4965   14.5366   23.5929 C   0  0  0  0  0  0  0  0  0  0  0  0
   10.1250   15.4414   19.9164 C   0  0  0  0  0  0  0  0  0  0  0  0
    6.2342   10.5702   27.5330 C   0  0  0  0  0  0  0  0  0  0  0  0
    6.0446    8.6718   25.9178 C   0  0  0  0  0  0  0  0  0  0  0  0
   11.8817   12.9651   21.2539 C   0  0  0  0  0  0  0  0  0  0  0  0
    8.0144    9.8903   24.3539 N   0  0  0  0  0  0  0  0  0  0  0  0
   12.2452   16.4021   22.6698 N   0  0  0  0  0  0  0  0  0  0  0  0
   10.5326   12.2809   23.1368 N   0  0  0  0  0  0  0  0  0  0  0  0
    6.6530    9.9239   26.3091 N   0  0  0  0  0  0  0  0  0  0  0  0
    9.9498   11.5501   20.9772 O   0  0  0  0  0  0  0  0  0  0  0  0
   11.3228   16.5971   21.6488 O   0  0  0  0  0  0  0  0  0  0  0  0
    9.5863   13.2708   25.4362 H   0  0  0  0  0  0  0  0  0  0  0  0
    7.8509   12.2035   26.8370 H   0  0  0  0  0  0  0  0  0  0  0  0
    9.2408    9.9701   22.7049 H   0  0  0  0  0  0  0  0  0  0  0  0
   14.5261   14.5733   23.1975 H   0  0  0  0  0  0  0  0  0  0  0  0
   13.4904   15.0800   24.5547 H   0  0  0  0  0  0  0  0  0  0  0  0
   13.2729   13.4832   23.8401 H   0  0  0  0  0  0  0  0  0  0  0  0
    9.0932   15.2594   20.2673 H   0  0  0  0  0  0  0  0  0  0  0  0
   10.1253   16.4112   19.3845 H   0  0  0  0  0  0  0  0  0  0  0  0
   10.3501   14.6791   19.1470 H   0  0  0  0  0  0  0  0  0  0  0  0
    5.4636    9.9592   28.0257 H   0  0  0  0  0  0  0  0  0  0  0  0
    7.0990   10.6803   28.2038 H   0  0  0  0  0  0  0  0  0  0  0  0
    5.8216   11.5630   27.3006 H   0  0  0  0  0  0  0  0  0  0  0  0
    5.3049    8.3707   26.6743 H   0  0  0  0  0  0  0  0  0  0  0  0
    5.5451    8.7950   24.9455 H   0  0  0  0  0  0  0  0  0  0  0  0
    6.8210    7.8969   25.8356 H   0  0  0  0  0  0  0  0  0  0  0  0
   11.9543   12.8579   20.1641 H   0  0  0  0  0  0  0  0  0  0  0  0
   12.7899   12.5146   21.6741 H   0  0  0  0  0  0  0  0  0  0  0  0
   11.2379   12.8522   23.6187 H   0  0  0  0  0  0  0  0  0  0  0  0
  1  2  2  0  0  0  0
  1  5  1  0  0  0  0
  2  8  1  0  0  0  0
  3  5  2  0  0  0  0
  3 15  1  0  0  0  0
  4  6  1  0  0  0  0
  4  7  2  0  0  0  0
  4 14  1  0  0  0  0
  5 17  1  0  0  0  0
  6 10  1  0  0  0  0
  6 16  2  0  0  0  0
  7 11  1  0  0  0  0
  7 20  1  0  0  0  0
  8 15  2  0  0  0  0
  8 18  1  0  0  0  0
  9 14  1  0  0  0  0
  9 17  1  0  0  0  0
  9 19  2  0  0  0  0
 12 18  1  0  0  0  0
 13 18  1  0  0  0  0
 16 20  1  0  0  0  0
  1 21  1  0  0  0  0
  2 22  1  0  0  0  0
  3 23  1  0  0  0  0
 10 24  1  0  0  0  0
 10 25  1  0  0  0  0
 10 26  1  0  0  0  0
 11 27  1  0  0  0  0
 11 28  1  0  0  0  0
 11 29  1  0  0  0  0
 12 30  1  0  0  0  0
 12 31  1  0  0  0  0
 12 32  1  0  0  0  0
 13 33  1  0  0  0  0
 13 34  1  0  0  0  0
 13 35  1  0  0  0  0
 14 36  1  0  0  0  0
 14 37  1  0  0  0  0
 17 38  1  0  0  0  0
M  END
> <idnumber>
Z227281334

> <heavy_atoms>
20

> <LogS>
-1.049

> <LogP>
1.161

> <rotating_bonds>
4

> <PSA>
71.26

> <hb_acceptors>
4

> <hb_donors>
1

> <Collection>
HTS

> <link>
https://www.enaminestore.com/catalog/Z227281334

> <ROCS_ShapeQuery>
_x1140_x0812_0A_x1140_0A_x1097_0A_x0365_0A_x1097_0A_x0310_0A

> <ROCS_TanimotoCombo>
0.638 

> <ROCS_ShapeTanimoto>
0.214 

> <ROCS_ColorTanimoto>
0.424 

> <ROCS_RefTversky>
0.200 

> <ROCS_RefColorTversky>
0.528 

> <ROCS_RefTverskyCombo>
0.728 

> <ROCS_FitTversky>
1.482 

> <ROCS_FitColorTversky>
0.683 

> <ROCS_FitTverskyCombo>
2.165 

> <ROCS_ColorScore>
-4.168

> <ROCS_Overlap>
2056.822

> <ROCS_Rank>
231                 

$$$$
untitled-dbase-911993_11
  -OEChem-02092421083D

 33 34  0     0  0  0  0  0  0999 V2000
    8.9703   12.4747   24.9158 C   0  0  0  0  0  0  0  0  0  0  0  0
    7.7596   12.0398   25.4435 C   0  0  0  0  0  0  0  0  0  0  0  0
   11.3504   15.7613   23.0204 C   0  0  0  0  0  0  0  0  0  0  0  0
   12.0421   15.3151   20.9814 C   0  0  0  0  0  0  0  0  0  0  0  0
    9.7430   11.6047   24.1546 C   0  0  0  0  0  0  0  0  0  0  0  0
   11.0956   14.9422   21.9042 C   0  0  0  0  0  0  0  0  0  0  0  0
    9.2644   10.3204   23.9518 C   0  0  0  0  0  0  0  0  0  0  0  0
    7.3696   10.7360   25.1828 C   0  0  0  0  0  0  0  0  0  0  0  0
   13.8943   17.0027   20.9966 C   0  0  0  0  0  0  0  0  0  0  0  0
   11.0411   12.0648   23.5872 C   0  0  0  0  0  0  0  0  0  0  0  0
   10.0337   13.8967   21.7549 C   0  0  0  0  0  0  0  0  0  0  0  0
   10.0524    9.3429   23.1428 C   0  0  0  0  0  0  0  0  0  0  0  0
   12.3785   16.5917   22.8266 N   0  0  0  0  0  0  0  0  0  0  0  0
    8.0934    9.8619   24.4481 N   0  0  0  0  0  0  0  0  0  0  0  0
   12.7780   16.2964   21.5779 N   0  0  0  0  0  0  0  0  0  0  0  0
    9.8735   11.3160   21.3716 O   0  0  0  0  0  0  0  0  0  0  0  0
   12.1352   12.4294   21.2415 O   0  0  0  0  0  0  0  0  0  0  0  0
   11.2253    9.8514   22.6642 F   0  0  0  0  0  0  0  0  0  0  0  0
   10.4049    8.2212   23.8361 F   0  0  0  0  0  0  0  0  0  0  0  0
    9.3697    8.8996   22.0482 F   0  0  0  0  0  0  0  0  0  0  0  0
   10.8226   12.3058   21.8531 S   0  0  0  0  0  0  0  0  0  0  0  0
    5.8915   10.1137   25.7927 Cl  0  0  0  0  0  0  0  0  0  0  0  0
    9.3029   13.4920   25.1030 H   0  0  0  0  0  0  0  0  0  0  0  0
    7.1495   12.7109   26.0386 H   0  0  0  0  0  0  0  0  0  0  0  0
   10.8319   15.7889   23.9684 H   0  0  0  0  0  0  0  0  0  0  0  0
   12.2504   14.9733   19.9766 H   0  0  0  0  0  0  0  0  0  0  0  0
   13.5043   17.8854   20.4830 H   0  0  0  0  0  0  0  0  0  0  0  0
   14.5906   17.2967   21.7869 H   0  0  0  0  0  0  0  0  0  0  0  0
   14.4101   16.3453   20.2911 H   0  0  0  0  0  0  0  0  0  0  0  0
   11.8421   11.3286   23.7258 H   0  0  0  0  0  0  0  0  0  0  0  0
   11.3722   13.0168   24.0195 H   0  0  0  0  0  0  0  0  0  0  0  0
    9.5239   13.9653   20.7899 H   0  0  0  0  0  0  0  0  0  0  0  0
    9.2857   13.9558   22.5506 H   0  0  0  0  0  0  0  0  0  0  0  0
  1  2  2  0  0  0  0
  1  5  1  0  0  0  0
  2  8  1  0  0  0  0
  3  6  1  0  0  0  0
  3 13  2  0  0  0  0
  4  6  2  0  0  0  0
  4 15  1  0  0  0  0
  5  7  2  0  0  0  0
  5 10  1  0  0  0  0
  6 11  1  0  0  0  0
  7 12  1  0  0  0  0
  7 14  1  0  0  0  0
  8 14  2  0  0  0  0
  8 22  1  0  0  0  0
  9 15  1  0  0  0  0
 10 21  1  0  0  0  0
 11 21  1  0  0  0  0
 12 18  1  0  0  0  0
 12 19  1  0  0  0  0
 12 20  1  0  0  0  0
 13 15  1  0  0  0  0
 16 21  2  0  0  0  0
 17 21  2  0  0  0  0
  1 23  1  0  0  0  0
  2 24  1  0  0  0  0
  3 25  1  0  0  0  0
  4 26  1  0  0  0  0
  9 27  1  0  0  0  0
  9 28  1  0  0  0  0
  9 29  1  0  0  0  0
 10 30  1  0  0  0  0
 10 31  1  0  0  0  0
 11 32  1  0  0  0  0
 11 33  1  0  0  0  0
M  END
> <idnumber>
Z2475297728

> <heavy_atoms>
22

> <LogS>
-2.536

> <LogP>
0.318

> <rotating_bonds>
5

> <PSA>
64.85

> <hb_acceptors>
4

> <hb_donors>
0

> <Collection>
Advanced

> <link>
https://www.enaminestore.com/catalog/Z2475297728

> <ROCS_ShapeQuery>
_x1140_x0812_0A_x1140_0A_x1097_0A_x0365_0A_x1097_0A_x0310_0A

> <ROCS_TanimotoCombo>
0.638 

> <ROCS_ShapeTanimoto>
0.266 

> <ROCS_ColorTanimoto>
0.372 

> <ROCS_RefTversky>
0.241 

> <ROCS_RefColorTversky>
0.480 

> <ROCS_RefTverskyCombo>
0.721 

> <ROCS_FitTversky>
1.673 

> <ROCS_FitColorTversky>
0.622 

> <ROCS_FitTverskyCombo>
2.295 

> <ROCS_ColorScore>
-3.795

> <ROCS_Overlap>
2471.770

> <ROCS_Rank>
232                 

$$$$
untitled-dbase-704128_34
  -OEChem-02092421083D

 25 25  0     0  0  0  0  0  0999 V2000
    7.1666   11.7595   25.1629 C   0  0  0  0  0  0  0  0  0  0  0  0
    7.2543   10.3826   25.2900 C   0  0  0  0  0  0  0  0  0  0  0  0
    9.0465   11.6472   23.6670 C   0  0  0  0  0  0  0  0  0  0  0  0
    8.0836   12.3962   24.3340 C   0  0  0  0  0  0  0  0  0  0  0  0
    9.0502   10.2753   23.8612 C   0  0  0  0  0  0  0  0  0  0  0  0
   10.0231   12.2822   22.7921 C   0  0  0  0  0  0  0  0  0  0  0  0
   12.0042   15.2571   23.3086 C   0  0  0  0  0  0  0  0  0  0  0  0
    8.0114   13.8800   24.1800 C   0  0  0  0  0  0  0  0  0  0  0  0
   11.7859   13.8851   22.7157 C   0  0  0  0  0  0  0  0  0  0  0  0
    8.1757    9.6213   24.6583 N   0  0  0  0  0  0  0  0  0  0  0  0
   11.7663   15.2861   24.6654 N   0  0  0  0  0  0  0  0  0  0  0  0
   10.1466   12.0328   21.5870 O   0  0  0  0  0  0  0  0  0  0  0  0
   12.3531   16.2339   22.6521 O   0  0  0  0  0  0  0  0  0  0  0  0
    9.9822    9.4982   23.2234 O   0  0  0  0  0  0  0  0  0  0  0  0
   10.7867   13.1911   23.4705 O   0  0  0  0  0  0  0  0  0  0  0  0
    6.4029   12.3145   25.6971 H   0  0  0  0  0  0  0  0  0  0  0  0
    6.5625    9.8383   25.9247 H   0  0  0  0  0  0  0  0  0  0  0  0
    8.6337   14.3712   24.9370 H   0  0  0  0  0  0  0  0  0  0  0  0
    8.3568   14.1927   23.1869 H   0  0  0  0  0  0  0  0  0  0  0  0
    6.9806   14.2399   24.2875 H   0  0  0  0  0  0  0  0  0  0  0  0
   12.7216   13.3189   22.7505 H   0  0  0  0  0  0  0  0  0  0  0  0
   11.4497   13.9849   21.6791 H   0  0  0  0  0  0  0  0  0  0  0  0
   11.4790   14.4499   25.1631 H   0  0  0  0  0  0  0  0  0  0  0  0
   11.8683   16.1327   25.2162 H   0  0  0  0  0  0  0  0  0  0  0  0
    9.8517    8.5700   23.4618 H   0  0  0  0  0  0  0  0  0  0  0  0
  1  2  2  0  0  0  0
  1  4  1  0  0  0  0
  2 10  1  0  0  0  0
  3  4  2  0  0  0  0
  3  5  1  0  0  0  0
  3  6  1  0  0  0  0
  4  8  1  0  0  0  0
  5 10  2  0  0  0  0
  5 14  1  0  0  0  0
  6 12  2  0  0  0  0
  6 15  1  0  0  0  0
  7  9  1  0  0  0  0
  7 11  1  0  0  0  0
  7 13  2  0  0  0  0
  9 15  1  0  0  0  0
  1 16  1  0  0  0  0
  2 17  1  0  0  0  0
  8 18  1  0  0  0  0
  8 19  1  0  0  0  0
  8 20  1  0  0  0  0
  9 21  1  0  0  0  0
  9 22  1  0  0  0  0
 11 23  1  0  0  0  0
 11 24  1  0  0  0  0
 14 25  1  0  0  0  0
M  END
> <idnumber>
Z1620919894

> <heavy_atoms>
15

> <LogS>
-1.35

> <LogP>
0.464

> <rotating_bonds>
4

> <PSA>
102.51

> <hb_acceptors>
4

> <hb_donors>
2

> <Collection>
Legacy

> <link>
https://www.enaminestore.com/catalog/Z1620919894

> <ROCS_ShapeQuery>
_x1140_x0812_0A_x1140_0A_x1097_0A_x0365_0A_x1097_0A_x0310_0A

> <ROCS_TanimotoCombo>
0.638 

> <ROCS_ShapeTanimoto>
0.246 

> <ROCS_ColorTanimoto>
0.393 

> <ROCS_RefTversky>
0.220 

> <ROCS_RefColorTversky>
0.532 

> <ROCS_RefTverskyCombo>
0.752 

> <ROCS_FitTversky>
1.928 

> <ROCS_FitColorTversky>
0.599 

> <ROCS_FitTverskyCombo>
2.527 

> <ROCS_ColorScore>
-4.231

> <ROCS_Overlap>
2251.965

> <ROCS_Rank>
233                 

$$$$
untitled-dbase-519545_33
  -OEChem-02092421083D

 28 29  0     0  0  0  0  0  0999 V2000
    8.8476   12.4018   24.6911 C   0  0  0  0  0  0  0  0  0  0  0  0
    8.8281   10.2963   23.5852 C   0  0  0  0  0  0  0  0  0  0  0  0
    7.6732   10.5242   25.5582 C   0  0  0  0  0  0  0  0  0  0  0  0
    9.2519   11.6150   23.6184 C   0  0  0  0  0  0  0  0  0  0  0  0
    8.0431   11.8535   25.6839 C   0  0  0  0  0  0  0  0  0  0  0  0
   10.1094   12.1717   22.5405 C   0  0  0  0  0  0  0  0  0  0  0  0
   12.5957   14.9860   22.5557 C   0  0  0  0  0  0  0  0  0  0  0  0
   11.3580   14.0503   20.5308 C   0  0  0  0  0  0  0  0  0  0  0  0
   12.4516   13.0824   20.8637 C   0  0  0  0  0  0  0  0  0  0  0  0
   11.8049   13.8894   21.9652 C   0  0  0  0  0  0  0  0  0  0  0  0
   14.6884   15.4766   23.5375 C   0  0  0  0  0  0  0  0  0  0  0  0
    8.0464    9.7285   24.5309 N   0  0  0  0  0  0  0  0  0  0  0  0
   10.9421   13.2342   22.8944 N   0  0  0  0  0  0  0  0  0  0  0  0
   10.0347   11.6984   21.4096 O   0  0  0  0  0  0  0  0  0  0  0  0
   12.1952   16.1368   22.6668 O   0  0  0  0  0  0  0  0  0  0  0  0
   13.8135   14.5117   22.9445 O   0  0  0  0  0  0  0  0  0  0  0  0
    7.6384   12.5869   26.7271 F   0  0  0  0  0  0  0  0  0  0  0  0
    9.1541   13.4419   24.7632 H   0  0  0  0  0  0  0  0  0  0  0  0
    9.1089    9.6334   22.7723 H   0  0  0  0  0  0  0  0  0  0  0  0
    7.0472   10.0488   26.3060 H   0  0  0  0  0  0  0  0  0  0  0  0
   11.6312   14.9544   19.9995 H   0  0  0  0  0  0  0  0  0  0  0  0
   10.3969   13.6421   20.2407 H   0  0  0  0  0  0  0  0  0  0  0  0
   12.2242   12.0248   20.7968 H   0  0  0  0  0  0  0  0  0  0  0  0
   13.4591   13.3366   20.5558 H   0  0  0  0  0  0  0  0  0  0  0  0
   15.6307   14.9956   23.8109 H   0  0  0  0  0  0  0  0  0  0  0  0
   14.2139   15.9034   24.4247 H   0  0  0  0  0  0  0  0  0  0  0  0
   14.8842   16.2711   22.8136 H   0  0  0  0  0  0  0  0  0  0  0  0
   10.8927   13.6051   23.8466 H   0  0  0  0  0  0  0  0  0  0  0  0
  1  4  2  0  0  0  0
  1  5  1  0  0  0  0
  2  4  1  0  0  0  0
  2 12  2  0  0  0  0
  3  5  2  0  0  0  0
  3 12  1  0  0  0  0
  4  6  1  0  0  0  0
  5 17  1  0  0  0  0
  6 13  1  0  0  0  0
  6 14  2  0  0  0  0
  7 10  1  0  0  0  0
  7 15  2  0  0  0  0
  7 16  1  0  0  0  0
  8  9  1  0  0  0  0
  8 10  1  0  0  0  0
  9 10  1  0  0  0  0
 10 13  1  0  0  0  0
 11 16  1  0  0  0  0
  1 18  1  0  0  0  0
  2 19  1  0  0  0  0
  3 20  1  0  0  0  0
  8 21  1  0  0  0  0
  8 22  1  0  0  0  0
  9 23  1  0  0  0  0
  9 24  1  0  0  0  0
 11 25  1  0  0  0  0
 11 26  1  0  0  0  0
 11 27  1  0  0  0  0
 13 28  1  0  0  0  0
M  END
> <idnumber>
Z1552953101

> <heavy_atoms>
17

> <LogS>
-1.707

> <LogP>
0.587

> <rotating_bonds>
4

> <PSA>
68.29

> <hb_acceptors>
3

> <hb_donors>
1

> <Collection>
Legacy

> <link>
https://www.enaminestore.com/catalog/Z1552953101

> <ROCS_ShapeQuery>
_x1140_x0812_0A_x1140_0A_x1097_0A_x0365_0A_x1097_0A_x0310_0A

> <ROCS_TanimotoCombo>
0.638 

> <ROCS_ShapeTanimoto>
0.214 

> <ROCS_ColorTanimoto>
0.424 

> <ROCS_RefTversky>
0.198 

> <ROCS_RefColorTversky>
0.493 

> <ROCS_RefTverskyCombo>
0.691 

> <ROCS_FitTversky>
1.608 

> <ROCS_FitColorTversky>
0.752 

> <ROCS_FitTverskyCombo>
2.359 

> <ROCS_ColorScore>
-3.873

> <ROCS_Overlap>
2027.596

> <ROCS_Rank>
234                 

$$$$
untitled-dbase-363673_91
  -OEChem-02092421083D

 42 44  0     0  0  0  0  0  0999 V2000
    8.5722   12.6042   24.5766 C   0  0  0  0  0  0  0  0  0  0  0  0
    8.0506    9.8630   24.4122 C   0  0  0  0  0  0  0  0  0  0  0  0
   12.2863   15.3084   23.1292 C   0  0  0  0  0  0  0  0  0  0  0  0
   13.5867   15.1660   21.3618 C   0  0  0  0  0  0  0  0  0  0  0  0
    7.5428   12.0478   25.3432 C   0  0  0  0  0  0  0  0  0  0  0  0
   12.9729   14.3890   22.3136 C   0  0  0  0  0  0  0  0  0  0  0  0
    7.2853   10.6740   25.2533 C   0  0  0  0  0  0  0  0  0  0  0  0
    9.3243   11.7977   23.7213 C   0  0  0  0  0  0  0  0  0  0  0  0
    9.0655   10.4294   23.6413 C   0  0  0  0  0  0  0  0  0  0  0  0
    5.3625   10.8253   26.7790 C   0  0  0  0  0  0  0  0  0  0  0  0
   10.8198   11.9524   21.6925 C   0  0  0  0  0  0  0  0  0  0  0  0
    6.7833   12.8748   26.3401 C   0  0  0  0  0  0  0  0  0  0  0  0
    5.3804   12.3234   26.5457 C   0  0  0  0  0  0  0  0  0  0  0  0
   13.6519   17.6333   20.9297 C   0  0  0  0  0  0  0  0  0  0  0  0
   12.8530   11.8506   20.2186 C   0  0  0  0  0  0  0  0  0  0  0  0
   13.0262   12.8950   22.4525 C   0  0  0  0  0  0  0  0  0  0  0  0
   12.4485   16.5728   22.7305 N   0  0  0  0  0  0  0  0  0  0  0  0
   13.2441   16.4534   21.6540 N   0  0  0  0  0  0  0  0  0  0  0  0
    6.2692   10.0952   26.0347 N   0  0  0  0  0  0  0  0  0  0  0  0
   10.3462   12.3615   22.9565 N   0  0  0  0  0  0  0  0  0  0  0  0
   12.1885   12.2234   21.4610 N   0  0  0  0  0  0  0  0  0  0  0  0
    4.5246   10.3032   27.5144 O   0  0  0  0  0  0  0  0  0  0  0  0
   10.1184   11.3853   20.8520 O   0  0  0  0  0  0  0  0  0  0  0  0
    9.7899    9.6471   22.8283 F   0  0  0  0  0  0  0  0  0  0  0  0
    8.7924   13.6665   24.6565 H   0  0  0  0  0  0  0  0  0  0  0  0
    7.8616    8.7951   24.3440 H   0  0  0  0  0  0  0  0  0  0  0  0
   11.6746   15.1122   23.9985 H   0  0  0  0  0  0  0  0  0  0  0  0
   14.2234   14.9187   20.5232 H   0  0  0  0  0  0  0  0  0  0  0  0
    7.3342   12.8615   27.2885 H   0  0  0  0  0  0  0  0  0  0  0  0
    6.7151   13.9165   26.0058 H   0  0  0  0  0  0  0  0  0  0  0  0
    4.7615   12.5190   25.6609 H   0  0  0  0  0  0  0  0  0  0  0  0
    4.9098   12.8212   27.4002 H   0  0  0  0  0  0  0  0  0  0  0  0
   12.9091   17.8244   20.1508 H   0  0  0  0  0  0  0  0  0  0  0  0
   13.7106   18.4810   21.6181 H   0  0  0  0  0  0  0  0  0  0  0  0
   14.6370   17.4629   20.4866 H   0  0  0  0  0  0  0  0  0  0  0  0
   12.7691   12.6753   19.4956 H   0  0  0  0  0  0  0  0  0  0  0  0
   13.9149   11.6448   20.4184 H   0  0  0  0  0  0  0  0  0  0  0  0
   12.3766   10.9499   19.8042 H   0  0  0  0  0  0  0  0  0  0  0  0
   14.0523   12.5321   22.3285 H   0  0  0  0  0  0  0  0  0  0  0  0
   12.6876   12.5803   23.4452 H   0  0  0  0  0  0  0  0  0  0  0  0
    6.1977    9.0818   26.0528 H   0  0  0  0  0  0  0  0  0  0  0  0
   10.8121   13.1768   23.3654 H   0  0  0  0  0  0  0  0  0  0  0  0
  1  5  2  0  0  0  0
  1  8  1  0  0  0  0
  2  7  2  0  0  0  0
  2  9  1  0  0  0  0
  3  6  1  0  0  0  0
  3 17  2  0  0  0  0
  4  6  2  0  0  0  0
  4 18  1  0  0  0  0
  5  7  1  0  0  0  0
  5 12  1  0  0  0  0
  6 16  1  0  0  0  0
  7 19  1  0  0  0  0
  8  9  2  0  0  0  0
  8 20  1  0  0  0  0
  9 24  1  0  0  0  0
 10 13  1  0  0  0  0
 10 19  1  0  0  0  0
 10 22  2  0  0  0  0
 11 20  1  0  0  0  0
 11 21  1  0  0  0  0
 11 23  2  0  0  0  0
 12 13  1  0  0  0  0
 14 18  1  0  0  0  0
 15 21  1  0  0  0  0
 16 21  1  0  0  0  0
 17 18  1  0  0  0  0
  1 25  1  0  0  0  0
  2 26  1  0  0  0  0
  3 27  1  0  0  0  0
  4 28  1  0  0  0  0
 12 29  1  0  0  0  0
 12 30  1  0  0  0  0
 13 31  1  0  0  0  0
 13 32  1  0  0  0  0
 14 33  1  0  0  0  0
 14 34  1  0  0  0  0
 14 35  1  0  0  0  0
 15 36  1  0  0  0  0
 15 37  1  0  0  0  0
 15 38  1  0  0  0  0
 16 39  1  0  0  0  0
 16 40  1  0  0  0  0
 19 41  1  0  0  0  0
 20 42  1  0  0  0  0
M  END
> <idnumber>
Z1756320413

> <heavy_atoms>
24

> <LogS>
-1.829

> <LogP>
0.007

> <rotating_bonds>
3

> <PSA>
79.26

> <hb_acceptors>
3

> <hb_donors>
2

> <Collection>
HTS

> <link>
https://www.enaminestore.com/catalog/Z1756320413

> <ROCS_ShapeQuery>
_x1140_x0812_0A_x1140_0A_x1097_0A_x0365_0A_x1097_0A_x0310_0A

> <ROCS_TanimotoCombo>
0.638 

> <ROCS_ShapeTanimoto>
0.277 

> <ROCS_ColorTanimoto>
0.361 

> <ROCS_RefTversky>
0.250 

> <ROCS_RefColorTversky>
0.530 

> <ROCS_RefTverskyCombo>
0.781 

> <ROCS_FitTversky>
1.629 

> <ROCS_FitColorTversky>
0.530 

> <ROCS_FitTverskyCombo>
2.159 

> <ROCS_ColorScore>
-4.241

> <ROCS_Overlap>
2573.258

> <ROCS_Rank>
235                 

$$$$
untitled-dbase-920425_37
  -OEChem-02092421083D

 29 30  0     0  0  0  0  0  0999 V2000
    8.8092   12.3017   24.5547 C   0  0  0  0  0  0  0  0  0  0  0  0
    7.5048   10.5527   25.5013 C   0  0  0  0  0  0  0  0  0  0  0  0
   13.7302   14.8364   23.2953 C   0  0  0  0  0  0  0  0  0  0  0  0
    9.3152   11.3870   23.6379 C   0  0  0  0  0  0  0  0  0  0  0  0
    7.8863   11.8847   25.5074 C   0  0  0  0  0  0  0  0  0  0  0  0
   12.6751   14.2723   22.6286 C   0  0  0  0  0  0  0  0  0  0  0  0
   11.8821   15.3743   22.2645 C   0  0  0  0  0  0  0  0  0  0  0  0
    8.8698   10.0772   23.7155 C   0  0  0  0  0  0  0  0  0  0  0  0
   10.2807   11.8345   22.6445 C   0  0  0  0  0  0  0  0  0  0  0  0
   10.6092   15.3717   21.5240 C   0  0  0  0  0  0  0  0  0  0  0  0
   12.4346   12.8165   22.3561 C   0  0  0  0  0  0  0  0  0  0  0  0
    7.3253   12.8387   26.5012 C   0  0  0  0  0  0  0  0  0  0  0  0
    7.9744    9.6350   24.6268 N   0  0  0  0  0  0  0  0  0  0  0  0
   12.4055   16.5332   22.6742 N   0  0  0  0  0  0  0  0  0  0  0  0
   10.1067   11.7680   21.4213 O   0  0  0  0  0  0  0  0  0  0  0  0
   13.5808   16.1853   23.3292 O   0  0  0  0  0  0  0  0  0  0  0  0
   11.4072   12.3406   23.2323 O   0  0  0  0  0  0  0  0  0  0  0  0
    7.8026   14.1138   26.3721 F   0  0  0  0  0  0  0  0  0  0  0  0
    5.9650   12.9636   26.4376 F   0  0  0  0  0  0  0  0  0  0  0  0
    7.5964   12.4792   27.7913 F   0  0  0  0  0  0  0  0  0  0  0  0
    9.4191    8.8503   22.6409 Cl  0  0  0  0  0  0  0  0  0  0  0  0
    9.1305   13.3405   24.5285 H   0  0  0  0  0  0  0  0  0  0  0  0
    6.7886   10.1690   26.2215 H   0  0  0  0  0  0  0  0  0  0  0  0
   14.6157   14.4484   23.7770 H   0  0  0  0  0  0  0  0  0  0  0  0
    9.7474   15.2929   22.2088 H   0  0  0  0  0  0  0  0  0  0  0  0
   10.4738   16.2891   20.9238 H   0  0  0  0  0  0  0  0  0  0  0  0
   10.5439   14.5314   20.8097 H   0  0  0  0  0  0  0  0  0  0  0  0
   12.1205   12.6588   21.3186 H   0  0  0  0  0  0  0  0  0  0  0  0
   13.3474   12.2347   22.5234 H   0  0  0  0  0  0  0  0  0  0  0  0
  1  4  1  0  0  0  0
  1  5  2  0  0  0  0
  2  5  1  0  0  0  0
  2 13  2  0  0  0  0
  3  6  2  0  0  0  0
  3 16  1  0  0  0  0
  4  8  2  0  0  0  0
  4  9  1  0  0  0  0
  5 12  1  0  0  0  0
  6  7  1  0  0  0  0
  6 11  1  0  0  0  0
  7 10  1  0  0  0  0
  7 14  2  0  0  0  0
  8 13  1  0  0  0  0
  8 21  1  0  0  0  0
  9 15  2  0  0  0  0
  9 17  1  0  0  0  0
 11 17  1  0  0  0  0
 12 18  1  0  0  0  0
 12 19  1  0  0  0  0
 12 20  1  0  0  0  0
 14 16  1  0  0  0  0
  1 22  1  0  0  0  0
  2 23  1  0  0  0  0
  3 24  1  0  0  0  0
 10 25  1  0  0  0  0
 10 26  1  0  0  0  0
 10 27  1  0  0  0  0
 11 28  1  0  0  0  0
 11 29  1  0  0  0  0
M  END
> <idnumber>
Z2588709592

> <heavy_atoms>
21

> <LogS>
-3.346

> <LogP>
2.011

> <rotating_bonds>
5

> <PSA>
65.22

> <hb_acceptors>
3

> <hb_donors>
0

> <Collection>
Functional

> <link>
https://www.enaminestore.com/catalog/Z2588709592

> <ROCS_ShapeQuery>
_x1140_x0812_0A_x1140_0A_x1097_0A_x0365_0A_x1097_0A_x0310_0A

> <ROCS_TanimotoCombo>
0.638 

> <ROCS_ShapeTanimoto>
0.260 

> <ROCS_ColorTanimoto>
0.378 

> <ROCS_RefTversky>
0.235 

> <ROCS_RefColorTversky>
0.454 

> <ROCS_RefTverskyCombo>
0.689 

> <ROCS_FitTversky>
1.675 

> <ROCS_FitColorTversky>
0.693 

> <ROCS_FitTverskyCombo>
2.367 

> <ROCS_ColorScore>
-3.567

> <ROCS_Overlap>
2412.983

> <ROCS_Rank>
236                 

$$$$
untitled-dbase-1071776_92
  -OEChem-02092421083D

 34 37  0     0  0  0  0  0  0999 V2000
    6.4786   12.4450   25.9404 C   0  0  0  0  0  0  0  0  0  0  0  0
    8.4940   12.5472   24.2749 C   0  0  0  0  0  0  0  0  0  0  0  0
   11.0678   16.9088   22.6731 C   0  0  0  0  0  0  0  0  0  0  0  0
    9.1266   10.3251   23.6474 C   0  0  0  0  0  0  0  0  0  0  0  0
    5.8100   11.3498   26.4435 C   0  0  0  0  0  0  0  0  0  0  0  0
   10.3735   16.0599   21.8437 C   0  0  0  0  0  0  0  0  0  0  0  0
   12.4834   15.4528   22.0350 C   0  0  0  0  0  0  0  0  0  0  0  0
    7.4967   11.9656   25.0744 C   0  0  0  0  0  0  0  0  0  0  0  0
    9.3238   11.6958   23.5477 C   0  0  0  0  0  0  0  0  0  0  0  0
    7.4106   10.5764   25.0812 C   0  0  0  0  0  0  0  0  0  0  0  0
    9.6772   13.1255   20.5642 C   0  0  0  0  0  0  0  0  0  0  0  0
   11.7325   12.5375   20.7502 C   0  0  0  0  0  0  0  0  0  0  0  0
   11.0281   13.9001   20.4614 C   0  0  0  0  0  0  0  0  0  0  0  0
   10.4043   11.9802   21.2871 C   0  0  0  0  0  0  0  0  0  0  0  0
   12.3807   16.5256   22.7878 N   0  0  0  0  0  0  0  0  0  0  0  0
    8.1844    9.7105   24.3999 N   0  0  0  0  0  0  0  0  0  0  0  0
    6.3837   10.2220   25.9161 N   0  0  0  0  0  0  0  0  0  0  0  0
   11.2936   15.1327   21.4424 N   0  0  0  0  0  0  0  0  0  0  0  0
   10.3416   12.2172   22.7287 N   0  0  0  0  0  0  0  0  0  0  0  0
    6.2552   13.4770   26.1735 H   0  0  0  0  0  0  0  0  0  0  0  0
    8.6115   13.6256   24.2273 H   0  0  0  0  0  0  0  0  0  0  0  0
   10.6891   17.7763   23.1935 H   0  0  0  0  0  0  0  0  0  0  0  0
    9.7598    9.6380   23.0906 H   0  0  0  0  0  0  0  0  0  0  0  0
    4.9780   11.2725   27.1291 H   0  0  0  0  0  0  0  0  0  0  0  0
    9.3433   16.0368   21.5169 H   0  0  0  0  0  0  0  0  0  0  0  0
   13.3830   14.8725   21.8819 H   0  0  0  0  0  0  0  0  0  0  0  0
    8.8953   13.6355   21.1602 H   0  0  0  0  0  0  0  0  0  0  0  0
    9.2226   12.8548   19.5953 H   0  0  0  0  0  0  0  0  0  0  0  0
   12.1313   12.0227   19.8589 H   0  0  0  0  0  0  0  0  0  0  0  0
   12.5520   12.5878   21.4934 H   0  0  0  0  0  0  0  0  0  0  0  0
   11.2356   14.2827   19.3841 H   0  0  0  0  0  0  0  0  0  0  0  0
   10.1435   10.9941   21.0147 H   0  0  0  0  0  0  0  0  0  0  0  0
    6.0932    9.2745   26.1133 H   0  0  0  0  0  0  0  0  0  0  0  0
   11.0485   12.7740   23.1746 H   0  0  0  0  0  0  0  0  0  0  0  0
  1  5  2  0  0  0  0
  1  8  1  0  0  0  0
  2  8  1  0  0  0  0
  2  9  2  0  0  0  0
  3  6  2  0  0  0  0
  3 15  1  0  0  0  0
  4  9  1  0  0  0  0
  4 16  2  0  0  0  0
  5 17  1  0  0  0  0
  6 18  1  0  0  0  0
  7 15  2  0  0  0  0
  7 18  1  0  0  0  0
  8 10  2  0  0  0  0
  9 19  1  0  0  0  0
 10 16  1  0  0  0  0
 10 17  1  0  0  0  0
 11 13  1  0  0  0  0
 11 14  1  0  0  0  0
 12 13  1  0  0  0  0
 12 14  1  0  0  0  0
 13 18  1  0  0  0  0
 14 19  1  0  0  0  0
  1 20  1  0  0  0  0
  2 21  1  0  0  0  0
  3 22  1  0  0  0  0
  4 23  1  0  0  0  0
  5 24  1  0  0  0  0
  6 25  1  0  0  0  0
  7 26  1  0  0  0  0
 11 27  1  0  0  0  0
 11 28  1  0  0  0  0
 12 29  1  0  0  0  0
 12 30  1  0  0  0  0
 13 31  1  0  0  0  0
 14 32  1  0  0  0  0
 17 33  1  0  0  0  0
 19 34  1  0  0  0  0
M  END
> <idnumber>
Z4116704418

> <heavy_atoms>
19

> <LogS>
-2.964

> <LogP>
1.223

> <rotating_bonds>
3

> <PSA>
58.53

> <hb_acceptors>
3

> <hb_donors>
2

> <Collection>
Advanced

> <link>
https://www.enaminestore.com/catalog/Z4116704418

> <ROCS_ShapeQuery>
_x1140_x0812_0A_x1140_0A_x1097_0A_x0365_0A_x1097_0A_x0310_0A

> <ROCS_TanimotoCombo>
0.638 

> <ROCS_ShapeTanimoto>
0.249 

> <ROCS_ColorTanimoto>
0.388 

> <ROCS_RefTversky>
0.226 

> <ROCS_RefColorTversky>
0.591 

> <ROCS_RefTverskyCombo>
0.818 

> <ROCS_FitTversky>
1.683 

> <ROCS_FitColorTversky>
0.531 

> <ROCS_FitTverskyCombo>
2.214 

> <ROCS_ColorScore>
-4.760

> <ROCS_Overlap>
2324.953

> <ROCS_Rank>
237                 

$$$$
untitled-dbase-800193_147
  -OEChem-02092421083D

 49 51  0     0  0  0  0  0  0999 V2000
    8.5191   11.9459   24.3274 C   0  0  0  0  0  0  0  0  0  0  0  0
    8.0114   10.7409   24.8117 C   0  0  0  0  0  0  0  0  0  0  0  0
    9.4768   11.5960   23.4228 C   0  0  0  0  0  0  0  0  0  0  0  0
   13.1287   15.5479   22.7494 C   0  0  0  0  0  0  0  0  0  0  0  0
   10.4036   13.7651   22.5394 C   0  0  0  0  0  0  0  0  0  0  0  0
    7.8662   13.1138   24.9376 C   0  0  0  0  0  0  0  0  0  0  0  0
    6.9491   10.9249   25.8136 C   0  0  0  0  0  0  0  0  0  0  0  0
   14.5242   15.6180   23.3384 C   0  0  0  0  0  0  0  0  0  0  0  0
    7.0860   12.4553   26.1295 C   0  0  0  0  0  0  0  0  0  0  0  0
   15.6029   15.4692   22.2709 C   0  0  0  0  0  0  0  0  0  0  0  0
   15.9466   14.0165   21.9505 C   0  0  0  0  0  0  0  0  0  0  0  0
   14.7973   13.2122   21.3465 C   0  0  0  0  0  0  0  0  0  0  0  0
   13.5805   13.1199   22.2611 C   0  0  0  0  0  0  0  0  0  0  0  0
    9.9807    7.8739   22.8543 C   0  0  0  0  0  0  0  0  0  0  0  0
   11.8031    9.6303   22.8661 C   0  0  0  0  0  0  0  0  0  0  0  0
   11.4599   14.1926   21.5388 C   0  0  0  0  0  0  0  0  0  0  0  0
   10.3165    9.3507   22.6376 C   0  0  0  0  0  0  0  0  0  0  0  0
    8.5742    9.6635   24.2827 N   0  0  0  0  0  0  0  0  0  0  0  0
    9.4749   10.2186   23.4300 N   0  0  0  0  0  0  0  0  0  0  0  0
   12.7495   14.3238   22.2041 N   0  0  0  0  0  0  0  0  0  0  0  0
   10.3333   12.3763   22.6102 N   0  0  0  0  0  0  0  0  0  0  0  0
   12.4110   16.5510   22.7680 O   0  0  0  0  0  0  0  0  0  0  0  0
    9.7410   14.5768   23.1776 O   0  0  0  0  0  0  0  0  0  0  0  0
    8.5755   13.8637   25.2976 H   0  0  0  0  0  0  0  0  0  0  0  0
    7.1663   13.5794   24.2364 H   0  0  0  0  0  0  0  0  0  0  0  0
    5.9656   10.7111   25.3834 H   0  0  0  0  0  0  0  0  0  0  0  0
    7.0959   10.3217   26.7133 H   0  0  0  0  0  0  0  0  0  0  0  0
   14.6249   16.6089   23.7993 H   0  0  0  0  0  0  0  0  0  0  0  0
   14.6346   14.8898   24.1482 H   0  0  0  0  0  0  0  0  0  0  0  0
    7.6765   12.5754   27.0476 H   0  0  0  0  0  0  0  0  0  0  0  0
    6.1150   12.9307   26.3001 H   0  0  0  0  0  0  0  0  0  0  0  0
   15.3105   15.9915   21.3517 H   0  0  0  0  0  0  0  0  0  0  0  0
   16.5170   15.9549   22.6343 H   0  0  0  0  0  0  0  0  0  0  0  0
   16.7859   14.0045   21.2443 H   0  0  0  0  0  0  0  0  0  0  0  0
   16.3025   13.5169   22.8603 H   0  0  0  0  0  0  0  0  0  0  0  0
   14.5133   13.6250   20.3709 H   0  0  0  0  0  0  0  0  0  0  0  0
   15.1634   12.1957   21.1556 H   0  0  0  0  0  0  0  0  0  0  0  0
   12.9653   12.2640   21.9591 H   0  0  0  0  0  0  0  0  0  0  0  0
   13.8808   12.9434   23.2995 H   0  0  0  0  0  0  0  0  0  0  0  0
   10.1684    7.5593   23.8865 H   0  0  0  0  0  0  0  0  0  0  0  0
   10.5876    7.2412   22.1979 H   0  0  0  0  0  0  0  0  0  0  0  0
    8.9261    7.6766   22.6319 H   0  0  0  0  0  0  0  0  0  0  0  0
   12.0851    9.4190   23.9035 H   0  0  0  0  0  0  0  0  0  0  0  0
   12.0324   10.6816   22.6619 H   0  0  0  0  0  0  0  0  0  0  0  0
   12.4385    9.0187   22.2167 H   0  0  0  0  0  0  0  0  0  0  0  0
   11.1795   15.1517   21.0921 H   0  0  0  0  0  0  0  0  0  0  0  0
   11.5253   13.4399   20.7469 H   0  0  0  0  0  0  0  0  0  0  0  0
   10.1013    9.5810   21.5861 H   0  0  0  0  0  0  0  0  0  0  0  0
   10.9662   11.8478   22.0134 H   0  0  0  0  0  0  0  0  0  0  0  0
  1  2  1  0  0  0  0
  1  3  2  0  0  0  0
  1  6  1  0  0  0  0
  2  7  1  0  0  0  0
  2 18  2  0  0  0  0
  3 19  1  0  0  0  0
  3 21  1  0  0  0  0
  4  8  1  0  0  0  0
  4 20  1  0  0  0  0
  4 22  2  0  0  0  0
  5 16  1  0  0  0  0
  5 21  1  0  0  0  0
  5 23  2  0  0  0  0
  6  9  1  0  0  0  0
  7  9  1  0  0  0  0
  8 10  1  0  0  0  0
 10 11  1  0  0  0  0
 11 12  1  0  0  0  0
 12 13  1  0  0  0  0
 13 20  1  0  0  0  0
 14 17  1  0  0  0  0
 15 17  1  0  0  0  0
 16 20  1  0  0  0  0
 17 19  1  0  0  0  0
 18 19  1  0  0  0  0
  6 24  1  0  0  0  0
  6 25  1  0  0  0  0
  7 26  1  0  0  0  0
  7 27  1  0  0  0  0
  8 28  1  0  0  0  0
  8 29  1  0  0  0  0
  9 30  1  0  0  0  0
  9 31  1  0  0  0  0
 10 32  1  0  0  0  0
 10 33  1  0  0  0  0
 11 34  1  0  0  0  0
 11 35  1  0  0  0  0
 12 36  1  0  0  0  0
 12 37  1  0  0  0  0
 13 38  1  0  0  0  0
 13 39  1  0  0  0  0
 14 40  1  0  0  0  0
 14 41  1  0  0  0  0
 14 42  1  0  0  0  0
 15 43  1  0  0  0  0
 15 44  1  0  0  0  0
 15 45  1  0  0  0  0
 16 46  1  0  0  0  0
 16 47  1  0  0  0  0
 17 48  1  0  0  0  0
 21 49  1  0  0  0  0
M  END
> <idnumber>
Z1716137365

> <heavy_atoms>
23

> <LogS>
-2.471

> <LogP>
1.97

> <rotating_bonds>
4

> <PSA>
67.23

> <hb_acceptors>
3

> <hb_donors>
1

> <Collection>
HTS

> <link>
https://www.enaminestore.com/catalog/Z1716137365

> <ROCS_ShapeQuery>
_x1140_x0812_0A_x1140_0A_x1097_0A_x0365_0A_x1097_0A_x0310_0A

> <ROCS_TanimotoCombo>
0.638 

> <ROCS_ShapeTanimoto>
0.270 

> <ROCS_ColorTanimoto>
0.367 

> <ROCS_RefTversky>
0.244 

> <ROCS_RefColorTversky>
0.539 

> <ROCS_RefTverskyCombo>
0.783 

> <ROCS_FitTversky>
1.658 

> <ROCS_FitColorTversky>
0.536 

> <ROCS_FitTverskyCombo>
2.194 

> <ROCS_ColorScore>
-4.313

> <ROCS_Overlap>
2507.563

> <ROCS_Rank>
238                 

$$$$
untitled-dbase-532765_94
  -OEChem-02092421083D

 39 40  0     0  0  0  0  0  0999 V2000
    8.9730   12.4103   24.3421 C   0  0  0  0  0  0  0  0  0  0  0  0
    8.0801   12.1215   25.3681 C   0  0  0  0  0  0  0  0  0  0  0  0
   11.0076   15.2480   21.7281 C   0  0  0  0  0  0  0  0  0  0  0  0
    8.9008   10.1200   23.7049 C   0  0  0  0  0  0  0  0  0  0  0  0
   11.2125   16.5266   22.1918 C   0  0  0  0  0  0  0  0  0  0  0  0
    9.3961   11.3961   23.4902 C   0  0  0  0  0  0  0  0  0  0  0  0
   12.1439   14.5009   22.1203 C   0  0  0  0  0  0  0  0  0  0  0  0
   12.9623   15.3764   22.7955 C   0  0  0  0  0  0  0  0  0  0  0  0
    7.6435   10.8130   25.4985 C   0  0  0  0  0  0  0  0  0  0  0  0
   10.3388   11.6707   22.3942 C   0  0  0  0  0  0  0  0  0  0  0  0
   14.2726   15.2353   23.4476 C   0  0  0  0  0  0  0  0  0  0  0  0
    6.2995   11.5925   27.4340 C   0  0  0  0  0  0  0  0  0  0  0  0
    6.2274    9.1933   26.7361 C   0  0  0  0  0  0  0  0  0  0  0  0
   12.1990   11.8478   24.0011 C   0  0  0  0  0  0  0  0  0  0  0  0
   12.3998   13.0462   21.8512 C   0  0  0  0  0  0  0  0  0  0  0  0
    8.0323    9.8012   24.6906 N   0  0  0  0  0  0  0  0  0  0  0  0
    6.7351   10.5345   26.5498 N   0  0  0  0  0  0  0  0  0  0  0  0
   11.6006   12.1811   22.7162 N   0  0  0  0  0  0  0  0  0  0  0  0
    9.9426   11.4134   21.2580 O   0  0  0  0  0  0  0  0  0  0  0  0
   12.4017   16.6134   22.8434 O   0  0  0  0  0  0  0  0  0  0  0  0
    9.3335   13.4276   24.2164 H   0  0  0  0  0  0  0  0  0  0  0  0
    7.7442   12.9070   26.0375 H   0  0  0  0  0  0  0  0  0  0  0  0
   10.1452   14.9014   21.1767 H   0  0  0  0  0  0  0  0  0  0  0  0
    9.1943    9.2867   23.0734 H   0  0  0  0  0  0  0  0  0  0  0  0
   10.6386   17.4405   22.1430 H   0  0  0  0  0  0  0  0  0  0  0  0
   15.0976   15.4421   22.7432 H   0  0  0  0  0  0  0  0  0  0  0  0
   14.3905   15.9227   24.3053 H   0  0  0  0  0  0  0  0  0  0  0  0
   14.4317   14.2193   23.8536 H   0  0  0  0  0  0  0  0  0  0  0  0
    5.6016   11.1839   28.1796 H   0  0  0  0  0  0  0  0  0  0  0  0
    7.1718   12.0243   27.9465 H   0  0  0  0  0  0  0  0  0  0  0  0
    5.7939   12.3746   26.8486 H   0  0  0  0  0  0  0  0  0  0  0  0
    5.5413    9.1765   27.5957 H   0  0  0  0  0  0  0  0  0  0  0  0
    5.6888    8.8762   25.8309 H   0  0  0  0  0  0  0  0  0  0  0  0
    7.0661    8.5066   26.9232 H   0  0  0  0  0  0  0  0  0  0  0  0
   12.7957   10.9292   23.9010 H   0  0  0  0  0  0  0  0  0  0  0  0
   12.8486   12.6731   24.3281 H   0  0  0  0  0  0  0  0  0  0  0  0
   11.4046   11.6895   24.7454 H   0  0  0  0  0  0  0  0  0  0  0  0
   12.1600   12.7979   20.8115 H   0  0  0  0  0  0  0  0  0  0  0  0
   13.4542   12.7966   22.0103 H   0  0  0  0  0  0  0  0  0  0  0  0
  1  2  2  0  0  0  0
  1  6  1  0  0  0  0
  2  9  1  0  0  0  0
  3  5  2  0  0  0  0
  3  7  1  0  0  0  0
  4  6  2  0  0  0  0
  4 16  1  0  0  0  0
  5 20  1  0  0  0  0
  6 10  1  0  0  0  0
  7  8  2  0  0  0  0
  7 15  1  0  0  0  0
  8 11  1  0  0  0  0
  8 20  1  0  0  0  0
  9 16  2  0  0  0  0
  9 17  1  0  0  0  0
 10 18  1  0  0  0  0
 10 19  2  0  0  0  0
 12 17  1  0  0  0  0
 13 17  1  0  0  0  0
 14 18  1  0  0  0  0
 15 18  1  0  0  0  0
  1 21  1  0  0  0  0
  2 22  1  0  0  0  0
  3 23  1  0  0  0  0
  4 24  1  0  0  0  0
  5 25  1  0  0  0  0
 11 26  1  0  0  0  0
 11 27  1  0  0  0  0
 11 28  1  0  0  0  0
 12 29  1  0  0  0  0
 12 30  1  0  0  0  0
 12 31  1  0  0  0  0
 13 32  1  0  0  0  0
 13 33  1  0  0  0  0
 13 34  1  0  0  0  0
 14 35  1  0  0  0  0
 14 36  1  0  0  0  0
 14 37  1  0  0  0  0
 15 38  1  0  0  0  0
 15 39  1  0  0  0  0
M  END
> <idnumber>
Z811810700

> <heavy_atoms>
20

> <LogS>
-2.033

> <LogP>
2.035

> <rotating_bonds>
4

> <PSA>
49.58

> <hb_acceptors>
3

> <hb_donors>
0

> <Collection>
Legacy

> <link>
https://www.enaminestore.com/catalog/Z811810700

> <ROCS_ShapeQuery>
_x1140_x0812_0A_x1140_0A_x1097_0A_x0365_0A_x1097_0A_x0310_0A

> <ROCS_TanimotoCombo>
0.637 

> <ROCS_ShapeTanimoto>
0.241 

> <ROCS_ColorTanimoto>
0.396 

> <ROCS_RefTversky>
0.221 

> <ROCS_RefColorTversky>
0.470 

> <ROCS_RefTverskyCombo>
0.691 

> <ROCS_FitTversky>
1.632 

> <ROCS_FitColorTversky>
0.716 

> <ROCS_FitTverskyCombo>
2.348 

> <ROCS_ColorScore>
-3.689

> <ROCS_Overlap>
2265.144

> <ROCS_Rank>
239                 

$$$$
untitled-dbase-686404_64
  -OEChem-02092421083D

 33 35  0     0  0  0  0  0  0999 V2000
   12.2329   15.1912   23.0362 C   0  0  0  0  0  0  0  0  0  0  0  0
   11.5945   12.8155   22.4462 C   0  0  0  0  0  0  0  0  0  0  0  0
    6.7221   13.5768   25.7284 C   0  0  0  0  0  0  0  0  0  0  0  0
    6.4093   11.1613   25.9081 C   0  0  0  0  0  0  0  0  0  0  0  0
   12.4896   13.2586   24.5449 C   0  0  0  0  0  0  0  0  0  0  0  0
   12.1109   13.8008   23.3365 C   0  0  0  0  0  0  0  0  0  0  0  0
    6.0195   12.4711   26.2230 C   0  0  0  0  0  0  0  0  0  0  0  0
    7.8397   13.4211   24.9013 C   0  0  0  0  0  0  0  0  0  0  0  0
    7.5275   10.9878   25.0801 C   0  0  0  0  0  0  0  0  0  0  0  0
    8.1951   12.1096   24.6115 C   0  0  0  0  0  0  0  0  0  0  0  0
   11.5985   11.5576   23.0079 C   0  0  0  0  0  0  0  0  0  0  0  0
    9.1325   10.3249   23.8830 C   0  0  0  0  0  0  0  0  0  0  0  0
    4.8319   12.6881   27.1024 C   0  0  0  0  0  0  0  0  0  0  0  0
    8.5769   14.6059   24.3838 C   0  0  0  0  0  0  0  0  0  0  0  0
   11.1401   10.2623   22.4028 C   0  0  0  0  0  0  0  0  0  0  0  0
   12.3321   16.3214   22.7921 N   0  0  0  0  0  0  0  0  0  0  0  0
    8.1397    9.8533   24.6048 N   0  0  0  0  0  0  0  0  0  0  0  0
   10.0673    9.6443   23.1806 N   0  0  0  0  0  0  0  0  0  0  0  0
    9.2349   11.6826   23.8361 O   0  0  0  0  0  0  0  0  0  0  0  0
   12.2226   11.5681   24.6025 S   0  0  0  0  0  0  0  0  0  0  0  0
   11.2368   13.0154   21.4433 H   0  0  0  0  0  0  0  0  0  0  0  0
    6.3918   14.5801   25.9933 H   0  0  0  0  0  0  0  0  0  0  0  0
    5.8636   10.3052   26.2923 H   0  0  0  0  0  0  0  0  0  0  0  0
   12.9115   13.7664   25.4019 H   0  0  0  0  0  0  0  0  0  0  0  0
    3.9201   12.7605   26.4983 H   0  0  0  0  0  0  0  0  0  0  0  0
    4.7129   11.8651   27.8178 H   0  0  0  0  0  0  0  0  0  0  0  0
    4.9366   13.6089   27.6895 H   0  0  0  0  0  0  0  0  0  0  0  0
    9.3776   14.8944   25.0775 H   0  0  0  0  0  0  0  0  0  0  0  0
    9.0272   14.4015   23.4025 H   0  0  0  0  0  0  0  0  0  0  0  0
    7.9084   15.4679   24.2501 H   0  0  0  0  0  0  0  0  0  0  0  0
   10.7695   10.4217   21.3843 H   0  0  0  0  0  0  0  0  0  0  0  0
   11.9646    9.5443   22.3401 H   0  0  0  0  0  0  0  0  0  0  0  0
   10.0508    8.6146   23.1705 H   0  0  0  0  0  0  0  0  0  0  0  0
  1  6  1  0  0  0  0
  1 16  3  0  0  0  0
  2  6  1  0  0  0  0
  2 11  2  0  0  0  0
  3  7  1  0  0  0  0
  3  8  2  0  0  0  0
  4  7  2  0  0  0  0
  4  9  1  0  0  0  0
  5  6  2  0  0  0  0
  5 20  1  0  0  0  0
  7 13  1  0  0  0  0
  8 10  1  0  0  0  0
  8 14  1  0  0  0  0
  9 10  2  0  0  0  0
  9 17  1  0  0  0  0
 10 19  1  0  0  0  0
 11 15  1  0  0  0  0
 11 20  1  0  0  0  0
 12 17  2  0  0  0  0
 12 18  1  0  0  0  0
 12 19  1  0  0  0  0
 15 18  1  0  0  0  0
  2 21  1  0  0  0  0
  3 22  1  0  0  0  0
  4 23  1  0  0  0  0
  5 24  1  0  0  0  0
 13 25  1  0  0  0  0
 13 26  1  0  0  0  0
 13 27  1  0  0  0  0
 14 28  1  0  0  0  0
 14 29  1  0  0  0  0
 14 30  1  0  0  0  0
 15 31  1  0  0  0  0
 15 32  1  0  0  0  0
 18 33  1  0  0  0  0
M  END
> <idnumber>
Z1611165371

> <heavy_atoms>
20

> <LogS>
-4.681

> <LogP>
3.509

> <rotating_bonds>
3

> <PSA>
61.85

> <hb_acceptors>
3

> <hb_donors>
1

> <Collection>
HTS

> <link>
https://www.enaminestore.com/catalog/Z1611165371

> <ROCS_ShapeQuery>
_x1140_x0812_0A_x1140_0A_x1097_0A_x0365_0A_x1097_0A_x0310_0A

> <ROCS_TanimotoCombo>
0.637 

> <ROCS_ShapeTanimoto>
0.284 

> <ROCS_ColorTanimoto>
0.354 

> <ROCS_RefTversky>
0.251 

> <ROCS_RefColorTversky>
0.464 

> <ROCS_RefTverskyCombo>
0.715 

> <ROCS_FitTversky>
1.849 

> <ROCS_FitColorTversky>
0.599 

> <ROCS_FitTverskyCombo>
2.447 

> <ROCS_ColorScore>
-3.664

> <ROCS_Overlap>
2576.184

> <ROCS_Rank>
240                 

$$$$
untitled-dbase-44660_100
  -OEChem-02092421083D

 26 26  0     0  0  0  0  0  0999 V2000
    8.0522   11.9304   25.5388 C   0  0  0  0  0  0  0  0  0  0  0  0
    8.8218   12.3541   24.4610 C   0  0  0  0  0  0  0  0  0  0  0  0
    7.6942   10.5930   25.5941 C   0  0  0  0  0  0  0  0  0  0  0  0
    9.2044   11.4403   23.4853 C   0  0  0  0  0  0  0  0  0  0  0  0
    8.7950   10.1249   23.6327 C   0  0  0  0  0  0  0  0  0  0  0  0
   11.3434   15.9624   20.9348 C   0  0  0  0  0  0  0  0  0  0  0  0
   10.9577   14.6814   20.9313 C   0  0  0  0  0  0  0  0  0  0  0  0
   10.0112   11.9109   22.3669 C   0  0  0  0  0  0  0  0  0  0  0  0
   11.0373    8.9753   22.5540 C   0  0  0  0  0  0  0  0  0  0  0  0
   11.7133   13.5822   21.6033 C   0  0  0  0  0  0  0  0  0  0  0  0
    8.0470    9.6761   24.6655 N   0  0  0  0  0  0  0  0  0  0  0  0
   10.8683   12.9880   22.6141 N   0  0  0  0  0  0  0  0  0  0  0  0
    9.9091   11.3770   21.2497 O   0  0  0  0  0  0  0  0  0  0  0  0
    9.2394    8.8780   22.4286 S   0  0  0  0  0  0  0  0  0  0  0  0
    7.7421   12.6248   26.3109 H   0  0  0  0  0  0  0  0  0  0  0  0
    9.1162   13.3983   24.3943 H   0  0  0  0  0  0  0  0  0  0  0  0
    7.0938   10.2126   26.4139 H   0  0  0  0  0  0  0  0  0  0  0  0
   10.7469   16.7164   20.4330 H   0  0  0  0  0  0  0  0  0  0  0  0
   12.2530   16.2801   21.4325 H   0  0  0  0  0  0  0  0  0  0  0  0
   10.0337   14.4183   20.4223 H   0  0  0  0  0  0  0  0  0  0  0  0
   11.4971    8.2605   21.8672 H   0  0  0  0  0  0  0  0  0  0  0  0
   11.3513    8.7417   23.5744 H   0  0  0  0  0  0  0  0  0  0  0  0
   11.3732    9.9832   22.2985 H   0  0  0  0  0  0  0  0  0  0  0  0
   12.6083   13.9884   22.0844 H   0  0  0  0  0  0  0  0  0  0  0  0
   12.0257   12.8020   20.9019 H   0  0  0  0  0  0  0  0  0  0  0  0
   10.8653   13.4264   23.5293 H   0  0  0  0  0  0  0  0  0  0  0  0
  1  2  2  0  0  0  0
  1  3  1  0  0  0  0
  2  4  1  0  0  0  0
  3 11  2  0  0  0  0
  4  5  2  0  0  0  0
  4  8  1  0  0  0  0
  5 11  1  0  0  0  0
  5 14  1  0  0  0  0
  6  7  2  0  0  0  0
  7 10  1  0  0  0  0
  8 12  1  0  0  0  0
  8 13  2  0  0  0  0
  9 14  1  0  0  0  0
 10 12  1  0  0  0  0
  1 15  1  0  0  0  0
  2 16  1  0  0  0  0
  3 17  1  0  0  0  0
  6 18  1  0  0  0  0
  6 19  1  0  0  0  0
  7 20  1  0  0  0  0
  9 21  1  0  0  0  0
  9 22  1  0  0  0  0
  9 23  1  0  0  0  0
 10 24  1  0  0  0  0
 10 25  1  0  0  0  0
 12 26  1  0  0  0  0
M  END
> <idnumber>
Z139940296

> <heavy_atoms>
14

> <LogS>
-2.52

> <LogP>
1.328

> <rotating_bonds>
4

> <PSA>
41.99

> <hb_acceptors>
2

> <hb_donors>
1

> <Collection>
Functional

> <link>
https://www.enaminestore.com/catalog/Z139940296

> <ROCS_ShapeQuery>
_x1140_x0812_0A_x1140_0A_x1097_0A_x0365_0A_x1097_0A_x0310_0A

> <ROCS_TanimotoCombo>
0.637 

> <ROCS_ShapeTanimoto>
0.217 

> <ROCS_ColorTanimoto>
0.420 

> <ROCS_RefTversky>
0.198 

> <ROCS_RefColorTversky>
0.524 

> <ROCS_RefTverskyCombo>
0.722 

> <ROCS_FitTversky>
1.853 

> <ROCS_FitColorTversky>
0.679 

> <ROCS_FitTverskyCombo>
2.532 

> <ROCS_ColorScore>
-4.140

> <ROCS_Overlap>
2026.260

> <ROCS_Rank>
241                 

$$$$
untitled-dbase-503233_26
  -OEChem-02092421083D

 41 43  0     0  0  0  0  0  0999 V2000
   13.0721   14.8422   20.9620 C   0  0  0  0  0  0  0  0  0  0  0  0
   12.2382   13.8722   21.5069 C   0  0  0  0  0  0  0  0  0  0  0  0
    8.0095   11.7435   24.1874 C   0  0  0  0  0  0  0  0  0  0  0  0
   13.0977   16.0890   21.5658 C   0  0  0  0  0  0  0  0  0  0  0  0
   11.5639   15.4509   23.1528 C   0  0  0  0  0  0  0  0  0  0  0  0
   11.4662   14.1743   22.6232 C   0  0  0  0  0  0  0  0  0  0  0  0
    9.0916   11.3454   23.4410 C   0  0  0  0  0  0  0  0  0  0  0  0
    7.5754   10.5695   24.8317 C   0  0  0  0  0  0  0  0  0  0  0  0
    9.9238   12.1307   22.5859 C   0  0  0  0  0  0  0  0  0  0  0  0
    6.3575   11.4282   26.9883 C   0  0  0  0  0  0  0  0  0  0  0  0
    6.5906    9.9628   27.1845 C   0  0  0  0  0  0  0  0  0  0  0  0
    6.3833   10.5068   25.7848 C   0  0  0  0  0  0  0  0  0  0  0  0
   11.6748    9.6009   23.4956 C   0  0  0  0  0  0  0  0  0  0  0  0
   10.1406    9.0882   21.5557 C   0  0  0  0  0  0  0  0  0  0  0  0
   10.1553    7.6368   23.5711 C   0  0  0  0  0  0  0  0  0  0  0  0
   10.2669    9.1064   23.0954 C   0  0  0  0  0  0  0  0  0  0  0  0
   12.3624   16.4195   22.6511 N   0  0  0  0  0  0  0  0  0  0  0  0
    8.3208    9.5054   24.5216 N   0  0  0  0  0  0  0  0  0  0  0  0
    9.2341   10.0092   23.6742 N   0  0  0  0  0  0  0  0  0  0  0  0
   10.6064   13.2064   23.2010 N   0  0  0  0  0  0  0  0  0  0  0  0
   10.0267   11.9145   21.3563 O   0  0  0  0  0  0  0  0  0  0  0  0
   13.6827   14.6289   20.0921 H   0  0  0  0  0  0  0  0  0  0  0  0
   12.1975   12.8850   21.0541 H   0  0  0  0  0  0  0  0  0  0  0  0
    7.5957   12.7397   24.2573 H   0  0  0  0  0  0  0  0  0  0  0  0
   13.7310   16.8803   21.1784 H   0  0  0  0  0  0  0  0  0  0  0  0
   10.9864   15.7465   24.0237 H   0  0  0  0  0  0  0  0  0  0  0  0
    5.4010   11.8335   27.2952 H   0  0  0  0  0  0  0  0  0  0  0  0
    7.1956   12.0965   27.1450 H   0  0  0  0  0  0  0  0  0  0  0  0
    7.5855    9.6445   27.4719 H   0  0  0  0  0  0  0  0  0  0  0  0
    5.7914    9.3780   27.6238 H   0  0  0  0  0  0  0  0  0  0  0  0
    5.4245   10.2921   25.3173 H   0  0  0  0  0  0  0  0  0  0  0  0
   11.7910    9.6233   24.5853 H   0  0  0  0  0  0  0  0  0  0  0  0
   12.4683    8.9560   23.1032 H   0  0  0  0  0  0  0  0  0  0  0  0
   11.8571   10.6138   23.1179 H   0  0  0  0  0  0  0  0  0  0  0  0
    9.1556    8.7432   21.2240 H   0  0  0  0  0  0  0  0  0  0  0  0
   10.2860   10.0900   21.1351 H   0  0  0  0  0  0  0  0  0  0  0  0
   10.8897    8.4247   21.1082 H   0  0  0  0  0  0  0  0  0  0  0  0
    9.1746    7.2149   23.3198 H   0  0  0  0  0  0  0  0  0  0  0  0
   10.9089    6.9993   23.0944 H   0  0  0  0  0  0  0  0  0  0  0  0
   10.2703    7.5543   24.6581 H   0  0  0  0  0  0  0  0  0  0  0  0
   10.4590   13.2987   24.2030 H   0  0  0  0  0  0  0  0  0  0  0  0
  1  2  2  0  0  0  0
  1  4  1  0  0  0  0
  2  6  1  0  0  0  0
  3  7  2  0  0  0  0
  3  8  1  0  0  0  0
  4 17  2  0  0  0  0
  5  6  2  0  0  0  0
  5 17  1  0  0  0  0
  6 20  1  0  0  0  0
  7  9  1  0  0  0  0
  7 19  1  0  0  0  0
  8 12  1  0  0  0  0
  8 18  2  0  0  0  0
  9 20  1  0  0  0  0
  9 21  2  0  0  0  0
 10 11  1  0  0  0  0
 10 12  1  0  0  0  0
 11 12  1  0  0  0  0
 13 16  1  0  0  0  0
 14 16  1  0  0  0  0
 15 16  1  0  0  0  0
 16 19  1  0  0  0  0
 18 19  1  0  0  0  0
  1 22  1  0  0  0  0
  2 23  1  0  0  0  0
  3 24  1  0  0  0  0
  4 25  1  0  0  0  0
  5 26  1  0  0  0  0
 10 27  1  0  0  0  0
 10 28  1  0  0  0  0
 11 29  1  0  0  0  0
 11 30  1  0  0  0  0
 12 31  1  0  0  0  0
 13 32  1  0  0  0  0
 13 33  1  0  0  0  0
 13 34  1  0  0  0  0
 14 35  1  0  0  0  0
 14 36  1  0  0  0  0
 14 37  1  0  0  0  0
 15 38  1  0  0  0  0
 15 39  1  0  0  0  0
 15 40  1  0  0  0  0
 20 41  1  0  0  0  0
M  END
> <idnumber>
Z432742450

> <heavy_atoms>
21

> <LogS>
-2.19

> <LogP>
2.263

> <rotating_bonds>
4

> <PSA>
59.81

> <hb_acceptors>
3

> <hb_donors>
1

> <Collection>
Legacy

> <link>
https://www.enaminestore.com/catalog/Z432742450

> <ROCS_ShapeQuery>
_x1140_x0812_0A_x1140_0A_x1097_0A_x0365_0A_x1097_0A_x0310_0A

> <ROCS_TanimotoCombo>
0.637 

> <ROCS_ShapeTanimoto>
0.273 

> <ROCS_ColorTanimoto>
0.365 

> <ROCS_RefTversky>
0.244 

> <ROCS_RefColorTversky>
0.504 

> <ROCS_RefTverskyCombo>
0.748 

> <ROCS_FitTversky>
1.745 

> <ROCS_FitColorTversky>
0.569 

> <ROCS_FitTverskyCombo>
2.314 

> <ROCS_ColorScore>
-4.008

> <ROCS_Overlap>
2507.752

> <ROCS_Rank>
242                 

$$$$
untitled-dbase-1100575_4
  -OEChem-02092421083D

 30 32  0     0  0  0  0  0  0999 V2000
    5.7133   12.4979   26.7626 C   0  0  0  0  0  0  0  0  0  0  0  0
    5.6909   11.1540   27.1144 C   0  0  0  0  0  0  0  0  0  0  0  0
    6.5716   12.9304   25.7558 C   0  0  0  0  0  0  0  0  0  0  0  0
    6.5263   10.2461   26.4590 C   0  0  0  0  0  0  0  0  0  0  0  0
    8.2854   12.4251   24.0798 C   0  0  0  0  0  0  0  0  0  0  0  0
    7.4117   12.0169   25.0967 C   0  0  0  0  0  0  0  0  0  0  0  0
    9.1024   11.4986   23.4481 C   0  0  0  0  0  0  0  0  0  0  0  0
    7.3942   10.6510   25.4486 C   0  0  0  0  0  0  0  0  0  0  0  0
    9.0148   10.1845   23.8607 C   0  0  0  0  0  0  0  0  0  0  0  0
   10.0044   11.9391   22.3931 C   0  0  0  0  0  0  0  0  0  0  0  0
   11.5486   14.6031   20.9124 C   0  0  0  0  0  0  0  0  0  0  0  0
   12.5396   14.7953   22.0239 C   0  0  0  0  0  0  0  0  0  0  0  0
   11.9144   13.4481   21.8002 C   0  0  0  0  0  0  0  0  0  0  0  0
    8.1860    9.7496   24.8373 N   0  0  0  0  0  0  0  0  0  0  0  0
    9.8428    9.2249   23.2260 N   0  0  0  0  0  0  0  0  0  0  0  0
   10.9648   12.8954   22.7392 N   0  0  0  0  0  0  0  0  0  0  0  0
    9.8932   11.4874   21.2406 O   0  0  0  0  0  0  0  0  0  0  0  0
    5.0655   13.2065   27.2696 H   0  0  0  0  0  0  0  0  0  0  0  0
    5.0243   10.8078   27.8989 H   0  0  0  0  0  0  0  0  0  0  0  0
    6.5813   13.9847   25.4883 H   0  0  0  0  0  0  0  0  0  0  0  0
    6.4898    9.1987   26.7532 H   0  0  0  0  0  0  0  0  0  0  0  0
    8.3250   13.4717   23.7828 H   0  0  0  0  0  0  0  0  0  0  0  0
   10.5711   15.0554   21.0274 H   0  0  0  0  0  0  0  0  0  0  0  0
   11.9236   14.5969   19.8961 H   0  0  0  0  0  0  0  0  0  0  0  0
   13.5814   14.9182   21.7553 H   0  0  0  0  0  0  0  0  0  0  0  0
   12.2253   15.3745   22.8835 H   0  0  0  0  0  0  0  0  0  0  0  0
   12.5490   12.6834   21.3653 H   0  0  0  0  0  0  0  0  0  0  0  0
   10.4262    9.5165   22.4725 H   0  0  0  0  0  0  0  0  0  0  0  0
    9.7529    8.2666   23.4843 H   0  0  0  0  0  0  0  0  0  0  0  0
   10.9704   13.2767   23.6796 H   0  0  0  0  0  0  0  0  0  0  0  0
  1  2  1  0  0  0  0
  1  3  2  0  0  0  0
  2  4  2  0  0  0  0
  3  6  1  0  0  0  0
  4  8  1  0  0  0  0
  5  6  2  0  0  0  0
  5  7  1  0  0  0  0
  6  8  1  0  0  0  0
  7  9  2  0  0  0  0
  7 10  1  0  0  0  0
  8 14  2  0  0  0  0
  9 14  1  0  0  0  0
  9 15  1  0  0  0  0
 10 16  1  0  0  0  0
 10 17  2  0  0  0  0
 11 12  1  0  0  0  0
 11 13  1  0  0  0  0
 12 13  1  0  0  0  0
 13 16  1  0  0  0  0
  1 18  1  0  0  0  0
  2 19  1  0  0  0  0
  3 20  1  0  0  0  0
  4 21  1  0  0  0  0
  5 22  1  0  0  0  0
 11 23  1  0  0  0  0
 11 24  1  0  0  0  0
 12 25  1  0  0  0  0
 12 26  1  0  0  0  0
 13 27  1  0  0  0  0
 15 28  1  0  0  0  0
 15 29  1  0  0  0  0
 16 30  1  0  0  0  0
M  END
> <idnumber>
Z4784568053

> <heavy_atoms>
17

> <LogS>
-3.336

> <LogP>
2.394

> <rotating_bonds>
2

> <PSA>
68.01

> <hb_acceptors>
3

> <hb_donors>
2

> <Collection>
Advanced

> <link>
https://www.enaminestore.com/catalog/Z4784568053

> <ROCS_ShapeQuery>
_x1140_x0812_0A_x1140_0A_x1097_0A_x0365_0A_x1097_0A_x0310_0A

> <ROCS_TanimotoCombo>
0.637 

> <ROCS_ShapeTanimoto>
0.280 

> <ROCS_ColorTanimoto>
0.357 

> <ROCS_RefTversky>
0.246 

> <ROCS_RefColorTversky>
0.497 

> <ROCS_RefTverskyCombo>
0.743 

> <ROCS_FitTversky>
1.979 

> <ROCS_FitColorTversky>
0.559 

> <ROCS_FitTverskyCombo>
2.538 

> <ROCS_ColorScore>
-3.950

> <ROCS_Overlap>
2523.948

> <ROCS_Rank>
243                 

$$$$
untitled-dbase-96090_15
  -OEChem-02092421083D

 33 34  0     0  0  0  0  0  0999 V2000
    7.7431   14.5422   25.2604 C   0  0  0  0  0  0  0  0  0  0  0  0
    8.4309   14.8300   24.0824 C   0  0  0  0  0  0  0  0  0  0  0  0
    7.5393   13.2169   25.6489 C   0  0  0  0  0  0  0  0  0  0  0  0
    8.9184   13.7931   23.2875 C   0  0  0  0  0  0  0  0  0  0  0  0
    8.0278   12.1803   24.8517 C   0  0  0  0  0  0  0  0  0  0  0  0
    8.7140   12.4649   23.6765 C   0  0  0  0  0  0  0  0  0  0  0  0
    7.8535   10.7678   25.1919 C   0  0  0  0  0  0  0  0  0  0  0  0
    9.2207   11.3534   22.8508 C   0  0  0  0  0  0  0  0  0  0  0  0
    7.1396   10.3638   26.4311 C   0  0  0  0  0  0  0  0  0  0  0  0
   11.4855    7.5563   21.8805 C   0  0  0  0  0  0  0  0  0  0  0  0
   11.7642    9.9987   22.4113 C   0  0  0  0  0  0  0  0  0  0  0  0
    9.4549    8.9471   22.5244 C   0  0  0  0  0  0  0  0  0  0  0  0
   10.9620    8.7310   22.7082 C   0  0  0  0  0  0  0  0  0  0  0  0
    8.2958    9.7900   24.4701 N   0  0  0  0  0  0  0  0  0  0  0  0
    8.9699   10.0656   23.3158 N   0  0  0  0  0  0  0  0  0  0  0  0
    5.7963   10.2026   26.2358 N   0  0  0  0  0  0  0  0  0  0  0  0
    9.8270   11.6137   21.8138 O   0  0  0  0  0  0  0  0  0  0  0  0
    7.7428   10.2085   27.4780 O   0  0  0  0  0  0  0  0  0  0  0  0
    7.3634   15.3517   25.8773 H   0  0  0  0  0  0  0  0  0  0  0  0
    8.5870   15.8625   23.7837 H   0  0  0  0  0  0  0  0  0  0  0  0
    6.9958   13.0242   26.5687 H   0  0  0  0  0  0  0  0  0  0  0  0
    9.4518   14.0398   22.3737 H   0  0  0  0  0  0  0  0  0  0  0  0
   11.3615    7.7271   20.8062 H   0  0  0  0  0  0  0  0  0  0  0  0
   12.5530    7.3994   22.0699 H   0  0  0  0  0  0  0  0  0  0  0  0
   10.9613    6.6313   22.1426 H   0  0  0  0  0  0  0  0  0  0  0  0
   11.6542   10.3138   21.3684 H   0  0  0  0  0  0  0  0  0  0  0  0
   12.8305    9.8320   22.5984 H   0  0  0  0  0  0  0  0  0  0  0  0
   11.4385   10.8241   23.0531 H   0  0  0  0  0  0  0  0  0  0  0  0
    9.2179    9.1384   21.4722 H   0  0  0  0  0  0  0  0  0  0  0  0
    8.9061    8.0496   22.8302 H   0  0  0  0  0  0  0  0  0  0  0  0
   11.1227    8.4812   23.7653 H   0  0  0  0  0  0  0  0  0  0  0  0
    5.4225   10.3651   25.3065 H   0  0  0  0  0  0  0  0  0  0  0  0
    5.1530    9.9287   26.9721 H   0  0  0  0  0  0  0  0  0  0  0  0
  1  2  1  0  0  0  0
  1  3  2  0  0  0  0
  2  4  2  0  0  0  0
  3  5  1  0  0  0  0
  4  6  1  0  0  0  0
  5  6  2  0  0  0  0
  5  7  1  0  0  0  0
  6  8  1  0  0  0  0
  7  9  1  0  0  0  0
  7 14  2  0  0  0  0
  8 15  1  0  0  0  0
  8 17  2  0  0  0  0
  9 16  1  0  0  0  0
  9 18  2  0  0  0  0
 10 13  1  0  0  0  0
 11 13  1  0  0  0  0
 12 13  1  0  0  0  0
 12 15  1  0  0  0  0
 14 15  1  0  0  0  0
  1 19  1  0  0  0  0
  2 20  1  0  0  0  0
  3 21  1  0  0  0  0
  4 22  1  0  0  0  0
 10 23  1  0  0  0  0
 10 24  1  0  0  0  0
 10 25  1  0  0  0  0
 11 26  1  0  0  0  0
 11 27  1  0  0  0  0
 11 28  1  0  0  0  0
 12 29  1  0  0  0  0
 12 30  1  0  0  0  0
 13 31  1  0  0  0  0
 16 32  1  0  0  0  0
 16 33  1  0  0  0  0
M  END
> <idnumber>
Z33545395

> <heavy_atoms>
18

> <LogS>
-3.389

> <LogP>
1.152

> <rotating_bonds>
3

> <PSA>
75.76

> <hb_acceptors>
3

> <hb_donors>
1

> <Collection>
HTS

> <link>
https://www.enaminestore.com/catalog/Z33545395

> <ROCS_ShapeQuery>
_x1140_x0812_0A_x1140_0A_x1097_0A_x0365_0A_x1097_0A_x0310_0A

> <ROCS_TanimotoCombo>
0.637 

> <ROCS_ShapeTanimoto>
0.250 

> <ROCS_ColorTanimoto>
0.387 

> <ROCS_RefTversky>
0.225 

> <ROCS_RefColorTversky>
0.527 

> <ROCS_RefTverskyCombo>
0.752 

> <ROCS_FitTversky>
1.768 

> <ROCS_FitColorTversky>
0.594 

> <ROCS_FitTverskyCombo>
2.362 

> <ROCS_ColorScore>
-4.189

> <ROCS_Overlap>
2312.789

> <ROCS_Rank>
244                 

$$$$
untitled-dbase-414556_143
  -OEChem-02092421083D

 39 40  0     0  0  0  0  0  0999 V2000
    7.7396   11.9414   25.4751 C   0  0  0  0  0  0  0  0  0  0  0  0
    8.5905   12.4100   24.4802 C   0  0  0  0  0  0  0  0  0  0  0  0
    7.5386   10.5735   25.5654 C   0  0  0  0  0  0  0  0  0  0  0  0
    9.2057   11.5090   23.6182 C   0  0  0  0  0  0  0  0  0  0  0  0
    8.9392   10.1604   23.7917 C   0  0  0  0  0  0  0  0  0  0  0  0
   12.8028   16.0221   23.6574 C   0  0  0  0  0  0  0  0  0  0  0  0
   10.1154   12.0022   22.5522 C   0  0  0  0  0  0  0  0  0  0  0  0
   12.9802   16.7788   24.9594 C   0  0  0  0  0  0  0  0  0  0  0  0
   14.4494   16.9182   25.3434 C   0  0  0  0  0  0  0  0  0  0  0  0
   14.9947   15.7173   26.1124 C   0  0  0  0  0  0  0  0  0  0  0  0
   15.0015   14.4099   25.3230 C   0  0  0  0  0  0  0  0  0  0  0  0
   13.6125   13.9709   24.8720 C   0  0  0  0  0  0  0  0  0  0  0  0
   13.1142   13.8990   22.4397 C   0  0  0  0  0  0  0  0  0  0  0  0
   11.7013   13.7920   21.8911 C   0  0  0  0  0  0  0  0  0  0  0  0
    8.1185    9.6677   24.7464 N   0  0  0  0  0  0  0  0  0  0  0  0
   13.1689   14.6785   23.6695 N   0  0  0  0  0  0  0  0  0  0  0  0
   10.8037   13.1769   22.8309 N   0  0  0  0  0  0  0  0  0  0  0  0
   12.3635   16.6124   22.6673 O   0  0  0  0  0  0  0  0  0  0  0  0
   10.1980   11.3779   21.4977 O   0  0  0  0  0  0  0  0  0  0  0  0
    9.5251    9.2387   22.9630 O   0  0  0  0  0  0  0  0  0  0  0  0
    7.2500   12.6248   26.1595 H   0  0  0  0  0  0  0  0  0  0  0  0
    8.7668   13.4782   24.3856 H   0  0  0  0  0  0  0  0  0  0  0  0
    6.8849   10.1567   26.3245 H   0  0  0  0  0  0  0  0  0  0  0  0
   12.5648   17.7825   24.8025 H   0  0  0  0  0  0  0  0  0  0  0  0
   12.3827   16.3196   25.7533 H   0  0  0  0  0  0  0  0  0  0  0  0
   15.0652   17.0984   24.4537 H   0  0  0  0  0  0  0  0  0  0  0  0
   14.5556   17.8009   25.9862 H   0  0  0  0  0  0  0  0  0  0  0  0
   16.0231   15.9396   26.4225 H   0  0  0  0  0  0  0  0  0  0  0  0
   14.4170   15.5827   27.0355 H   0  0  0  0  0  0  0  0  0  0  0  0
   15.6776   14.4863   24.4628 H   0  0  0  0  0  0  0  0  0  0  0  0
   15.4165   13.6285   25.9719 H   0  0  0  0  0  0  0  0  0  0  0  0
   13.6262   12.8968   24.6523 H   0  0  0  0  0  0  0  0  0  0  0  0
   12.8741   14.1223   25.6667 H   0  0  0  0  0  0  0  0  0  0  0  0
   13.7871   14.3759   21.7200 H   0  0  0  0  0  0  0  0  0  0  0  0
   13.5032   12.9030   22.6733 H   0  0  0  0  0  0  0  0  0  0  0  0
   11.3038   14.7877   21.6715 H   0  0  0  0  0  0  0  0  0  0  0  0
   11.6742   13.1972   20.9724 H   0  0  0  0  0  0  0  0  0  0  0  0
   10.6318   13.6684   23.7059 H   0  0  0  0  0  0  0  0  0  0  0  0
    9.2405    8.3485   23.2117 H   0  0  0  0  0  0  0  0  0  0  0  0
  1  2  2  0  0  0  0
  1  3  1  0  0  0  0
  2  4  1  0  0  0  0
  3 15  2  0  0  0  0
  4  5  2  0  0  0  0
  4  7  1  0  0  0  0
  5 15  1  0  0  0  0
  5 20  1  0  0  0  0
  6  8  1  0  0  0  0
  6 16  1  0  0  0  0
  6 18  2  0  0  0  0
  7 17  1  0  0  0  0
  7 19  2  0  0  0  0
  8  9  1  0  0  0  0
  9 10  1  0  0  0  0
 10 11  1  0  0  0  0
 11 12  1  0  0  0  0
 12 16  1  0  0  0  0
 13 14  1  0  0  0  0
 13 16  1  0  0  0  0
 14 17  1  0  0  0  0
  1 21  1  0  0  0  0
  2 22  1  0  0  0  0
  3 23  1  0  0  0  0
  8 24  1  0  0  0  0
  8 25  1  0  0  0  0
  9 26  1  0  0  0  0
  9 27  1  0  0  0  0
 10 28  1  0  0  0  0
 10 29  1  0  0  0  0
 11 30  1  0  0  0  0
 11 31  1  0  0  0  0
 12 32  1  0  0  0  0
 12 33  1  0  0  0  0
 13 34  1  0  0  0  0
 13 35  1  0  0  0  0
 14 36  1  0  0  0  0
 14 37  1  0  0  0  0
 17 38  1  0  0  0  0
 20 39  1  0  0  0  0
M  END
> <idnumber>
Z409124566

> <heavy_atoms>
20

> <LogS>
-1.91

> <LogP>
2.498

> <rotating_bonds>
4

> <PSA>
82.53

> <hb_acceptors>
4

> <hb_donors>
2

> <Collection>
Legacy

> <link>
https://www.enaminestore.com/catalog/Z409124566

> <ROCS_ShapeQuery>
_x1140_x0812_0A_x1140_0A_x1097_0A_x0365_0A_x1097_0A_x0310_0A

> <ROCS_TanimotoCombo>
0.637 

> <ROCS_ShapeTanimoto>
0.224 

> <ROCS_ColorTanimoto>
0.413 

> <ROCS_RefTversky>
0.208 

> <ROCS_RefColorTversky>
0.585 

> <ROCS_RefTverskyCombo>
0.792 

> <ROCS_FitTversky>
1.550 

> <ROCS_FitColorTversky>
0.584 

> <ROCS_FitTverskyCombo>
2.134 

> <ROCS_ColorScore>
-4.679

> <ROCS_Overlap>
2132.154

> <ROCS_Rank>
245                 

$$$$
untitled-dbase-331284_9
  -OEChem-02092421083D

 24 25  0     0  0  0  0  0  0999 V2000
   11.8597   15.3307   22.2704 C   0  0  0  0  0  0  0  0  0  0  0  0
    8.2950   12.1330   24.2329 C   0  0  0  0  0  0  0  0  0  0  0  0
    8.9457    9.5102   24.9258 C   0  0  0  0  0  0  0  0  0  0  0  0
    9.2670   11.4414   23.5100 C   0  0  0  0  0  0  0  0  0  0  0  0
    7.6483   11.5132   25.3022 C   0  0  0  0  0  0  0  0  0  0  0  0
    7.9737   10.2018   25.6486 C   0  0  0  0  0  0  0  0  0  0  0  0
    9.5923   10.1300   23.8565 C   0  0  0  0  0  0  0  0  0  0  0  0
    9.9173   12.1587   22.3833 C   0  0  0  0  0  0  0  0  0  0  0  0
   11.9120   13.4971   20.5394 C   0  0  0  0  0  0  0  0  0  0  0  0
   10.6450   14.2657   20.3340 C   0  0  0  0  0  0  0  0  0  0  0  0
   11.2356   14.1553   21.7259 C   0  0  0  0  0  0  0  0  0  0  0  0
   12.3632   16.2792   22.7097 N   0  0  0  0  0  0  0  0  0  0  0  0
   10.5843   13.3437   22.7007 N   0  0  0  0  0  0  0  0  0  0  0  0
    9.8250   11.7009   21.2474 O   0  0  0  0  0  0  0  0  0  0  0  0
    6.7149   12.1772   25.9965 F   0  0  0  0  0  0  0  0  0  0  0  0
    7.3526    9.6069   26.6755 F   0  0  0  0  0  0  0  0  0  0  0  0
   11.0403    9.0308   22.8172 I   0  0  0  0  0  0  0  0  0  0  0  0
    8.0311   13.1554   23.9743 H   0  0  0  0  0  0  0  0  0  0  0  0
    9.1812    8.4893   25.2156 H   0  0  0  0  0  0  0  0  0  0  0  0
   11.8640   12.4175   20.4528 H   0  0  0  0  0  0  0  0  0  0  0  0
   12.8292   13.9266   20.1525 H   0  0  0  0  0  0  0  0  0  0  0  0
   10.7101   15.2118   19.8088 H   0  0  0  0  0  0  0  0  0  0  0  0
    9.7462   13.7023   20.1105 H   0  0  0  0  0  0  0  0  0  0  0  0
   10.5559   13.6817   23.6666 H   0  0  0  0  0  0  0  0  0  0  0  0
  1 11  1  0  0  0  0
  1 12  3  0  0  0  0
  2  4  2  0  0  0  0
  2  5  1  0  0  0  0
  3  6  1  0  0  0  0
  3  7  2  0  0  0  0
  4  7  1  0  0  0  0
  4  8  1  0  0  0  0
  5  6  2  0  0  0  0
  5 15  1  0  0  0  0
  6 16  1  0  0  0  0
  7 17  1  0  0  0  0
  8 13  1  0  0  0  0
  8 14  2  0  0  0  0
  9 10  1  0  0  0  0
  9 11  1  0  0  0  0
 10 11  1  0  0  0  0
 11 13  1  0  0  0  0
  2 18  1  0  0  0  0
  3 19  1  0  0  0  0
  9 20  1  0  0  0  0
  9 21  1  0  0  0  0
 10 22  1  0  0  0  0
 10 23  1  0  0  0  0
 13 24  1  0  0  0  0
M  END
> <idnumber>
Z1420340146

> <heavy_atoms>
17

> <LogS>
-4.04

> <LogP>
1.069

> <rotating_bonds>
2

> <PSA>
52.89

> <hb_acceptors>
2

> <hb_donors>
1

> <Collection>
Legacy

> <link>
https://www.enaminestore.com/catalog/Z1420340146

> <ROCS_ShapeQuery>
_x1140_x0812_0A_x1140_0A_x1097_0A_x0365_0A_x1097_0A_x0310_0A

> <ROCS_TanimotoCombo>
0.637 

> <ROCS_ShapeTanimoto>
0.235 

> <ROCS_ColorTanimoto>
0.402 

> <ROCS_RefTversky>
0.213 

> <ROCS_RefColorTversky>
0.475 

> <ROCS_RefTverskyCombo>
0.688 

> <ROCS_FitTversky>
1.760 

> <ROCS_FitColorTversky>
0.724 

> <ROCS_FitTverskyCombo>
2.484 

> <ROCS_ColorScore>
-3.731

> <ROCS_Overlap>
2185.257

> <ROCS_Rank>
246                 

$$$$
untitled-dbase-505988_9
  -OEChem-02092421083D

 42 43  0     1  0  0  0  0  0999 V2000
   14.3393   11.8776   20.2873 C   0  0  0  0  0  0  0  0  0  0  0  0
   14.6035   10.5108   20.3738 C   0  0  0  0  0  0  0  0  0  0  0  0
   13.3960   12.4606   21.1335 C   0  0  0  0  0  0  0  0  0  0  0  0
   13.9243    9.7268   21.3064 C   0  0  0  0  0  0  0  0  0  0  0  0
   12.7168   11.6766   22.0661 C   0  0  0  0  0  0  0  0  0  0  0  0
   12.9809   10.3097   22.1525 C   0  0  0  0  0  0  0  0  0  0  0  0
    7.2281   10.2080   25.0895 C   0  0  0  0  0  0  0  0  0  0  0  0
   10.2922   12.0294   22.5394 C   0  0  0  0  0  0  0  0  0  0  0  0
    7.9395   11.7760   23.2903 C   0  0  0  0  0  0  0  0  0  0  0  0
    9.5967   12.2768   24.9680 C   0  0  0  0  0  0  0  0  0  0  0  0
    7.2914   11.6450   24.6630 C   0  0  2  0  0  0  0  0  0  0  0  0
    8.2124   12.4400   25.6012 C   0  0  2  0  0  0  0  0  0  0  0  0
    7.8034   13.9109   25.6739 C   0  0  0  0  0  0  0  0  0  0  0  0
   11.1652    8.6150   22.4952 C   0  0  0  0  0  0  0  0  0  0  0  0
   11.7076   12.3252   22.9663 C   0  0  0  0  0  0  0  0  0  0  0  0
   12.2659    9.4499   23.1426 C   0  0  0  0  0  0  0  0  0  0  0  0
    9.3477   12.0369   23.5512 N   0  0  0  0  0  0  0  0  0  0  0  0
    6.1791    9.9254   25.9322 N   0  0  0  0  0  0  0  0  0  0  0  0
    8.0396    9.3739   24.6959 O   0  0  0  0  0  0  0  0  0  0  0  0
   10.0321   11.8066   21.3557 O   0  0  0  0  0  0  0  0  0  0  0  0
   14.8677   12.4875   19.5606 H   0  0  0  0  0  0  0  0  0  0  0  0
   15.3380   10.0575   19.7143 H   0  0  0  0  0  0  0  0  0  0  0  0
   13.1962   13.5262   21.0571 H   0  0  0  0  0  0  0  0  0  0  0  0
   14.1375    8.6627   21.3664 H   0  0  0  0  0  0  0  0  0  0  0  0
    7.8710   10.8567   22.6933 H   0  0  0  0  0  0  0  0  0  0  0  0
    7.5093   12.5936   22.6987 H   0  0  0  0  0  0  0  0  0  0  0  0
   10.2013   13.1901   25.0488 H   0  0  0  0  0  0  0  0  0  0  0  0
   10.1598   11.4465   25.4104 H   0  0  0  0  0  0  0  0  0  0  0  0
    6.2780   12.0531   24.6584 H   0  0  0  0  0  0  0  0  0  0  0  0
    8.2065   12.0225   26.5993 H   0  0  0  0  0  0  0  0  0  0  0  0
    7.8034   14.3502   24.6754 H   0  0  0  0  0  0  0  0  0  0  0  0
    8.5031   14.4644   26.3016 H   0  0  0  0  0  0  0  0  0  0  0  0
    6.8025   14.0016   26.0982 H   0  0  0  0  0  0  0  0  0  0  0  0
   10.4388    9.2528   21.9802 H   0  0  0  0  0  0  0  0  0  0  0  0
   10.6288    8.0313   23.2499 H   0  0  0  0  0  0  0  0  0  0  0  0
   11.5811    7.9179   21.7599 H   0  0  0  0  0  0  0  0  0  0  0  0
   11.8410   11.9786   23.9926 H   0  0  0  0  0  0  0  0  0  0  0  0
   11.8433   13.4077   22.9834 H   0  0  0  0  0  0  0  0  0  0  0  0
   12.9768    8.7795   23.6501 H   0  0  0  0  0  0  0  0  0  0  0  0
   11.8275   10.0697   23.9403 H   0  0  0  0  0  0  0  0  0  0  0  0
    5.5492   10.6764   26.1945 H   0  0  0  0  0  0  0  0  0  0  0  0
    6.0095    8.9958   26.3023 H   0  0  0  0  0  0  0  0  0  0  0  0
  1  2  1  0  0  0  0
  1  3  2  0  0  0  0
  2  4  2  0  0  0  0
  3  5  1  0  0  0  0
  4  6  1  0  0  0  0
  5  6  2  0  0  0  0
  5 15  1  0  0  0  0
  6 16  1  0  0  0  0
  7 11  1  6  0  0  0
  7 18  1  0  0  0  0
  7 19  2  0  0  0  0
  8 15  1  0  0  0  0
  8 17  1  0  0  0  0
  8 20  2  0  0  0  0
  9 11  1  0  0  0  0
  9 17  1  0  0  0  0
 10 12  1  0  0  0  0
 10 17  1  0  0  0  0
 11 12  1  0  0  0  0
 12 13  1  1  0  0  0
 14 16  1  0  0  0  0
  1 21  1  0  0  0  0
  2 22  1  0  0  0  0
  3 23  1  0  0  0  0
  4 24  1  0  0  0  0
  9 25  1  0  0  0  0
  9 26  1  0  0  0  0
 10 27  1  0  0  0  0
 10 28  1  0  0  0  0
 11 29  1  0  0  0  0
 12 30  1  0  0  0  0
 13 31  1  0  0  0  0
 13 32  1  0  0  0  0
 13 33  1  0  0  0  0
 14 34  1  0  0  0  0
 14 35  1  0  0  0  0
 14 36  1  0  0  0  0
 15 37  1  0  0  0  0
 15 38  1  0  0  0  0
 16 39  1  0  0  0  0
 16 40  1  0  0  0  0
 18 41  1  0  0  0  0
 18 42  1  0  0  0  0
M  END
> <idnumber>
Z2055186296

> <heavy_atoms>
20

> <LogS>
-3.318

> <LogP>
1.875

> <rotating_bonds>
4

> <PSA>
63.4

> <hb_acceptors>
2

> <hb_donors>
1

> <Collection>
Advanced

> <link>
https://www.enaminestore.com/catalog/Z2055186296

> <ROCS_ShapeQuery>
_x1140_x0812_0A_x1140_0A_x1097_0A_x0365_0A_x1097_0A_x0310_0A

> <ROCS_TanimotoCombo>
0.637 

> <ROCS_ShapeTanimoto>
0.210 

> <ROCS_ColorTanimoto>
0.426 

> <ROCS_RefTversky>
0.197 

> <ROCS_RefColorTversky>
0.530 

> <ROCS_RefTverskyCombo>
0.727 

> <ROCS_FitTversky>
1.477 

> <ROCS_FitColorTversky>
0.686 

> <ROCS_FitTverskyCombo>
2.163 

> <ROCS_ColorScore>
-4.185

> <ROCS_Overlap>
2022.679

> <ROCS_Rank>
247                 

$$$$
untitled-dbase-404496_8
  -OEChem-02092421083D

 33 35  0     0  0  0  0  0  0999 V2000
   11.8085   15.2896   22.4027 C   0  0  0  0  0  0  0  0  0  0  0  0
   10.3841    7.1460   21.3981 C   0  0  0  0  0  0  0  0  0  0  0  0
   11.2678    8.0245   22.0247 C   0  0  0  0  0  0  0  0  0  0  0  0
    9.0079    7.3112   21.5548 C   0  0  0  0  0  0  0  0  0  0  0  0
   10.7755    9.0683   22.8081 C   0  0  0  0  0  0  0  0  0  0  0  0
    8.5155    8.3550   22.3383 C   0  0  0  0  0  0  0  0  0  0  0  0
    8.4515   12.2457   24.5478 C   0  0  0  0  0  0  0  0  0  0  0  0
    9.3993    9.2336   22.9649 C   0  0  0  0  0  0  0  0  0  0  0  0
    9.1217   11.6007   23.5372 C   0  0  0  0  0  0  0  0  0  0  0  0
    7.8733   11.2089   25.3043 C   0  0  0  0  0  0  0  0  0  0  0  0
    9.8886   12.1758   22.4759 C   0  0  0  0  0  0  0  0  0  0  0  0
    5.6220   10.8450   26.5971 C   0  0  0  0  0  0  0  0  0  0  0  0
    5.7966   12.3244   26.4521 C   0  0  0  0  0  0  0  0  0  0  0  0
    7.0186   11.4326   26.5505 C   0  0  0  0  0  0  0  0  0  0  0  0
   11.2680   14.0458   21.8543 C   0  0  0  0  0  0  0  0  0  0  0  0
   12.2376   16.2763   22.8368 N   0  0  0  0  0  0  0  0  0  0  0  0
    8.1515    9.9973   24.8160 N   0  0  0  0  0  0  0  0  0  0  0  0
    8.9120   10.2687   23.7417 N   0  0  0  0  0  0  0  0  0  0  0  0
   10.0340   11.6793   21.3357 O   0  0  0  0  0  0  0  0  0  0  0  0
   10.4733   13.3701   22.8348 O   0  0  0  0  0  0  0  0  0  0  0  0
   10.7668    6.3342   20.7866 H   0  0  0  0  0  0  0  0  0  0  0  0
   12.3393    7.8969   21.9017 H   0  0  0  0  0  0  0  0  0  0  0  0
    8.3203    6.6275   21.0654 H   0  0  0  0  0  0  0  0  0  0  0  0
   11.4753    9.7465   23.2904 H   0  0  0  0  0  0  0  0  0  0  0  0
    7.4405    8.4728   22.4514 H   0  0  0  0  0  0  0  0  0  0  0  0
    8.3907   13.3120   24.7128 H   0  0  0  0  0  0  0  0  0  0  0  0
    5.2622   10.4691   27.5472 H   0  0  0  0  0  0  0  0  0  0  0  0
    5.2648   10.2936   25.7357 H   0  0  0  0  0  0  0  0  0  0  0  0
    5.5585   12.7687   25.4931 H   0  0  0  0  0  0  0  0  0  0  0  0
    5.5552   12.9481   27.3043 H   0  0  0  0  0  0  0  0  0  0  0  0
    7.5653   11.4599   27.4910 H   0  0  0  0  0  0  0  0  0  0  0  0
   10.6307   14.2515   20.9894 H   0  0  0  0  0  0  0  0  0  0  0  0
   12.0680   13.3726   21.5318 H   0  0  0  0  0  0  0  0  0  0  0  0
  1 15  1  0  0  0  0
  1 16  3  0  0  0  0
  2  3  1  0  0  0  0
  2  4  2  0  0  0  0
  3  5  2  0  0  0  0
  4  6  1  0  0  0  0
  5  8  1  0  0  0  0
  6  8  2  0  0  0  0
  7  9  2  0  0  0  0
  7 10  1  0  0  0  0
  8 18  1  0  0  0  0
  9 11  1  0  0  0  0
  9 18  1  0  0  0  0
 10 14  1  0  0  0  0
 10 17  2  0  0  0  0
 11 19  2  0  0  0  0
 11 20  1  0  0  0  0
 12 13  1  0  0  0  0
 12 14  1  0  0  0  0
 13 14  1  0  0  0  0
 15 20  1  0  0  0  0
 17 18  1  0  0  0  0
  2 21  1  0  0  0  0
  3 22  1  0  0  0  0
  4 23  1  0  0  0  0
  5 24  1  0  0  0  0
  6 25  1  0  0  0  0
  7 26  1  0  0  0  0
 12 27  1  0  0  0  0
 12 28  1  0  0  0  0
 13 29  1  0  0  0  0
 13 30  1  0  0  0  0
 14 31  1  0  0  0  0
 15 32  1  0  0  0  0
 15 33  1  0  0  0  0
M  END
> <idnumber>
Z51662594

> <heavy_atoms>
20

> <LogS>
-3.159

> <LogP>
2.03

> <rotating_bonds>
5

> <PSA>
67.91

> <hb_acceptors>
3

> <hb_donors>
0

> <Collection>
Legacy

> <link>
https://www.enaminestore.com/catalog/Z51662594

> <ROCS_ShapeQuery>
_x1140_x0812_0A_x1140_0A_x1097_0A_x0365_0A_x1097_0A_x0310_0A

> <ROCS_TanimotoCombo>
0.637 

> <ROCS_ShapeTanimoto>
0.274 

> <ROCS_ColorTanimoto>
0.362 

> <ROCS_RefTversky>
0.245 

> <ROCS_RefColorTversky>
0.440 

> <ROCS_RefTverskyCombo>
0.685 

> <ROCS_FitTversky>
1.792 

> <ROCS_FitColorTversky>
0.671 

> <ROCS_FitTverskyCombo>
2.464 

> <ROCS_ColorScore>
-3.458

> <ROCS_Overlap>
2512.960

> <ROCS_Rank>
248                 

$$$$
untitled-dbase-1014886_12
  -OEChem-02092421083D

 27 28  0     1  0  0  0  0  0999 V2000
    8.6741   12.5743   24.6868 C   0  0  0  0  0  0  0  0  0  0  0  0
    7.6846   11.9858   25.4665 C   0  0  0  0  0  0  0  0  0  0  0  0
    8.9756   10.4874   23.5867 C   0  0  0  0  0  0  0  0  0  0  0  0
    9.3367   11.8177   23.7267 C   0  0  0  0  0  0  0  0  0  0  0  0
    7.3973   10.6480   25.2484 C   0  0  0  0  0  0  0  0  0  0  0  0
   10.6942   12.0355   21.6210 C   0  0  0  0  0  0  0  0  0  0  0  0
   11.7977   12.8636   21.1240 C   0  0  2  0  0  0  0  0  0  0  0  0
   12.0026   14.2470   21.7155 C   0  0  2  0  0  0  0  0  0  0  0  0
   11.5006   14.0868   20.3262 C   0  0  0  0  0  0  0  0  0  0  0  0
   13.3793   14.7581   21.9631 C   0  0  0  0  0  0  0  0  0  0  0  0
    8.0196    9.8808   24.3254 N   0  0  0  0  0  0  0  0  0  0  0  0
    6.3876   10.0624   26.0519 N   0  0  0  0  0  0  0  0  0  0  0  0
   10.3488   12.3887   22.9193 N   0  0  0  0  0  0  0  0  0  0  0  0
   10.1940   11.1659   20.9149 O   0  0  0  0  0  0  0  0  0  0  0  0
   12.2855   14.4185   19.2444 F   0  0  0  0  0  0  0  0  0  0  0  0
   10.2045   14.4296   20.0105 F   0  0  0  0  0  0  0  0  0  0  0  0
    8.9213   13.6219   24.8365 H   0  0  0  0  0  0  0  0  0  0  0  0
    7.1611   12.5693   26.2172 H   0  0  0  0  0  0  0  0  0  0  0  0
    9.4574    9.8454   22.8553 H   0  0  0  0  0  0  0  0  0  0  0  0
   12.6856   12.3070   20.8431 H   0  0  0  0  0  0  0  0  0  0  0  0
   11.3015   14.5951   22.4646 H   0  0  0  0  0  0  0  0  0  0  0  0
   14.0894   14.4018   21.1991 H   0  0  0  0  0  0  0  0  0  0  0  0
   13.7646   14.4318   22.9429 H   0  0  0  0  0  0  0  0  0  0  0  0
   13.4130   15.8598   21.9503 H   0  0  0  0  0  0  0  0  0  0  0  0
    5.9612   10.6122   26.7656 H   0  0  0  0  0  0  0  0  0  0  0  0
    6.1940    9.0901   25.9482 H   0  0  0  0  0  0  0  0  0  0  0  0
   10.8764   13.1446   23.3512 H   0  0  0  0  0  0  0  0  0  0  0  0
  1  2  2  0  0  0  0
  1  4  1  0  0  0  0
  2  5  1  0  0  0  0
  3  4  2  0  0  0  0
  3 11  1  0  0  0  0
  4 13  1  0  0  0  0
  5 11  2  0  0  0  0
  5 12  1  0  0  0  0
  6  7  1  1  0  0  0
  6 13  1  0  0  0  0
  6 14  2  0  0  0  0
  7  8  1  0  0  0  0
  7  9  1  0  0  0  0
  8  9  1  0  0  0  0
  8 10  1  6  0  0  0
  9 15  1  0  0  0  0
  9 16  1  0  0  0  0
  1 17  1  0  0  0  0
  2 18  1  0  0  0  0
  3 19  1  0  0  0  0
  7 20  1  0  0  0  0
  8 21  1  0  0  0  0
 10 22  1  0  0  0  0
 10 23  1  0  0  0  0
 10 24  1  0  0  0  0
 12 25  1  0  0  0  0
 12 26  1  0  0  0  0
 13 27  1  0  0  0  0
M  END
> <idnumber>
Z8525314575

> <heavy_atoms>
23

> <LogS>
-3.461

> <LogP>
1.554

> <rotating_bonds>
3

> <PSA>
68.01

> <hb_acceptors>
3

> <hb_donors>
2

> <SaltType>
OC(=O)C(F)(F)F

> <Collection>
Functional

> <link>
https://www.enaminestore.com/catalog/Z8525314575

> <ROCS_ShapeQuery>
_x1140_x0812_0A_x1140_0A_x1097_0A_x0365_0A_x1097_0A_x0310_0A

> <ROCS_TanimotoCombo>
0.637 

> <ROCS_ShapeTanimoto>
0.211 

> <ROCS_ColorTanimoto>
0.425 

> <ROCS_RefTversky>
0.195 

> <ROCS_RefColorTversky>
0.529 

> <ROCS_RefTverskyCombo>
0.724 

> <ROCS_FitTversky>
1.647 

> <ROCS_FitColorTversky>
0.685 

> <ROCS_FitTverskyCombo>
2.331 

> <ROCS_ColorScore>
-4.181

> <ROCS_Overlap>
2001.652

> <ROCS_Rank>
249                 

$$$$
untitled-dbase-505859_166
  -OEChem-02092421083D

 36 36  0     1  0  0  0  0  0999 V2000
   11.7258   15.7242   22.4799 C   0  0  0  0  0  0  0  0  0  0  0  0
    7.1636   10.1079   25.0778 C   0  0  0  0  0  0  0  0  0  0  0  0
    9.9799   12.3112   22.5433 C   0  0  0  0  0  0  0  0  0  0  0  0
    7.6778   11.7825   23.3077 C   0  0  0  0  0  0  0  0  0  0  0  0
    9.2869   12.4290   24.9824 C   0  0  0  0  0  0  0  0  0  0  0  0
    7.0628   11.5516   24.6825 C   0  0  2  0  0  0  0  0  0  0  0  0
    7.8999   12.4242   25.6304 C   0  0  2  0  0  0  0  0  0  0  0  0
    7.3312   13.8387   25.7387 C   0  0  0  0  0  0  0  0  0  0  0  0
   10.3698   14.6512   20.7398 C   0  0  0  0  0  0  0  0  0  0  0  0
    9.3568   15.2343   22.9502 C   0  0  0  0  0  0  0  0  0  0  0  0
   11.0513   13.3506   22.7548 C   0  0  0  0  0  0  0  0  0  0  0  0
   10.6370   14.7454   22.2529 C   0  0  0  0  0  0  0  0  0  0  0  0
   12.5786   16.4910   22.6578 N   0  0  0  0  0  0  0  0  0  0  0  0
    9.0511   12.1926   23.5627 N   0  0  0  0  0  0  0  0  0  0  0  0
    6.1614    9.6930   25.9226 N   0  0  0  0  0  0  0  0  0  0  0  0
    8.0584    9.3774   24.6594 O   0  0  0  0  0  0  0  0  0  0  0  0
    9.9623   11.6351   21.5132 O   0  0  0  0  0  0  0  0  0  0  0  0
    7.7053   10.8740   22.6912 H   0  0  0  0  0  0  0  0  0  0  0  0
    7.1534   12.5595   22.7378 H   0  0  0  0  0  0  0  0  0  0  0  0
    9.7874   13.4018   25.0782 H   0  0  0  0  0  0  0  0  0  0  0  0
    9.9433   11.6572   25.4018 H   0  0  0  0  0  0  0  0  0  0  0  0
    6.0104   11.8447   24.6952 H   0  0  0  0  0  0  0  0  0  0  0  0
    7.9509   11.9878   26.6190 H   0  0  0  0  0  0  0  0  0  0  0  0
    7.2719   14.2962   24.7501 H   0  0  0  0  0  0  0  0  0  0  0  0
    7.9719   14.4533   26.3726 H   0  0  0  0  0  0  0  0  0  0  0  0
    6.3309   13.8089   26.1730 H   0  0  0  0  0  0  0  0  0  0  0  0
    9.5681   13.9358   20.5201 H   0  0  0  0  0  0  0  0  0  0  0  0
   11.2614   14.3161   20.1962 H   0  0  0  0  0  0  0  0  0  0  0  0
   10.0733   15.6226   20.3281 H   0  0  0  0  0  0  0  0  0  0  0  0
    8.5227   14.5377   22.8076 H   0  0  0  0  0  0  0  0  0  0  0  0
    9.5073   15.3321   24.0322 H   0  0  0  0  0  0  0  0  0  0  0  0
    9.0472   16.2134   22.5674 H   0  0  0  0  0  0  0  0  0  0  0  0
   11.9431   12.9965   22.2310 H   0  0  0  0  0  0  0  0  0  0  0  0
   11.2648   13.3652   23.8274 H   0  0  0  0  0  0  0  0  0  0  0  0
    5.4550   10.3639   26.2066 H   0  0  0  0  0  0  0  0  0  0  0  0
    6.0997    8.7428   26.2736 H   0  0  0  0  0  0  0  0  0  0  0  0
  1 12  1  0  0  0  0
  1 13  3  0  0  0  0
  2  6  1  1  0  0  0
  2 15  1  0  0  0  0
  2 16  2  0  0  0  0
  3 11  1  0  0  0  0
  3 14  1  0  0  0  0
  3 17  2  0  0  0  0
  4  6  1  0  0  0  0
  4 14  1  0  0  0  0
  5  7  1  0  0  0  0
  5 14  1  0  0  0  0
  6  7  1  0  0  0  0
  7  8  1  6  0  0  0
  9 12  1  0  0  0  0
 10 12  1  0  0  0  0
 11 12  1  0  0  0  0
  4 18  1  0  0  0  0
  4 19  1  0  0  0  0
  5 20  1  0  0  0  0
  5 21  1  0  0  0  0
  6 22  1  0  0  0  0
  7 23  1  0  0  0  0
  8 24  1  0  0  0  0
  8 25  1  0  0  0  0
  8 26  1  0  0  0  0
  9 27  1  0  0  0  0
  9 28  1  0  0  0  0
  9 29  1  0  0  0  0
 10 30  1  0  0  0  0
 10 31  1  0  0  0  0
 10 32  1  0  0  0  0
 11 33  1  0  0  0  0
 11 34  1  0  0  0  0
 15 35  1  0  0  0  0
 15 36  1  0  0  0  0
M  END
> <idnumber>
Z2055169336

> <heavy_atoms>
17

> <LogS>
-1.351

> <LogP>
-0.324

> <rotating_bonds>
3

> <PSA>
87.19

> <hb_acceptors>
3

> <hb_donors>
1

> <Collection>
Advanced

> <link>
https://www.enaminestore.com/catalog/Z2055169336

> <ROCS_ShapeQuery>
_x1140_x0812_0A_x1140_0A_x1097_0A_x0365_0A_x1097_0A_x0310_0A

> <ROCS_TanimotoCombo>
0.637 

> <ROCS_ShapeTanimoto>
0.216 

> <ROCS_ColorTanimoto>
0.420 

> <ROCS_RefTversky>
0.199 

> <ROCS_RefColorTversky>
0.524 

> <ROCS_RefTverskyCombo>
0.724 

> <ROCS_FitTversky>
1.665 

> <ROCS_FitColorTversky>
0.679 

> <ROCS_FitTverskyCombo>
2.344 

> <ROCS_ColorScore>
-4.143

> <ROCS_Overlap>
2043.233

> <ROCS_Rank>
250                 

$$$$
untitled-dbase-1008002_29
  -OEChem-02092421083D

 36 38  0     0  0  0  0  0  0999 V2000
    8.3645   12.6573   24.1382 C   0  0  0  0  0  0  0  0  0  0  0  0
    7.3757   12.0675   24.9179 C   0  0  0  0  0  0  0  0  0  0  0  0
    9.2579   10.4920   23.7259 C   0  0  0  0  0  0  0  0  0  0  0  0
   11.3072   15.7630   23.6749 C   0  0  0  0  0  0  0  0  0  0  0  0
   11.9627   13.9476   21.8391 C   0  0  0  0  0  0  0  0  0  0  0  0
    9.3273   11.8615   23.5274 C   0  0  0  0  0  0  0  0  0  0  0  0
   12.5619   15.1935   21.9006 C   0  0  0  0  0  0  0  0  0  0  0  0
    7.3936   10.6888   25.0540 C   0  0  0  0  0  0  0  0  0  0  0  0
   10.9946   13.6806   22.7696 C   0  0  0  0  0  0  0  0  0  0  0  0
   12.4778   13.1379   20.7038 C   0  0  0  0  0  0  0  0  0  0  0  0
   13.5564   15.3576   20.7875 C   0  0  0  0  0  0  0  0  0  0  0  0
   13.7789   13.8923   20.3789 C   0  0  0  0  0  0  0  0  0  0  0  0
    5.8058   11.2906   27.8660 C   0  0  0  0  0  0  0  0  0  0  0  0
    5.3704   10.8737   26.5025 C   0  0  0  0  0  0  0  0  0  0  0  0
    8.3125    9.8829   24.4761 N   0  0  0  0  0  0  0  0  0  0  0  0
   12.2643   16.1401   22.8011 N   0  0  0  0  0  0  0  0  0  0  0  0
   10.6459   14.5796   23.7158 N   0  0  0  0  0  0  0  0  0  0  0  0
   10.3409   12.4293   22.7335 N   0  0  0  0  0  0  0  0  0  0  0  0
    6.3800   10.1032   25.8530 N   0  0  0  0  0  0  0  0  0  0  0  0
    8.3758   13.7367   24.0128 H   0  0  0  0  0  0  0  0  0  0  0  0
    6.6209   12.6810   25.3986 H   0  0  0  0  0  0  0  0  0  0  0  0
    9.9813    9.8191   23.2752 H   0  0  0  0  0  0  0  0  0  0  0  0
   11.0318   16.4897   24.4297 H   0  0  0  0  0  0  0  0  0  0  0  0
   12.6825   12.0990   20.9773 H   0  0  0  0  0  0  0  0  0  0  0  0
   11.7803   13.1752   19.8608 H   0  0  0  0  0  0  0  0  0  0  0  0
   13.1108   15.9340   19.9708 H   0  0  0  0  0  0  0  0  0  0  0  0
   14.4816   15.8332   21.1230 H   0  0  0  0  0  0  0  0  0  0  0  0
   14.5966   13.4730   20.9819 H   0  0  0  0  0  0  0  0  0  0  0  0
   14.0694   13.7905   19.3287 H   0  0  0  0  0  0  0  0  0  0  0  0
    6.7207   11.8966   27.7901 H   0  0  0  0  0  0  0  0  0  0  0  0
    5.0104   11.8853   28.3389 H   0  0  0  0  0  0  0  0  0  0  0  0
    6.0074   10.3974   28.4755 H   0  0  0  0  0  0  0  0  0  0  0  0
    4.4557   10.2686   26.5870 H   0  0  0  0  0  0  0  0  0  0  0  0
    5.1620   11.7715   25.9020 H   0  0  0  0  0  0  0  0  0  0  0  0
   10.6674   11.8231   21.9877 H   0  0  0  0  0  0  0  0  0  0  0  0
    6.4023    9.1084   25.9460 H   0  0  0  0  0  0  0  0  0  0  0  0
  1  2  2  0  0  0  0
  1  6  1  0  0  0  0
  2  8  1  0  0  0  0
  3  6  2  0  0  0  0
  3 15  1  0  0  0  0
  4 16  1  0  0  0  0
  4 17  2  0  0  0  0
  5  7  1  0  0  0  0
  5  9  2  0  0  0  0
  5 10  1  0  0  0  0
  6 18  1  0  0  0  0
  7 11  1  0  0  0  0
  7 16  2  0  0  0  0
  8 15  2  0  0  0  0
  8 19  1  0  0  0  0
  9 17  1  0  0  0  0
  9 18  1  0  0  0  0
 10 12  1  0  0  0  0
 11 12  1  0  0  0  0
 13 14  1  0  0  0  0
 14 19  1  0  0  0  0
  1 20  1  0  0  0  0
  2 21  1  0  0  0  0
  3 22  1  0  0  0  0
  4 23  1  0  0  0  0
 10 24  1  0  0  0  0
 10 25  1  0  0  0  0
 11 26  1  0  0  0  0
 11 27  1  0  0  0  0
 12 28  1  0  0  0  0
 12 29  1  0  0  0  0
 13 30  1  0  0  0  0
 13 31  1  0  0  0  0
 13 32  1  0  0  0  0
 14 33  1  0  0  0  0
 14 34  1  0  0  0  0
 18 35  1  0  0  0  0
 19 36  1  0  0  0  0
M  END
> <idnumber>
Z3079948286

> <heavy_atoms>
19

> <LogS>
-2.721

> <LogP>
3.113

> <rotating_bonds>
4

> <PSA>
62.73

> <hb_acceptors>
5

> <hb_donors>
2

> <Collection>
HTS

> <link>
https://www.enaminestore.com/catalog/Z3079948286

> <ROCS_ShapeQuery>
_x1140_x0812_0A_x1140_0A_x1097_0A_x0365_0A_x1097_0A_x0310_0A

> <ROCS_TanimotoCombo>
0.637 

> <ROCS_ShapeTanimoto>
0.235 

> <ROCS_ColorTanimoto>
0.402 

> <ROCS_RefTversky>
0.216 

> <ROCS_RefColorTversky>
0.574 

> <ROCS_RefTverskyCombo>
0.790 

> <ROCS_FitTversky>
1.624 

> <ROCS_FitColorTversky>
0.572 

> <ROCS_FitTverskyCombo>
2.196 

> <ROCS_ColorScore>
-4.593

> <ROCS_Overlap>
2211.933

> <ROCS_Rank>
251                 

$$$$
untitled-dbase-810557_181
  -OEChem-02092421083D

 51 53  0     0  0  0  0  0  0999 V2000
    9.0597   11.7040   23.5325 C   0  0  0  0  0  0  0  0  0  0  0  0
    8.8799   10.3376   23.5861 C   0  0  0  0  0  0  0  0  0  0  0  0
    7.7565   10.8889   25.3871 C   0  0  0  0  0  0  0  0  0  0  0  0
    9.7843   12.5322   22.5609 C   0  0  0  0  0  0  0  0  0  0  0  0
   14.4762   13.0155   24.3681 C   0  0  0  0  0  0  0  0  0  0  0  0
   13.8734   12.8660   25.7512 C   0  0  0  0  0  0  0  0  0  0  0  0
   13.2753   13.4024   23.5172 C   0  0  0  0  0  0  0  0  0  0  0  0
   12.9450   14.0683   25.8591 C   0  0  0  0  0  0  0  0  0  0  0  0
   10.4462   14.8081   22.0023 C   0  0  0  0  0  0  0  0  0  0  0  0
   10.9101   13.9508   24.3506 C   0  0  0  0  0  0  0  0  0  0  0  0
   10.8939   16.1711   22.4966 C   0  0  0  0  0  0  0  0  0  0  0  0
   12.6339   15.8146   24.0821 C   0  0  0  0  0  0  0  0  0  0  0  0
   12.4119   14.3243   24.4164 C   0  0  0  0  0  0  0  0  0  0  0  0
    6.9405   10.7780   26.6156 C   0  0  0  0  0  0  0  0  0  0  0  0
   11.6296    8.9936   23.8235 C   0  0  0  0  0  0  0  0  0  0  0  0
   11.3970    8.3200   21.4244 C   0  0  0  0  0  0  0  0  0  0  0  0
    9.4076    9.3511   22.6212 C   0  0  0  0  0  0  0  0  0  0  0  0
   10.9563    9.3269   22.4898 C   0  0  0  0  0  0  0  0  0  0  0  0
    8.1332    9.8684   24.6491 N   0  0  0  0  0  0  0  0  0  0  0  0
   10.3663   13.7374   22.9970 N   0  0  0  0  0  0  0  0  0  0  0  0
    9.8211   12.1037   21.4072 O   0  0  0  0  0  0  0  0  0  0  0  0
   12.2909   16.1725   22.7506 O   0  0  0  0  0  0  0  0  0  0  0  0
    8.2643   12.4414   24.8610 S   0  0  0  0  0  0  0  0  0  0  0  0
   15.2227   13.8024   24.3620 H   0  0  0  0  0  0  0  0  0  0  0  0
   14.9325   12.0981   24.0178 H   0  0  0  0  0  0  0  0  0  0  0  0
   13.3286   11.9346   25.8620 H   0  0  0  0  0  0  0  0  0  0  0  0
   14.6486   12.9079   26.5109 H   0  0  0  0  0  0  0  0  0  0  0  0
   13.5772   13.8800   22.5798 H   0  0  0  0  0  0  0  0  0  0  0  0
   12.7165   12.4936   23.2612 H   0  0  0  0  0  0  0  0  0  0  0  0
   12.1156   13.8169   26.5331 H   0  0  0  0  0  0  0  0  0  0  0  0
   13.4506   14.9437   26.2814 H   0  0  0  0  0  0  0  0  0  0  0  0
    9.4553   14.8954   21.5348 H   0  0  0  0  0  0  0  0  0  0  0  0
   11.1457   14.4756   21.2219 H   0  0  0  0  0  0  0  0  0  0  0  0
   10.7443   13.0289   24.9322 H   0  0  0  0  0  0  0  0  0  0  0  0
   10.2877   14.7090   24.8554 H   0  0  0  0  0  0  0  0  0  0  0  0
   10.7202   16.8978   21.6957 H   0  0  0  0  0  0  0  0  0  0  0  0
   10.3132   16.5181   23.3579 H   0  0  0  0  0  0  0  0  0  0  0  0
   12.0894   16.4609   24.7895 H   0  0  0  0  0  0  0  0  0  0  0  0
   13.6921   16.0852   24.2029 H   0  0  0  0  0  0  0  0  0  0  0  0
    7.5799   10.6589   27.5043 H   0  0  0  0  0  0  0  0  0  0  0  0
    6.3087   11.6678   26.7710 H   0  0  0  0  0  0  0  0  0  0  0  0
    6.2535    9.9167   26.5761 H   0  0  0  0  0  0  0  0  0  0  0  0
   11.3208    8.0085   24.1894 H   0  0  0  0  0  0  0  0  0  0  0  0
   11.3831    9.7347   24.5902 H   0  0  0  0  0  0  0  0  0  0  0  0
   12.7197    8.9867   23.7160 H   0  0  0  0  0  0  0  0  0  0  0  0
   11.0775    7.3069   21.6904 H   0  0  0  0  0  0  0  0  0  0  0  0
   10.9699    8.5641   20.4457 H   0  0  0  0  0  0  0  0  0  0  0  0
   12.4877    8.3098   21.3260 H   0  0  0  0  0  0  0  0  0  0  0  0
    9.0614    8.3248   22.8607 H   0  0  0  0  0  0  0  0  0  0  0  0
    8.9769    9.5539   21.6201 H   0  0  0  0  0  0  0  0  0  0  0  0
   11.3011   10.3196   22.1734 H   0  0  0  0  0  0  0  0  0  0  0  0
  1  2  2  0  0  0  0
  1  4  1  0  0  0  0
  1 23  1  0  0  0  0
  2 17  1  0  0  0  0
  2 19  1  0  0  0  0
  3 14  1  0  0  0  0
  3 19  2  0  0  0  0
  3 23  1  0  0  0  0
  4 20  1  0  0  0  0
  4 21  2  0  0  0  0
  5  6  1  0  0  0  0
  5  7  1  0  0  0  0
  6  8  1  0  0  0  0
  7 13  1  0  0  0  0
  8 13  1  0  0  0  0
  9 11  1  0  0  0  0
  9 20  1  0  0  0  0
 10 13  1  0  0  0  0
 10 20  1  0  0  0  0
 11 22  1  0  0  0  0
 12 13  1  0  0  0  0
 12 22  1  0  0  0  0
 15 18  1  0  0  0  0
 16 18  1  0  0  0  0
 17 18  1  0  0  0  0
  5 24  1  0  0  0  0
  5 25  1  0  0  0  0
  6 26  1  0  0  0  0
  6 27  1  0  0  0  0
  7 28  1  0  0  0  0
  7 29  1  0  0  0  0
  8 30  1  0  0  0  0
  8 31  1  0  0  0  0
  9 32  1  0  0  0  0
  9 33  1  0  0  0  0
 10 34  1  0  0  0  0
 10 35  1  0  0  0  0
 11 36  1  0  0  0  0
 11 37  1  0  0  0  0
 12 38  1  0  0  0  0
 12 39  1  0  0  0  0
 14 40  1  0  0  0  0
 14 41  1  0  0  0  0
 14 42  1  0  0  0  0
 15 43  1  0  0  0  0
 15 44  1  0  0  0  0
 15 45  1  0  0  0  0
 16 46  1  0  0  0  0
 16 47  1  0  0  0  0
 16 48  1  0  0  0  0
 17 49  1  0  0  0  0
 17 50  1  0  0  0  0
 18 51  1  0  0  0  0
M  END
> <idnumber>
Z1726273183

> <heavy_atoms>
23

> <LogS>
-4.24

> <LogP>
3.717

> <rotating_bonds>
3

> <PSA>
42.43

> <hb_acceptors>
3

> <hb_donors>
0

> <Collection>
HTS

> <link>
https://www.enaminestore.com/catalog/Z1726273183

> <ROCS_ShapeQuery>
_x1140_x0812_0A_x1140_0A_x1097_0A_x0365_0A_x1097_0A_x0310_0A

> <ROCS_TanimotoCombo>
0.637 

> <ROCS_ShapeTanimoto>
0.240 

> <ROCS_ColorTanimoto>
0.397 

> <ROCS_RefTversky>
0.222 

> <ROCS_RefColorTversky>
0.536 

> <ROCS_RefTverskyCombo>
0.757 

> <ROCS_FitTversky>
1.539 

> <ROCS_FitColorTversky>
0.604 

> <ROCS_FitTverskyCombo>
2.143 

> <ROCS_ColorScore>
-4.260

> <ROCS_Overlap>
2274.806

> <ROCS_Rank>
252                 

$$$$
untitled-dbase-506034_31
  -OEChem-02092421083D

 35 35  0     1  0  0  0  0  0999 V2000
    7.0194   10.1532   25.2260 C   0  0  0  0  0  0  0  0  0  0  0  0
   10.2507   11.2919   22.4926 C   0  0  0  0  0  0  0  0  0  0  0  0
    7.9577   11.5675   23.4036 C   0  0  0  0  0  0  0  0  0  0  0  0
    9.7918   11.6201   24.9674 C   0  0  0  0  0  0  0  0  0  0  0  0
    7.3879   11.5486   24.8166 C   0  0  2  0  0  0  0  0  0  0  0  0
    8.5280   12.0801   25.6989 C   0  0  2  0  0  0  0  0  0  0  0  0
    8.4787   13.6028   25.8211 C   0  0  0  0  0  0  0  0  0  0  0  0
   10.9405    8.7047   21.1818 C   0  0  0  0  0  0  0  0  0  0  0  0
   12.6454    8.3310   22.9774 C   0  0  0  0  0  0  0  0  0  0  0  0
   11.5335   10.5611   22.7983 C   0  0  0  0  0  0  0  0  0  0  0  0
   11.3482    9.0553   22.6149 C   0  0  0  0  0  0  0  0  0  0  0  0
    9.4020   11.4873   23.5684 N   0  0  0  0  0  0  0  0  0  0  0  0
    5.9906   10.0958   26.1363 N   0  0  0  0  0  0  0  0  0  0  0  0
    7.5868    9.1661   24.7644 O   0  0  0  0  0  0  0  0  0  0  0  0
   10.0123   11.6799   21.3476 O   0  0  0  0  0  0  0  0  0  0  0  0
    7.6381   10.7075   22.7999 H   0  0  0  0  0  0  0  0  0  0  0  0
    7.6923   12.4800   22.8556 H   0  0  0  0  0  0  0  0  0  0  0  0
   10.5965   12.3656   25.0184 H   0  0  0  0  0  0  0  0  0  0  0  0
   10.1735   10.6689   25.3572 H   0  0  0  0  0  0  0  0  0  0  0  0
    6.4994   12.1802   24.8893 H   0  0  0  0  0  0  0  0  0  0  0  0
    8.4900   11.6453   26.6888 H   0  0  0  0  0  0  0  0  0  0  0  0
    8.5159   14.0602   24.8314 H   0  0  0  0  0  0  0  0  0  0  0  0
    9.3275   13.9601   26.4057 H   0  0  0  0  0  0  0  0  0  0  0  0
    7.5563   13.9100   26.3160 H   0  0  0  0  0  0  0  0  0  0  0  0
   11.7011    9.0422   20.4694 H   0  0  0  0  0  0  0  0  0  0  0  0
    9.9910    9.1792   20.9111 H   0  0  0  0  0  0  0  0  0  0  0  0
   10.8276    7.6233   21.0549 H   0  0  0  0  0  0  0  0  0  0  0  0
   13.4663    8.6555   22.3291 H   0  0  0  0  0  0  0  0  0  0  0  0
   12.9343    8.5440   24.0121 H   0  0  0  0  0  0  0  0  0  0  0  0
   12.5380    7.2460   22.8716 H   0  0  0  0  0  0  0  0  0  0  0  0
   11.7828   10.8003   23.8337 H   0  0  0  0  0  0  0  0  0  0  0  0
   12.3107   10.9588   22.1448 H   0  0  0  0  0  0  0  0  0  0  0  0
   10.5582    8.6987   23.2885 H   0  0  0  0  0  0  0  0  0  0  0  0
    5.5716   10.9639   26.4531 H   0  0  0  0  0  0  0  0  0  0  0  0
    5.6335    9.2199   26.5042 H   0  0  0  0  0  0  0  0  0  0  0  0
  1  5  1  6  0  0  0
  1 13  1  0  0  0  0
  1 14  2  0  0  0  0
  2 10  1  0  0  0  0
  2 12  1  0  0  0  0
  2 15  2  0  0  0  0
  3  5  1  0  0  0  0
  3 12  1  0  0  0  0
  4  6  1  0  0  0  0
  4 12  1  0  0  0  0
  5  6  1  0  0  0  0
  6  7  1  1  0  0  0
  8 11  1  0  0  0  0
  9 11  1  0  0  0  0
 10 11  1  0  0  0  0
  3 16  1  0  0  0  0
  3 17  1  0  0  0  0
  4 18  1  0  0  0  0
  4 19  1  0  0  0  0
  5 20  1  0  0  0  0
  6 21  1  0  0  0  0
  7 22  1  0  0  0  0
  7 23  1  0  0  0  0
  7 24  1  0  0  0  0
  8 25  1  0  0  0  0
  8 26  1  0  0  0  0
  8 27  1  0  0  0  0
  9 28  1  0  0  0  0
  9 29  1  0  0  0  0
  9 30  1  0  0  0  0
 10 31  1  0  0  0  0
 10 32  1  0  0  0  0
 11 33  1  0  0  0  0
 13 34  1  0  0  0  0
 13 35  1  0  0  0  0
M  END
> <idnumber>
Z2055186690

> <heavy_atoms>
15

> <LogS>
-2.102

> <LogP>
0.247

> <rotating_bonds>
3

> <PSA>
63.4

> <hb_acceptors>
2

> <hb_donors>
1

> <Collection>
Legacy

> <link>
https://www.enaminestore.com/catalog/Z2055186690

> <ROCS_ShapeQuery>
_x1140_x0812_0A_x1140_0A_x1097_0A_x0365_0A_x1097_0A_x0310_0A

> <ROCS_TanimotoCombo>
0.637 

> <ROCS_ShapeTanimoto>
0.205 

> <ROCS_ColorTanimoto>
0.432 

> <ROCS_RefTversky>
0.189 

> <ROCS_RefColorTversky>
0.499 

> <ROCS_RefTverskyCombo>
0.688 

> <ROCS_FitTversky>
1.702 

> <ROCS_FitColorTversky>
0.761 

> <ROCS_FitTverskyCombo>
2.463 

> <ROCS_ColorScore>
-3.920

> <ROCS_Overlap>
1936.182

> <ROCS_Rank>
253                 

$$$$
untitled-dbase-1059813_28
  -OEChem-02092421083D

 27 28  0     1  0  0  0  0  0999 V2000
   11.8010   14.3391   23.7840 C   0  0  0  0  0  0  0  0  0  0  0  0
    7.5980   11.0385   25.2775 C   0  0  0  0  0  0  0  0  0  0  0  0
    7.8880   12.3611   25.0242 C   0  0  0  0  0  0  0  0  0  0  0  0
   12.3721   15.5759   23.9737 C   0  0  0  0  0  0  0  0  0  0  0  0
   11.4785   15.6202   21.9865 C   0  0  0  0  0  0  0  0  0  0  0  0
   11.2208   14.3678   22.4934 C   0  0  0  0  0  0  0  0  0  0  0  0
    9.2005   10.3996   23.7764 C   0  0  0  0  0  0  0  0  0  0  0  0
    9.4901   11.7221   23.5225 C   0  0  0  0  0  0  0  0  0  0  0  0
    9.0375   13.6415   21.4455 C   0  0  0  0  0  0  0  0  0  0  0  0
   10.4682   13.2480   21.8076 C   0  0  2  0  0  0  0  0  0  0  0  0
    8.2491   10.0340   24.6582 N   0  0  0  0  0  0  0  0  0  0  0  0
    8.8393   12.7267   24.1421 N   0  0  0  0  0  0  0  0  0  0  0  0
    9.9152    9.3851   23.0991 N   0  0  0  0  0  0  0  0  0  0  0  0
   10.4777   12.0437   22.6062 N   0  0  0  0  0  0  0  0  0  0  0  0
   12.1799   16.3628   22.8827 O   0  0  0  0  0  0  0  0  0  0  0  0
   11.8046   13.5211   24.4904 H   0  0  0  0  0  0  0  0  0  0  0  0
    6.8338   10.7455   25.9866 H   0  0  0  0  0  0  0  0  0  0  0  0
    7.3654   13.1681   25.5227 H   0  0  0  0  0  0  0  0  0  0  0  0
   12.9218   16.0290   24.7858 H   0  0  0  0  0  0  0  0  0  0  0  0
   11.2445   16.1141   21.0544 H   0  0  0  0  0  0  0  0  0  0  0  0
    8.4664   13.9180   22.3385 H   0  0  0  0  0  0  0  0  0  0  0  0
    9.0362   14.4988   20.7629 H   0  0  0  0  0  0  0  0  0  0  0  0
    8.5037   12.8280   20.9414 H   0  0  0  0  0  0  0  0  0  0  0  0
   10.9864   12.9833   20.8777 H   0  0  0  0  0  0  0  0  0  0  0  0
   10.5890    9.6449   22.4097 H   0  0  0  0  0  0  0  0  0  0  0  0
    9.6662    8.4309   23.2546 H   0  0  0  0  0  0  0  0  0  0  0  0
   11.2504   11.3992   22.4866 H   0  0  0  0  0  0  0  0  0  0  0  0
  1  4  2  0  0  0  0
  1  6  1  0  0  0  0
  2  3  1  0  0  0  0
  2 11  2  0  0  0  0
  3 12  2  0  0  0  0
  4 15  1  0  0  0  0
  5  6  2  0  0  0  0
  5 15  1  0  0  0  0
  6 10  1  0  0  0  0
  7  8  2  0  0  0  0
  7 11  1  0  0  0  0
  7 13  1  0  0  0  0
  8 12  1  0  0  0  0
  8 14  1  0  0  0  0
  9 10  1  1  0  0  0
 10 14  1  0  0  0  0
  1 16  1  0  0  0  0
  2 17  1  0  0  0  0
  3 18  1  0  0  0  0
  4 19  1  0  0  0  0
  5 20  1  0  0  0  0
  9 21  1  0  0  0  0
  9 22  1  0  0  0  0
  9 23  1  0  0  0  0
 10 24  1  0  0  0  0
 13 25  1  0  0  0  0
 13 26  1  0  0  0  0
 14 27  1  0  0  0  0
M  END
> <idnumber>
Z3825743276

> <heavy_atoms>
15

> <LogS>
-1.103

> <LogP>
1.42

> <rotating_bonds>
3

> <PSA>
76.97

> <hb_acceptors>
4

> <hb_donors>
2

> <Collection>
Advanced

> <link>
https://www.enaminestore.com/catalog/Z3825743276

> <ROCS_ShapeQuery>
_x1140_x0812_0A_x1140_0A_x1097_0A_x0365_0A_x1097_0A_x0310_0A

> <ROCS_TanimotoCombo>
0.637 

> <ROCS_ShapeTanimoto>
0.228 

> <ROCS_ColorTanimoto>
0.408 

> <ROCS_RefTversky>
0.207 

> <ROCS_RefColorTversky>
0.580 

> <ROCS_RefTverskyCombo>
0.787 

> <ROCS_FitTversky>
1.797 

> <ROCS_FitColorTversky>
0.579 

> <ROCS_FitTverskyCombo>
2.376 

> <ROCS_ColorScore>
-4.639

> <ROCS_Overlap>
2127.354

> <ROCS_Rank>
254                 

$$$$
untitled-dbase-78202_148
  -OEChem-02092421083D

 32 33  0     0  0  0  0  0  0999 V2000
    9.7586   16.7767   19.5279 C   0  0  0  0  0  0  0  0  0  0  0  0
   10.7224   16.0081   18.8753 C   0  0  0  0  0  0  0  0  0  0  0  0
    9.4317   16.5046   20.8564 C   0  0  0  0  0  0  0  0  0  0  0  0
    8.0540   11.9299   25.5401 C   0  0  0  0  0  0  0  0  0  0  0  0
    8.8231   12.3535   24.4620 C   0  0  0  0  0  0  0  0  0  0  0  0
   11.3592   14.9672   19.5511 C   0  0  0  0  0  0  0  0  0  0  0  0
   10.0684   15.4637   21.5322 C   0  0  0  0  0  0  0  0  0  0  0  0
    7.6957   10.5926   25.5954 C   0  0  0  0  0  0  0  0  0  0  0  0
    9.2050   11.4399   23.4859 C   0  0  0  0  0  0  0  0  0  0  0  0
   11.0323   14.6950   20.8796 C   0  0  0  0  0  0  0  0  0  0  0  0
    8.7953   10.1245   23.6333 C   0  0  0  0  0  0  0  0  0  0  0  0
   10.0271   11.9196   22.3453 C   0  0  0  0  0  0  0  0  0  0  0  0
   11.0368    8.9745   22.5532 C   0  0  0  0  0  0  0  0  0  0  0  0
   11.7126   13.5820   21.6027 C   0  0  0  0  0  0  0  0  0  0  0  0
    8.0478    9.6757   24.6664 N   0  0  0  0  0  0  0  0  0  0  0  0
   10.8714   12.9890   22.6111 N   0  0  0  0  0  0  0  0  0  0  0  0
    9.9084   11.3768   21.2500 O   0  0  0  0  0  0  0  0  0  0  0  0
    9.2387    8.8777   22.4288 S   0  0  0  0  0  0  0  0  0  0  0  0
    9.2638   17.5880   19.0020 H   0  0  0  0  0  0  0  0  0  0  0  0
   10.9780   16.2206   17.8413 H   0  0  0  0  0  0  0  0  0  0  0  0
    8.6821   17.1035   21.3651 H   0  0  0  0  0  0  0  0  0  0  0  0
    7.7445   12.6242   26.3125 H   0  0  0  0  0  0  0  0  0  0  0  0
    9.1178   13.3977   24.3953 H   0  0  0  0  0  0  0  0  0  0  0  0
   12.1088   14.3735   19.0346 H   0  0  0  0  0  0  0  0  0  0  0  0
    9.8072   15.2588   22.5670 H   0  0  0  0  0  0  0  0  0  0  0  0
    7.0957   10.2121   26.4154 H   0  0  0  0  0  0  0  0  0  0  0  0
   11.4960    8.2597   21.8660 H   0  0  0  0  0  0  0  0  0  0  0  0
   11.3513    8.7407   23.5733 H   0  0  0  0  0  0  0  0  0  0  0  0
   11.3728    9.9824   22.2977 H   0  0  0  0  0  0  0  0  0  0  0  0
   12.0103   12.7829   20.9095 H   0  0  0  0  0  0  0  0  0  0  0  0
   12.6288   13.9264   22.1017 H   0  0  0  0  0  0  0  0  0  0  0  0
   10.8668   13.4251   23.5295 H   0  0  0  0  0  0  0  0  0  0  0  0
  1  2  1  0  0  0  0
  1  3  2  0  0  0  0
  2  6  2  0  0  0  0
  3  7  1  0  0  0  0
  4  5  2  0  0  0  0
  4  8  1  0  0  0  0
  5  9  1  0  0  0  0
  6 10  1  0  0  0  0
  7 10  2  0  0  0  0
  8 15  2  0  0  0  0
  9 11  2  0  0  0  0
  9 12  1  0  0  0  0
 10 14  1  0  0  0  0
 11 15  1  0  0  0  0
 11 18  1  0  0  0  0
 12 16  1  0  0  0  0
 12 17  2  0  0  0  0
 13 18  1  0  0  0  0
 14 16  1  0  0  0  0
  1 19  1  0  0  0  0
  2 20  1  0  0  0  0
  3 21  1  0  0  0  0
  4 22  1  0  0  0  0
  5 23  1  0  0  0  0
  6 24  1  0  0  0  0
  7 25  1  0  0  0  0
  8 26  1  0  0  0  0
 13 27  1  0  0  0  0
 13 28  1  0  0  0  0
 13 29  1  0  0  0  0
 14 30  1  0  0  0  0
 14 31  1  0  0  0  0
 16 32  1  0  0  0  0
M  END
> <idnumber>
Z27749787

> <heavy_atoms>
18

> <LogS>
-3.57

> <LogP>
2.522

> <rotating_bonds>
4

> <PSA>
41.99

> <hb_acceptors>
2

> <hb_donors>
1

> <Collection>
Functional

> <link>
https://www.enaminestore.com/catalog/Z27749787

> <ROCS_ShapeQuery>
_x1140_x0812_0A_x1140_0A_x1097_0A_x0365_0A_x1097_0A_x0310_0A

> <ROCS_TanimotoCombo>
0.636 

> <ROCS_ShapeTanimoto>
0.217 

> <ROCS_ColorTanimoto>
0.420 

> <ROCS_RefTversky>
0.200 

> <ROCS_RefColorTversky>
0.524 

> <ROCS_RefTverskyCombo>
0.724 

> <ROCS_FitTversky>
1.605 

> <ROCS_FitColorTversky>
0.678 

> <ROCS_FitTverskyCombo>
2.283 

> <ROCS_ColorScore>
-4.138

> <ROCS_Overlap>
2056.482

> <ROCS_Rank>
255                 

$$$$
untitled-dbase-290222_17
  -OEChem-02092421083D

 32 33  0     0  0  0  0  0  0999 V2000
    8.0502   11.9318   25.5322 C   0  0  0  0  0  0  0  0  0  0  0  0
    8.8160   12.3518   24.4504 C   0  0  0  0  0  0  0  0  0  0  0  0
   12.2490   14.4633   19.5388 C   0  0  0  0  0  0  0  0  0  0  0  0
   13.7314   14.9505   21.3833 C   0  0  0  0  0  0  0  0  0  0  0  0
   11.3962   13.7791   20.4049 C   0  0  0  0  0  0  0  0  0  0  0  0
   12.8785   14.2663   22.2495 C   0  0  0  0  0  0  0  0  0  0  0  0
    7.6965   10.5936   25.5958 C   0  0  0  0  0  0  0  0  0  0  0  0
    9.1994   11.4339   23.4790 C   0  0  0  0  0  0  0  0  0  0  0  0
   13.4166   15.0490   20.0280 C   0  0  0  0  0  0  0  0  0  0  0  0
   11.7109   13.6806   21.7602 C   0  0  0  0  0  0  0  0  0  0  0  0
    8.7944   10.1180   23.6346 C   0  0  0  0  0  0  0  0  0  0  0  0
   10.0109   11.9058   22.3440 C   0  0  0  0  0  0  0  0  0  0  0  0
   14.3284   15.7805   19.1019 C   0  0  0  0  0  0  0  0  0  0  0  0
   11.0380    8.9695   22.5573 C   0  0  0  0  0  0  0  0  0  0  0  0
    8.0502    9.6726   24.6716 N   0  0  0  0  0  0  0  0  0  0  0  0
   10.8580   12.9965   22.6268 N   0  0  0  0  0  0  0  0  0  0  0  0
    9.9086   11.3873   21.2342 O   0  0  0  0  0  0  0  0  0  0  0  0
    9.2401    8.8658   22.4365 S   0  0  0  0  0  0  0  0  0  0  0  0
    7.7396   12.6295   26.3012 H   0  0  0  0  0  0  0  0  0  0  0  0
    9.1070   13.3966   24.3773 H   0  0  0  0  0  0  0  0  0  0  0  0
   11.9970   14.5332   18.4839 H   0  0  0  0  0  0  0  0  0  0  0  0
   14.6394   15.4032   21.7729 H   0  0  0  0  0  0  0  0  0  0  0  0
   10.4886   13.3268   20.0128 H   0  0  0  0  0  0  0  0  0  0  0  0
   13.1341   14.1947   23.3037 H   0  0  0  0  0  0  0  0  0  0  0  0
    7.0992   10.2158   26.4190 H   0  0  0  0  0  0  0  0  0  0  0  0
   14.0481   16.8396   19.0474 H   0  0  0  0  0  0  0  0  0  0  0  0
   15.3722   15.7136   19.4349 H   0  0  0  0  0  0  0  0  0  0  0  0
   14.2905   15.3580   18.0893 H   0  0  0  0  0  0  0  0  0  0  0  0
   11.4985    8.2523   21.8735 H   0  0  0  0  0  0  0  0  0  0  0  0
   11.3550    8.7426   23.5782 H   0  0  0  0  0  0  0  0  0  0  0  0
   11.3701    9.9770   22.2955 H   0  0  0  0  0  0  0  0  0  0  0  0
   10.8457   13.3311   23.5972 H   0  0  0  0  0  0  0  0  0  0  0  0
  1  2  2  0  0  0  0
  1  7  1  0  0  0  0
  2  8  1  0  0  0  0
  3  5  2  0  0  0  0
  3  9  1  0  0  0  0
  4  6  1  0  0  0  0
  4  9  2  0  0  0  0
  5 10  1  0  0  0  0
  6 10  2  0  0  0  0
  7 15  2  0  0  0  0
  8 11  2  0  0  0  0
  8 12  1  0  0  0  0
  9 13  1  0  0  0  0
 10 16  1  0  0  0  0
 11 15  1  0  0  0  0
 11 18  1  0  0  0  0
 12 16  1  0  0  0  0
 12 17  2  0  0  0  0
 14 18  1  0  0  0  0
  1 19  1  0  0  0  0
  2 20  1  0  0  0  0
  3 21  1  0  0  0  0
  4 22  1  0  0  0  0
  5 23  1  0  0  0  0
  6 24  1  0  0  0  0
  7 25  1  0  0  0  0
 13 26  1  0  0  0  0
 13 27  1  0  0  0  0
 13 28  1  0  0  0  0
 14 29  1  0  0  0  0
 14 30  1  0  0  0  0
 14 31  1  0  0  0  0
 16 32  1  0  0  0  0
M  END
> <idnumber>
Z28134971

> <heavy_atoms>
18

> <LogS>
-4.23

> <LogP>
2.842

> <rotating_bonds>
3

> <PSA>
41.99

> <hb_acceptors>
2

> <hb_donors>
1

> <Collection>
Functional

> <link>
https://www.enaminestore.com/catalog/Z28134971

> <ROCS_ShapeQuery>
_x1140_x0812_0A_x1140_0A_x1097_0A_x0365_0A_x1097_0A_x0310_0A

> <ROCS_TanimotoCombo>
0.636 

> <ROCS_ShapeTanimoto>
0.218 

> <ROCS_ColorTanimoto>
0.418 

> <ROCS_RefTversky>
0.202 

> <ROCS_RefColorTversky>
0.522 

> <ROCS_RefTverskyCombo>
0.724 

> <ROCS_FitTversky>
1.609 

> <ROCS_FitColorTversky>
0.676 

> <ROCS_FitTverskyCombo>
2.285 

> <ROCS_ColorScore>
-4.127

> <ROCS_Overlap>
2069.847

> <ROCS_Rank>
256                 

$$$$
untitled-dbase-528284_82
  -OEChem-02092421083D

 38 39  0     1  0  0  0  0  0999 V2000
   12.1606   14.4618   24.1767 C   0  0  0  0  0  0  0  0  0  0  0  0
    7.1805   10.0580   25.1065 C   0  0  0  0  0  0  0  0  0  0  0  0
   10.2628   11.9725   22.6481 C   0  0  0  0  0  0  0  0  0  0  0  0
   12.2763   15.9672   23.9738 C   0  0  0  0  0  0  0  0  0  0  0  0
   11.8458   14.3303   21.7109 C   0  0  0  0  0  0  0  0  0  0  0  0
    7.9001   11.6658   23.3461 C   0  0  0  0  0  0  0  0  0  0  0  0
    9.5132   12.1703   25.0652 C   0  0  0  0  0  0  0  0  0  0  0  0
   11.5642   15.8164   21.7593 C   0  0  0  0  0  0  0  0  0  0  0  0
    7.2265   11.5022   24.7029 C   0  0  2  0  0  0  0  0  0  0  0  0
    8.1135   12.2990   25.6719 C   0  0  2  0  0  0  0  0  0  0  0  0
   11.6635   12.2869   23.1087 C   0  0  0  0  0  0  0  0  0  0  0  0
    7.6765   13.7611   25.7580 C   0  0  0  0  0  0  0  0  0  0  0  0
   11.8210   13.7315   23.0406 N   0  0  0  0  0  0  0  0  0  0  0  0
    9.2977   11.9477   23.6400 N   0  0  0  0  0  0  0  0  0  0  0  0
    6.1198    9.7438   25.9229 N   0  0  0  0  0  0  0  0  0  0  0  0
   12.3083   13.9824   25.3021 O   0  0  0  0  0  0  0  0  0  0  0  0
    8.0150    9.2445   24.7174 O   0  0  0  0  0  0  0  0  0  0  0  0
   10.0310   11.7633   21.4561 O   0  0  0  0  0  0  0  0  0  0  0  0
   12.5002   16.4074   22.6518 O   0  0  0  0  0  0  0  0  0  0  0  0
    8.5077   14.4495   26.5586 F   0  0  0  0  0  0  0  0  0  0  0  0
    7.6904   14.3243   24.5381 F   0  0  0  0  0  0  0  0  0  0  0  0
    6.4315   13.8466   26.2564 F   0  0  0  0  0  0  0  0  0  0  0  0
   11.3605   16.4319   24.3575 H   0  0  0  0  0  0  0  0  0  0  0  0
   13.1121   16.3252   24.5839 H   0  0  0  0  0  0  0  0  0  0  0  0
   11.1053   13.8298   21.0821 H   0  0  0  0  0  0  0  0  0  0  0  0
   12.8446   14.1478   21.3036 H   0  0  0  0  0  0  0  0  0  0  0  0
    7.8605   10.7547   22.7341 H   0  0  0  0  0  0  0  0  0  0  0  0
    7.4673   12.4846   22.7580 H   0  0  0  0  0  0  0  0  0  0  0  0
   10.0993   13.0928   25.1721 H   0  0  0  0  0  0  0  0  0  0  0  0
   10.0821   11.3434   25.5067 H   0  0  0  0  0  0  0  0  0  0  0  0
   11.7111   16.2605   20.7699 H   0  0  0  0  0  0  0  0  0  0  0  0
   10.5380   16.0353   22.0779 H   0  0  0  0  0  0  0  0  0  0  0  0
    6.2062   11.8922   24.6834 H   0  0  0  0  0  0  0  0  0  0  0  0
    8.0947   11.8662   26.6632 H   0  0  0  0  0  0  0  0  0  0  0  0
   12.3598   11.7832   22.4447 H   0  0  0  0  0  0  0  0  0  0  0  0
   11.7748   11.9261   24.1270 H   0  0  0  0  0  0  0  0  0  0  0  0
    5.4711   10.4794   26.1833 H   0  0  0  0  0  0  0  0  0  0  0  0
    5.9595    8.8058   26.2754 H   0  0  0  0  0  0  0  0  0  0  0  0
  1  4  1  0  0  0  0
  1 13  1  0  0  0  0
  1 16  2  0  0  0  0
  2  9  1  6  0  0  0
  2 15  1  0  0  0  0
  2 17  2  0  0  0  0
  3 11  1  0  0  0  0
  3 14  1  0  0  0  0
  3 18  2  0  0  0  0
  4 19  1  0  0  0  0
  5  8  1  0  0  0  0
  5 13  1  0  0  0  0
  6  9  1  0  0  0  0
  6 14  1  0  0  0  0
  7 10  1  0  0  0  0
  7 14  1  0  0  0  0
  8 19  1  0  0  0  0
  9 10  1  0  0  0  0
 10 12  1  1  0  0  0
 11 13  1  0  0  0  0
 12 20  1  0  0  0  0
 12 21  1  0  0  0  0
 12 22  1  0  0  0  0
  4 23  1  0  0  0  0
  4 24  1  0  0  0  0
  5 25  1  0  0  0  0
  5 26  1  0  0  0  0
  6 27  1  0  0  0  0
  6 28  1  0  0  0  0
  7 29  1  0  0  0  0
  7 30  1  0  0  0  0
  8 31  1  0  0  0  0
  8 32  1  0  0  0  0
  9 33  1  0  0  0  0
 10 34  1  0  0  0  0
 11 35  1  0  0  0  0
 11 36  1  0  0  0  0
 15 37  1  0  0  0  0
 15 38  1  0  0  0  0
M  END
> <idnumber>
Z2059357461

> <heavy_atoms>
22

> <LogS>
-2.052

> <LogP>
-0.312

> <rotating_bonds>
4

> <PSA>
92.94

> <hb_acceptors>
4

> <hb_donors>
1

> <Collection>
Advanced

> <link>
https://www.enaminestore.com/catalog/Z2059357461

> <ROCS_ShapeQuery>
_x1140_x0812_0A_x1140_0A_x1097_0A_x0365_0A_x1097_0A_x0310_0A

> <ROCS_TanimotoCombo>
0.636 

> <ROCS_ShapeTanimoto>
0.245 

> <ROCS_ColorTanimoto>
0.391 

> <ROCS_RefTversky>
0.225 

> <ROCS_RefColorTversky>
0.530 

> <ROCS_RefTverskyCombo>
0.756 

> <ROCS_FitTversky>
1.562 

> <ROCS_FitColorTversky>
0.598 

> <ROCS_FitTverskyCombo>
2.160 

> <ROCS_ColorScore>
-4.217

> <ROCS_Overlap>
2313.914

> <ROCS_Rank>
257                 

$$$$
untitled-dbase-1028411_10
  -OEChem-02092421083D

 42 45  0     0  0  0  0  0  0999 V2000
   12.6391   14.3642   19.4157 C   0  0  0  0  0  0  0  0  0  0  0  0
   13.8876   14.3708   20.0376 C   0  0  0  0  0  0  0  0  0  0  0  0
   11.5955   13.6117   19.9544 C   0  0  0  0  0  0  0  0  0  0  0  0
   14.0926   13.6247   21.1982 C   0  0  0  0  0  0  0  0  0  0  0  0
    6.7045   12.2925   26.4934 C   0  0  0  0  0  0  0  0  0  0  0  0
    8.9863   10.5022   23.6035 C   0  0  0  0  0  0  0  0  0  0  0  0
    5.9810   11.1679   26.8272 C   0  0  0  0  0  0  0  0  0  0  0  0
    7.6122   11.9288   25.4637 C   0  0  0  0  0  0  0  0  0  0  0  0
   11.8005   12.8656   21.1150 C   0  0  0  0  0  0  0  0  0  0  0  0
   13.0490   12.8721   21.7369 C   0  0  0  0  0  0  0  0  0  0  0  0
    8.5962   12.5889   24.7103 C   0  0  0  0  0  0  0  0  0  0  0  0
    9.2944   11.8470   23.7592 C   0  0  0  0  0  0  0  0  0  0  0  0
    7.4062   10.5770   25.2038 C   0  0  0  0  0  0  0  0  0  0  0  0
   10.6796   12.0804   21.6599 C   0  0  0  0  0  0  0  0  0  0  0  0
   13.0340   12.7598   24.3117 C   0  0  0  0  0  0  0  0  0  0  0  0
   14.4427   12.5075   23.8737 C   0  0  0  0  0  0  0  0  0  0  0  0
   13.2937   12.0817   22.9804 C   0  0  0  0  0  0  0  0  0  0  0  0
    8.9008   14.0401   24.9075 C   0  0  0  0  0  0  0  0  0  0  0  0
   12.9949   10.6141   22.8662 C   0  0  0  0  0  0  0  0  0  0  0  0
    8.0507    9.8155   24.2996 N   0  0  0  0  0  0  0  0  0  0  0  0
    6.4150   10.1336   26.0393 N   0  0  0  0  0  0  0  0  0  0  0  0
   10.2887   12.4260   22.9690 N   0  0  0  0  0  0  0  0  0  0  0  0
   10.1667   11.1734   21.0080 O   0  0  0  0  0  0  0  0  0  0  0  0
   12.4797   14.9448   18.5120 H   0  0  0  0  0  0  0  0  0  0  0  0
   14.6999   14.9569   19.6179 H   0  0  0  0  0  0  0  0  0  0  0  0
   10.6271   13.6142   19.4604 H   0  0  0  0  0  0  0  0  0  0  0  0
   15.0694   13.6369   21.6748 H   0  0  0  0  0  0  0  0  0  0  0  0
    6.5872   13.2678   26.9455 H   0  0  0  0  0  0  0  0  0  0  0  0
    9.5150    9.8989   22.8687 H   0  0  0  0  0  0  0  0  0  0  0  0
    5.1961   11.0124   27.5536 H   0  0  0  0  0  0  0  0  0  0  0  0
   12.6459   12.1624   25.1285 H   0  0  0  0  0  0  0  0  0  0  0  0
   12.6852   13.7862   24.3171 H   0  0  0  0  0  0  0  0  0  0  0  0
   15.0402   13.3651   23.5862 H   0  0  0  0  0  0  0  0  0  0  0  0
   15.0029   11.7397   24.3949 H   0  0  0  0  0  0  0  0  0  0  0  0
    9.6829   14.1622   25.6646 H   0  0  0  0  0  0  0  0  0  0  0  0
    9.2406   14.5019   23.9733 H   0  0  0  0  0  0  0  0  0  0  0  0
    8.0090   14.5893   25.2315 H   0  0  0  0  0  0  0  0  0  0  0  0
   13.1961   10.0959   23.8126 H   0  0  0  0  0  0  0  0  0  0  0  0
   13.6117   10.1455   22.0887 H   0  0  0  0  0  0  0  0  0  0  0  0
   11.9417   10.4450   22.6075 H   0  0  0  0  0  0  0  0  0  0  0  0
    6.0585    9.1885   26.0689 H   0  0  0  0  0  0  0  0  0  0  0  0
   10.8019   13.2048   23.3970 H   0  0  0  0  0  0  0  0  0  0  0  0
  1  2  1  0  0  0  0
  1  3  2  0  0  0  0
  2  4  2  0  0  0  0
  3  9  1  0  0  0  0
  4 10  1  0  0  0  0
  5  7  2  0  0  0  0
  5  8  1  0  0  0  0
  6 12  2  0  0  0  0
  6 20  1  0  0  0  0
  7 21  1  0  0  0  0
  8 11  2  0  0  0  0
  8 13  1  0  0  0  0
  9 10  2  0  0  0  0
  9 14  1  0  0  0  0
 10 17  1  0  0  0  0
 11 12  1  0  0  0  0
 11 18  1  0  0  0  0
 12 22  1  0  0  0  0
 13 20  2  0  0  0  0
 13 21  1  0  0  0  0
 14 22  1  0  0  0  0
 14 23  2  0  0  0  0
 15 16  1  0  0  0  0
 15 17  1  0  0  0  0
 16 17  1  0  0  0  0
 17 19  1  0  0  0  0
  1 24  1  0  0  0  0
  2 25  1  0  0  0  0
  3 26  1  0  0  0  0
  4 27  1  0  0  0  0
  5 28  1  0  0  0  0
  6 29  1  0  0  0  0
  7 30  1  0  0  0  0
 15 31  1  0  0  0  0
 15 32  1  0  0  0  0
 16 33  1  0  0  0  0
 16 34  1  0  0  0  0
 18 35  1  0  0  0  0
 18 36  1  0  0  0  0
 18 37  1  0  0  0  0
 19 38  1  0  0  0  0
 19 39  1  0  0  0  0
 19 40  1  0  0  0  0
 21 41  1  0  0  0  0
 22 42  1  0  0  0  0
M  END
> <idnumber>
Z3368160804

> <heavy_atoms>
23

> <LogS>
-5.875

> <LogP>
3.482

> <rotating_bonds>
3

> <PSA>
57.78

> <hb_acceptors>
2

> <hb_donors>
2

> <Collection>
Advanced

> <link>
https://www.enaminestore.com/catalog/Z3368160804

> <ROCS_ShapeQuery>
_x1140_x0812_0A_x1140_0A_x1097_0A_x0365_0A_x1097_0A_x0310_0A

> <ROCS_TanimotoCombo>
0.636 

> <ROCS_ShapeTanimoto>
0.246 

> <ROCS_ColorTanimoto>
0.390 

> <ROCS_RefTversky>
0.227 

> <ROCS_RefColorTversky>
0.530 

> <ROCS_RefTverskyCombo>
0.758 

> <ROCS_FitTversky>
1.505 

> <ROCS_FitColorTversky>
0.596 

> <ROCS_FitTverskyCombo>
2.101 

> <ROCS_ColorScore>
-4.215

> <ROCS_Overlap>
2337.046

> <ROCS_Rank>
258                 

$$$$
untitled-dbase-285737_17
  -OEChem-02092421083D

 29 30  0     0  0  0  0  0  0999 V2000
    8.0503   11.9317   25.5319 C   0  0  0  0  0  0  0  0  0  0  0  0
    8.8164   12.3518   24.4503 C   0  0  0  0  0  0  0  0  0  0  0  0
   11.3971   13.7791   20.4052 C   0  0  0  0  0  0  0  0  0  0  0  0
   12.8795   14.2660   22.2498 C   0  0  0  0  0  0  0  0  0  0  0  0
   12.2500   14.4633   19.5392 C   0  0  0  0  0  0  0  0  0  0  0  0
   13.7324   14.9501   21.3838 C   0  0  0  0  0  0  0  0  0  0  0  0
    7.6965   10.5936   25.5953 C   0  0  0  0  0  0  0  0  0  0  0  0
    9.1997   11.4339   23.4788 C   0  0  0  0  0  0  0  0  0  0  0  0
   11.7118   13.6805   21.7606 C   0  0  0  0  0  0  0  0  0  0  0  0
   13.4177   15.0488   20.0284 C   0  0  0  0  0  0  0  0  0  0  0  0
    8.7946   10.1181   23.6341 C   0  0  0  0  0  0  0  0  0  0  0  0
   10.0115   11.9059   22.3439 C   0  0  0  0  0  0  0  0  0  0  0  0
   11.0382    8.9694   22.5570 C   0  0  0  0  0  0  0  0  0  0  0  0
    8.0501    9.6726   24.6710 N   0  0  0  0  0  0  0  0  0  0  0  0
   10.8587   12.9964   22.6270 N   0  0  0  0  0  0  0  0  0  0  0  0
    9.9092   11.3875   21.2341 O   0  0  0  0  0  0  0  0  0  0  0  0
   14.2375   15.7049   19.1967 F   0  0  0  0  0  0  0  0  0  0  0  0
    9.2402    8.8660   22.4360 S   0  0  0  0  0  0  0  0  0  0  0  0
    7.7398   12.6294   26.3009 H   0  0  0  0  0  0  0  0  0  0  0  0
    9.1075   13.3966   24.3772 H   0  0  0  0  0  0  0  0  0  0  0  0
   10.4897   13.3272   20.0127 H   0  0  0  0  0  0  0  0  0  0  0  0
   13.1336   14.1975   23.3045 H   0  0  0  0  0  0  0  0  0  0  0  0
   12.0050   14.5410   18.4842 H   0  0  0  0  0  0  0  0  0  0  0  0
   14.6422   15.4050   21.7641 H   0  0  0  0  0  0  0  0  0  0  0  0
    7.0990   10.2158   26.4184 H   0  0  0  0  0  0  0  0  0  0  0  0
   11.4987    8.2522   21.8732 H   0  0  0  0  0  0  0  0  0  0  0  0
   11.3550    8.7424   23.5780 H   0  0  0  0  0  0  0  0  0  0  0  0
   11.3704    9.9769   22.2953 H   0  0  0  0  0  0  0  0  0  0  0  0
   10.8463   13.3309   23.5974 H   0  0  0  0  0  0  0  0  0  0  0  0
  1  2  2  0  0  0  0
  1  7  1  0  0  0  0
  2  8  1  0  0  0  0
  3  5  2  0  0  0  0
  3  9  1  0  0  0  0
  4  6  1  0  0  0  0
  4  9  2  0  0  0  0
  5 10  1  0  0  0  0
  6 10  2  0  0  0  0
  7 14  2  0  0  0  0
  8 11  2  0  0  0  0
  8 12  1  0  0  0  0
  9 15  1  0  0  0  0
 10 17  1  0  0  0  0
 11 14  1  0  0  0  0
 11 18  1  0  0  0  0
 12 15  1  0  0  0  0
 12 16  2  0  0  0  0
 13 18  1  0  0  0  0
  1 19  1  0  0  0  0
  2 20  1  0  0  0  0
  3 21  1  0  0  0  0
  4 22  1  0  0  0  0
  5 23  1  0  0  0  0
  6 24  1  0  0  0  0
  7 25  1  0  0  0  0
 13 26  1  0  0  0  0
 13 27  1  0  0  0  0
 13 28  1  0  0  0  0
 15 29  1  0  0  0  0
M  END
> <idnumber>
Z27806112

> <heavy_atoms>
18

> <LogS>
-4.01

> <LogP>
2.576

> <rotating_bonds>
3

> <PSA>
41.99

> <hb_acceptors>
2

> <hb_donors>
1

> <Collection>
Functional

> <link>
https://www.enaminestore.com/catalog/Z27806112

> <ROCS_ShapeQuery>
_x1140_x0812_0A_x1140_0A_x1097_0A_x0365_0A_x1097_0A_x0310_0A

> <ROCS_TanimotoCombo>
0.636 

> <ROCS_ShapeTanimoto>
0.218 

> <ROCS_ColorTanimoto>
0.418 

> <ROCS_RefTversky>
0.202 

> <ROCS_RefColorTversky>
0.522 

> <ROCS_RefTverskyCombo>
0.724 

> <ROCS_FitTversky>
1.603 

> <ROCS_FitColorTversky>
0.676 

> <ROCS_FitTverskyCombo>
2.279 

> <ROCS_ColorScore>
-4.127

> <ROCS_Overlap>
2069.860

> <ROCS_Rank>
259                 

$$$$
untitled-dbase-685494_182
  -OEChem-02092421083D

 43 44  0     0  0  0  0  0  0999 V2000
    9.4041   11.4108   23.5777 C   0  0  0  0  0  0  0  0  0  0  0  0
    7.8027   11.9730   25.2818 C   0  0  0  0  0  0  0  0  0  0  0  0
    8.8437   12.3471   24.4395 C   0  0  0  0  0  0  0  0  0  0  0  0
   11.4319   15.0493   24.2559 C   0  0  0  0  0  0  0  0  0  0  0  0
    8.8915   10.1237   23.5966 C   0  0  0  0  0  0  0  0  0  0  0  0
   11.6785   15.3943   22.9158 C   0  0  0  0  0  0  0  0  0  0  0  0
   12.0316   16.0548   24.9667 C   0  0  0  0  0  0  0  0  0  0  0  0
    7.3617   10.6607   25.2242 C   0  0  0  0  0  0  0  0  0  0  0  0
    9.3441   13.7122   24.4608 C   0  0  0  0  0  0  0  0  0  0  0  0
   11.2661   14.6721   21.7006 C   0  0  0  0  0  0  0  0  0  0  0  0
   12.1749   16.3497   26.3991 C   0  0  0  0  0  0  0  0  0  0  0  0
   11.8354    9.2742   23.6131 C   0  0  0  0  0  0  0  0  0  0  0  0
   11.4478    8.2235   21.3748 C   0  0  0  0  0  0  0  0  0  0  0  0
   11.4099   12.9642   25.6827 C   0  0  0  0  0  0  0  0  0  0  0  0
    9.4752    9.0808   22.6748 C   0  0  0  0  0  0  0  0  0  0  0  0
   10.9667    9.2983   22.3529 C   0  0  0  0  0  0  0  0  0  0  0  0
    7.8812    9.7231   24.4005 N   0  0  0  0  0  0  0  0  0  0  0  0
   12.3777   16.5272   22.8041 N   0  0  0  0  0  0  0  0  0  0  0  0
   10.7161   13.9095   24.7949 N   0  0  0  0  0  0  0  0  0  0  0  0
    8.5859   14.6598   24.2116 O   0  0  0  0  0  0  0  0  0  0  0  0
   12.5996   16.9431   24.1114 O   0  0  0  0  0  0  0  0  0  0  0  0
    6.3355   10.2680   26.0431 O   0  0  0  0  0  0  0  0  0  0  0  0
   10.2180   11.6801   22.9117 H   0  0  0  0  0  0  0  0  0  0  0  0
    7.3478   12.6852   25.9631 H   0  0  0  0  0  0  0  0  0  0  0  0
   10.2780   15.0137   21.3473 H   0  0  0  0  0  0  0  0  0  0  0  0
   11.9816   14.8097   20.8702 H   0  0  0  0  0  0  0  0  0  0  0  0
   11.2012   13.5815   21.8652 H   0  0  0  0  0  0  0  0  0  0  0  0
   13.0898   15.8921   26.8162 H   0  0  0  0  0  0  0  0  0  0  0  0
   12.2279   17.4356   26.6016 H   0  0  0  0  0  0  0  0  0  0  0  0
   11.3197   15.9763   26.9927 H   0  0  0  0  0  0  0  0  0  0  0  0
   11.7432    8.3189   24.1411 H   0  0  0  0  0  0  0  0  0  0  0  0
   11.5555   10.0745   24.3050 H   0  0  0  0  0  0  0  0  0  0  0  0
   12.8911    9.4181   23.3587 H   0  0  0  0  0  0  0  0  0  0  0  0
   11.3386    7.2244   21.8098 H   0  0  0  0  0  0  0  0  0  0  0  0
   10.8760    8.2511   20.4409 H   0  0  0  0  0  0  0  0  0  0  0  0
   12.5057    8.3657   21.1297 H   0  0  0  0  0  0  0  0  0  0  0  0
   11.3016   13.2938   26.7266 H   0  0  0  0  0  0  0  0  0  0  0  0
   10.9702   11.9626   25.5671 H   0  0  0  0  0  0  0  0  0  0  0  0
   12.4771   12.9289   25.4184 H   0  0  0  0  0  0  0  0  0  0  0  0
    9.3275    8.0801   23.1021 H   0  0  0  0  0  0  0  0  0  0  0  0
    8.8895    9.0926   21.7457 H   0  0  0  0  0  0  0  0  0  0  0  0
   11.0985   10.2738   21.8676 H   0  0  0  0  0  0  0  0  0  0  0  0
    6.0439   11.0155   26.5835 H   0  0  0  0  0  0  0  0  0  0  0  0
  1  3  2  0  0  0  0
  1  5  1  0  0  0  0
  2  3  1  0  0  0  0
  2  8  2  0  0  0  0
  3  9  1  0  0  0  0
  4  6  1  0  0  0  0
  4  7  2  0  0  0  0
  4 19  1  0  0  0  0
  5 15  1  0  0  0  0
  5 17  2  0  0  0  0
  6 10  1  0  0  0  0
  6 18  2  0  0  0  0
  7 11  1  0  0  0  0
  7 21  1  0  0  0  0
  8 17  1  0  0  0  0
  8 22  1  0  0  0  0
  9 19  1  0  0  0  0
  9 20  2  0  0  0  0
 12 16  1  0  0  0  0
 13 16  1  0  0  0  0
 14 19  1  0  0  0  0
 15 16  1  0  0  0  0
 18 21  1  0  0  0  0
  1 23  1  0  0  0  0
  2 24  1  0  0  0  0
 10 25  1  0  0  0  0
 10 26  1  0  0  0  0
 10 27  1  0  0  0  0
 11 28  1  0  0  0  0
 11 29  1  0  0  0  0
 11 30  1  0  0  0  0
 12 31  1  0  0  0  0
 12 32  1  0  0  0  0
 12 33  1  0  0  0  0
 13 34  1  0  0  0  0
 13 35  1  0  0  0  0
 13 36  1  0  0  0  0
 14 37  1  0  0  0  0
 14 38  1  0  0  0  0
 14 39  1  0  0  0  0
 15 40  1  0  0  0  0
 15 41  1  0  0  0  0
 16 42  1  0  0  0  0
 22 43  1  0  0  0  0
M  END
> <idnumber>
Z1609890284

> <heavy_atoms>
22

> <LogS>
-2.82

> <LogP>
1.317

> <rotating_bonds>
4

> <PSA>
79.46

> <hb_acceptors>
4

> <hb_donors>
1

> <Collection>
Legacy

> <link>
https://www.enaminestore.com/catalog/Z1609890284

> <ROCS_ShapeQuery>
_x1140_x0812_0A_x1140_0A_x1097_0A_x0365_0A_x1097_0A_x0310_0A

> <ROCS_TanimotoCombo>
0.636 

> <ROCS_ShapeTanimoto>
0.231 

> <ROCS_ColorTanimoto>
0.405 

> <ROCS_RefTversky>
0.215 

> <ROCS_RefColorTversky>
0.577 

> <ROCS_RefTverskyCombo>
0.791 

> <ROCS_FitTversky>
1.502 

> <ROCS_FitColorTversky>
0.576 

> <ROCS_FitTverskyCombo>
2.079 

> <ROCS_ColorScore>
-4.615

> <ROCS_Overlap>
2203.019

> <ROCS_Rank>
260                 

$$$$
untitled-dbase-802009_41
  -OEChem-02092421083D

 38 39  0     0  0  0  0  0  0999 V2000
    8.9684   10.3899   23.6137 C   0  0  0  0  0  0  0  0  0  0  0  0
    9.3525   11.7110   23.7092 C   0  0  0  0  0  0  0  0  0  0  0  0
    7.8503   10.9286   25.4219 C   0  0  0  0  0  0  0  0  0  0  0  0
   12.7166   14.4661   22.7802 C   0  0  0  0  0  0  0  0  0  0  0  0
   11.7041   15.3032   22.5417 C   0  0  0  0  0  0  0  0  0  0  0  0
   10.4369   12.4089   21.5502 C   0  0  0  0  0  0  0  0  0  0  0  0
   12.7309   13.3167   21.8274 C   0  0  0  0  0  0  0  0  0  0  0  0
   10.8673   14.8576   21.3883 C   0  0  0  0  0  0  0  0  0  0  0  0
   11.4034   13.4588   21.0825 C   0  0  0  0  0  0  0  0  0  0  0  0
    6.9636   10.8246   26.6010 C   0  0  0  0  0  0  0  0  0  0  0  0
   11.4722    8.6246   23.8095 C   0  0  0  0  0  0  0  0  0  0  0  0
   11.2682    8.2343   21.3458 C   0  0  0  0  0  0  0  0  0  0  0  0
    9.3936    9.4344   22.5705 C   0  0  0  0  0  0  0  0  0  0  0  0
   10.9264    9.1867   22.4944 C   0  0  0  0  0  0  0  0  0  0  0  0
    8.1073    9.9393   24.5952 N   0  0  0  0  0  0  0  0  0  0  0  0
   10.2001   12.5188   22.9145 N   0  0  0  0  0  0  0  0  0  0  0  0
    9.9608   11.5978   20.7625 O   0  0  0  0  0  0  0  0  0  0  0  0
    8.6100   12.4285   25.0786 S   0  0  0  0  0  0  0  0  0  0  0  0
   13.4553   14.6117   23.5551 H   0  0  0  0  0  0  0  0  0  0  0  0
   11.5217   16.2104   23.0994 H   0  0  0  0  0  0  0  0  0  0  0  0
   13.5802   13.4185   21.1432 H   0  0  0  0  0  0  0  0  0  0  0  0
   12.8229   12.3651   22.3609 H   0  0  0  0  0  0  0  0  0  0  0  0
    9.8041   14.8611   21.6488 H   0  0  0  0  0  0  0  0  0  0  0  0
   11.0222   15.5336   20.5403 H   0  0  0  0  0  0  0  0  0  0  0  0
   11.5342   13.3080   20.0048 H   0  0  0  0  0  0  0  0  0  0  0  0
    7.5303   10.5211   27.4952 H   0  0  0  0  0  0  0  0  0  0  0  0
    6.4652   11.7817   26.8261 H   0  0  0  0  0  0  0  0  0  0  0  0
    6.1581   10.0881   26.4457 H   0  0  0  0  0  0  0  0  0  0  0  0
   11.0020    7.6670   24.0579 H   0  0  0  0  0  0  0  0  0  0  0  0
   11.2985    9.3154   24.6404 H   0  0  0  0  0  0  0  0  0  0  0  0
   12.5533    8.4618   23.7421 H   0  0  0  0  0  0  0  0  0  0  0  0
   10.7885    7.2606   21.4917 H   0  0  0  0  0  0  0  0  0  0  0  0
   10.9337    8.6361   20.3831 H   0  0  0  0  0  0  0  0  0  0  0  0
   12.3489    8.0673   21.2871 H   0  0  0  0  0  0  0  0  0  0  0  0
    8.8871    8.4544   22.6875 H   0  0  0  0  0  0  0  0  0  0  0  0
    9.0508    9.7982   21.5811 H   0  0  0  0  0  0  0  0  0  0  0  0
   11.4307   10.1414   22.2973 H   0  0  0  0  0  0  0  0  0  0  0  0
   10.6855   13.2625   23.4119 H   0  0  0  0  0  0  0  0  0  0  0  0
  1  2  2  0  0  0  0
  1 13  1  0  0  0  0
  1 15  1  0  0  0  0
  2 16  1  0  0  0  0
  2 18  1  0  0  0  0
  3 10  1  0  0  0  0
  3 15  2  0  0  0  0
  3 18  1  0  0  0  0
  4  5  2  0  0  0  0
  4  7  1  0  0  0  0
  5  8  1  0  0  0  0
  6  9  1  0  0  0  0
  6 16  1  0  0  0  0
  6 17  2  0  0  0  0
  7  9  1  0  0  0  0
  8  9  1  0  0  0  0
 11 14  1  0  0  0  0
 12 14  1  0  0  0  0
 13 14  1  0  0  0  0
  4 19  1  0  0  0  0
  5 20  1  0  0  0  0
  7 21  1  0  0  0  0
  7 22  1  0  0  0  0
  8 23  1  0  0  0  0
  8 24  1  0  0  0  0
  9 25  1  0  0  0  0
 10 26  1  0  0  0  0
 10 27  1  0  0  0  0
 10 28  1  0  0  0  0
 11 29  1  0  0  0  0
 11 30  1  0  0  0  0
 11 31  1  0  0  0  0
 12 32  1  0  0  0  0
 12 33  1  0  0  0  0
 12 34  1  0  0  0  0
 13 35  1  0  0  0  0
 13 36  1  0  0  0  0
 14 37  1  0  0  0  0
 16 38  1  0  0  0  0
M  END
> <idnumber>
Z1421256455

> <heavy_atoms>
18

> <LogS>
-3.279

> <LogP>
2.97

> <rotating_bonds>
4

> <PSA>
41.99

> <hb_acceptors>
2

> <hb_donors>
1

> <Collection>
HTS

> <link>
https://www.enaminestore.com/catalog/Z1421256455

> <ROCS_ShapeQuery>
_x1140_x0812_0A_x1140_0A_x1097_0A_x0365_0A_x1097_0A_x0310_0A

> <ROCS_TanimotoCombo>
0.636 

> <ROCS_ShapeTanimoto>
0.234 

> <ROCS_ColorTanimoto>
0.403 

> <ROCS_RefTversky>
0.213 

> <ROCS_RefColorTversky>
0.509 

> <ROCS_RefTverskyCombo>
0.721 

> <ROCS_FitTversky>
1.725 

> <ROCS_FitColorTversky>
0.659 

> <ROCS_FitTverskyCombo>
2.384 

> <ROCS_ColorScore>
-4.018

> <ROCS_Overlap>
2181.676

> <ROCS_Rank>
261                 

$$$$
untitled-dbase-1193129_24
  -OEChem-02092421083D

 29 30  0     0  0  0  0  0  0999 V2000
    7.4234   10.6806   25.2402 C   0  0  0  0  0  0  0  0  0  0  0  0
    9.0695   10.2312   23.7823 C   0  0  0  0  0  0  0  0  0  0  0  0
    8.8796   12.2874   24.6616 C   0  0  0  0  0  0  0  0  0  0  0  0
    7.2909    7.9945   26.6378 C   0  0  0  0  0  0  0  0  0  0  0  0
    6.5154    8.5001   27.8199 C   0  0  0  0  0  0  0  0  0  0  0  0
    6.1226    8.9156   26.4311 C   0  0  0  0  0  0  0  0  0  0  0  0
   11.4736    8.7072   21.3864 C   0  0  0  0  0  0  0  0  0  0  0  0
   11.9395    8.8774   23.8562 C   0  0  0  0  0  0  0  0  0  0  0  0
   11.1665    9.4514   22.6778 C   0  0  0  0  0  0  0  0  0  0  0  0
    8.0063    9.7609   24.4541 N   0  0  0  0  0  0  0  0  0  0  0  0
    7.8033   11.9593   25.3943 N   0  0  0  0  0  0  0  0  0  0  0  0
    9.5630   11.4789   23.8356 N   0  0  0  0  0  0  0  0  0  0  0  0
    6.2967   10.2608   25.9795 N   0  0  0  0  0  0  0  0  0  0  0  0
    9.7142    9.3523   22.9620 N   0  0  0  0  0  0  0  0  0  0  0  0
    9.4350   13.8976   24.7929 Cl  0  0  0  0  0  0  0  0  0  0  0  0
    8.2893    8.3859   26.4866 H   0  0  0  0  0  0  0  0  0  0  0  0
    7.1686    6.9545   26.3615 H   0  0  0  0  0  0  0  0  0  0  0  0
    5.8722    7.7999   28.3383 H   0  0  0  0  0  0  0  0  0  0  0  0
    6.9951    9.2298   28.4608 H   0  0  0  0  0  0  0  0  0  0  0  0
    5.2196    8.4731   26.0249 H   0  0  0  0  0  0  0  0  0  0  0  0
   11.2311    7.6439   21.4820 H   0  0  0  0  0  0  0  0  0  0  0  0
   10.9013    9.1135   20.5449 H   0  0  0  0  0  0  0  0  0  0  0  0
   12.5360    8.7913   21.1327 H   0  0  0  0  0  0  0  0  0  0  0  0
   11.7050    7.8162   23.9944 H   0  0  0  0  0  0  0  0  0  0  0  0
   11.6863    9.4039   24.7823 H   0  0  0  0  0  0  0  0  0  0  0  0
   13.0215    8.9580   23.7028 H   0  0  0  0  0  0  0  0  0  0  0  0
   11.4165   10.5114   22.5591 H   0  0  0  0  0  0  0  0  0  0  0  0
    5.6031   10.9550   26.1821 H   0  0  0  0  0  0  0  0  0  0  0  0
    9.2309    8.6039   22.5168 H   0  0  0  0  0  0  0  0  0  0  0  0
  1 10  1  0  0  0  0
  1 11  2  0  0  0  0
  1 13  1  0  0  0  0
  2 10  2  0  0  0  0
  2 12  1  0  0  0  0
  2 14  1  0  0  0  0
  3 11  1  0  0  0  0
  3 12  2  0  0  0  0
  3 15  1  0  0  0  0
  4  5  1  0  0  0  0
  4  6  1  0  0  0  0
  5  6  1  0  0  0  0
  6 13  1  0  0  0  0
  7  9  1  0  0  0  0
  8  9  1  0  0  0  0
  9 14  1  0  0  0  0
  4 16  1  0  0  0  0
  4 17  1  0  0  0  0
  5 18  1  0  0  0  0
  5 19  1  0  0  0  0
  6 20  1  0  0  0  0
  7 21  1  0  0  0  0
  7 22  1  0  0  0  0
  7 23  1  0  0  0  0
  8 24  1  0  0  0  0
  8 25  1  0  0  0  0
  8 26  1  0  0  0  0
  9 27  1  0  0  0  0
 13 28  1  0  0  0  0
 14 29  1  0  0  0  0
M  END
> <idnumber>
Z1509540503

> <heavy_atoms>
15

> <LogS>
-4.228

> <LogP>
2.758

> <rotating_bonds>
4

> <PSA>
62.73

> <hb_acceptors>
5

> <hb_donors>
2

> <Collection>
Functional

> <link>
https://www.enaminestore.com/catalog/Z1509540503

> <ROCS_ShapeQuery>
_x1140_x0812_0A_x1140_0A_x1097_0A_x0365_0A_x1097_0A_x0310_0A

> <ROCS_TanimotoCombo>
0.636 

> <ROCS_ShapeTanimoto>
0.206 

> <ROCS_ColorTanimoto>
0.430 

> <ROCS_RefTversky>
0.190 

> <ROCS_RefColorTversky>
0.568 

> <ROCS_RefTverskyCombo>
0.758 

> <ROCS_FitTversky>
1.682 

> <ROCS_FitColorTversky>
0.639 

> <ROCS_FitTverskyCombo>
2.322 

> <ROCS_ColorScore>
-4.518

> <ROCS_Overlap>
1947.487

> <ROCS_Rank>
262                 

$$$$
untitled-dbase-930741_57
  -OEChem-02092421083D

 29 30  0     0  0  0  0  0  0999 V2000
    8.7196   12.3007   24.5037 C   0  0  0  0  0  0  0  0  0  0  0  0
    7.4752   10.5341   25.4973 C   0  0  0  0  0  0  0  0  0  0  0  0
   11.8104   15.4819   22.2142 C   0  0  0  0  0  0  0  0  0  0  0  0
    9.2687   11.3769   23.6214 C   0  0  0  0  0  0  0  0  0  0  0  0
    7.8051   11.8794   25.4626 C   0  0  0  0  0  0  0  0  0  0  0  0
   12.5237   14.3562   22.5436 C   0  0  0  0  0  0  0  0  0  0  0  0
    8.8734   10.0541   23.7387 C   0  0  0  0  0  0  0  0  0  0  0  0
   13.5191   16.1046   23.2705 C   0  0  0  0  0  0  0  0  0  0  0  0
   10.2251   11.8291   22.6213 C   0  0  0  0  0  0  0  0  0  0  0  0
   14.5991   16.8220   23.9650 C   0  0  0  0  0  0  0  0  0  0  0  0
   12.3419   12.8840   22.3173 C   0  0  0  0  0  0  0  0  0  0  0  0
    7.1988   12.8427   26.4201 C   0  0  0  0  0  0  0  0  0  0  0  0
    7.9877    9.6073   24.6570 N   0  0  0  0  0  0  0  0  0  0  0  0
   12.4530   16.5991   22.6829 N   0  0  0  0  0  0  0  0  0  0  0  0
   10.0647   11.7160   21.3996 O   0  0  0  0  0  0  0  0  0  0  0  0
   13.6336   14.7489   23.2288 O   0  0  0  0  0  0  0  0  0  0  0  0
   11.3259   12.3973   23.2007 O   0  0  0  0  0  0  0  0  0  0  0  0
    7.6278   14.1304   26.2528 F   0  0  0  0  0  0  0  0  0  0  0  0
    5.8353   12.9126   26.3420 F   0  0  0  0  0  0  0  0  0  0  0  0
    7.4720   12.5361   27.7234 F   0  0  0  0  0  0  0  0  0  0  0  0
    9.4792    8.8151   22.7091 Cl  0  0  0  0  0  0  0  0  0  0  0  0
    9.0009   13.3497   24.4459 H   0  0  0  0  0  0  0  0  0  0  0  0
    6.7679   10.1465   26.2242 H   0  0  0  0  0  0  0  0  0  0  0  0
   10.8793   15.5492   21.6713 H   0  0  0  0  0  0  0  0  0  0  0  0
   14.3741   16.9464   25.0388 H   0  0  0  0  0  0  0  0  0  0  0  0
   15.5682   16.2957   23.8889 H   0  0  0  0  0  0  0  0  0  0  0  0
   14.7709   17.8296   23.5441 H   0  0  0  0  0  0  0  0  0  0  0  0
   12.0435   12.6805   21.2832 H   0  0  0  0  0  0  0  0  0  0  0  0
   13.2750   12.3439   22.5107 H   0  0  0  0  0  0  0  0  0  0  0  0
  1  4  1  0  0  0  0
  1  5  2  0  0  0  0
  2  5  1  0  0  0  0
  2 13  2  0  0  0  0
  3  6  2  0  0  0  0
  3 14  1  0  0  0  0
  4  7  2  0  0  0  0
  4  9  1  0  0  0  0
  5 12  1  0  0  0  0
  6 11  1  0  0  0  0
  6 16  1  0  0  0  0
  7 13  1  0  0  0  0
  7 21  1  0  0  0  0
  8 10  1  0  0  0  0
  8 14  2  0  0  0  0
  8 16  1  0  0  0  0
  9 15  2  0  0  0  0
  9 17  1  0  0  0  0
 11 17  1  0  0  0  0
 12 18  1  0  0  0  0
 12 19  1  0  0  0  0
 12 20  1  0  0  0  0
  1 22  1  0  0  0  0
  2 23  1  0  0  0  0
  3 24  1  0  0  0  0
 10 25  1  0  0  0  0
 10 26  1  0  0  0  0
 10 27  1  0  0  0  0
 11 28  1  0  0  0  0
 11 29  1  0  0  0  0
M  END
> <idnumber>
Z2675553328

> <heavy_atoms>
21

> <LogS>
-3.143

> <LogP>
1.761

> <rotating_bonds>
5

> <PSA>
65.22

> <hb_acceptors>
3

> <hb_donors>
0

> <Collection>
Functional

> <link>
https://www.enaminestore.com/catalog/Z2675553328

> <ROCS_ShapeQuery>
_x1140_x0812_0A_x1140_0A_x1097_0A_x0365_0A_x1097_0A_x0310_0A

> <ROCS_TanimotoCombo>
0.636 

> <ROCS_ShapeTanimoto>
0.260 

> <ROCS_ColorTanimoto>
0.376 

> <ROCS_RefTversky>
0.236 

> <ROCS_RefColorTversky>
0.452 

> <ROCS_RefTverskyCombo>
0.688 

> <ROCS_FitTversky>
1.675 

> <ROCS_FitColorTversky>
0.689 

> <ROCS_FitTverskyCombo>
2.364 

> <ROCS_ColorScore>
-3.550

> <ROCS_Overlap>
2419.715

> <ROCS_Rank>
263                 

$$$$
untitled-dbase-1135531_23
  -OEChem-02092421083D

 32 33  0     0  0  0  0  0  0999 V2000
    7.6504   11.8342   25.3549 C   0  0  0  0  0  0  0  0  0  0  0  0
    8.8119   10.1069   23.5905 C   0  0  0  0  0  0  0  0  0  0  0  0
   12.4755   14.9462   21.0473 C   0  0  0  0  0  0  0  0  0  0  0  0
    9.2524   11.4205   23.6093 C   0  0  0  0  0  0  0  0  0  0  0  0
    8.6554   12.2942   24.5113 C   0  0  0  0  0  0  0  0  0  0  0  0
   12.5169   14.3087   22.2590 C   0  0  0  0  0  0  0  0  0  0  0  0
   12.4567   15.3588   23.1913 C   0  0  0  0  0  0  0  0  0  0  0  0
    7.2815   10.5022   25.2578 C   0  0  0  0  0  0  0  0  0  0  0  0
   10.3078   11.8455   22.7031 C   0  0  0  0  0  0  0  0  0  0  0  0
    9.0742   13.7252   24.5930 C   0  0  0  0  0  0  0  0  0  0  0  0
   12.4686   15.2695   24.6612 C   0  0  0  0  0  0  0  0  0  0  0  0
   12.6046   12.8322   22.5169 C   0  0  0  0  0  0  0  0  0  0  0  0
    7.8384    9.6235   24.3943 N   0  0  0  0  0  0  0  0  0  0  0  0
   12.3836   16.5560   22.6029 N   0  0  0  0  0  0  0  0  0  0  0  0
    6.2559   10.0481   26.1239 N   0  0  0  0  0  0  0  0  0  0  0  0
   11.4780   12.3491   23.2826 N   0  0  0  0  0  0  0  0  0  0  0  0
   10.1483   11.7753   21.4716 O   0  0  0  0  0  0  0  0  0  0  0  0
   12.3959   16.2877   21.2394 O   0  0  0  0  0  0  0  0  0  0  0  0
    7.1728   12.5019   26.0657 H   0  0  0  0  0  0  0  0  0  0  0  0
    9.2389    9.3774   22.9087 H   0  0  0  0  0  0  0  0  0  0  0  0
   12.4919   14.6178   20.0185 H   0  0  0  0  0  0  0  0  0  0  0  0
    9.8865   13.8426   25.3198 H   0  0  0  0  0  0  0  0  0  0  0  0
    9.4206   14.0933   23.6193 H   0  0  0  0  0  0  0  0  0  0  0  0
    8.2376   14.3665   24.8972 H   0  0  0  0  0  0  0  0  0  0  0  0
   13.4981   15.3081   25.0566 H   0  0  0  0  0  0  0  0  0  0  0  0
   11.9003   16.0906   25.1337 H   0  0  0  0  0  0  0  0  0  0  0  0
   12.0072   14.3343   25.0261 H   0  0  0  0  0  0  0  0  0  0  0  0
   12.6343   12.2765   21.5734 H   0  0  0  0  0  0  0  0  0  0  0  0
   13.5165   12.5834   23.0698 H   0  0  0  0  0  0  0  0  0  0  0  0
    5.8765   10.6811   26.7938 H   0  0  0  0  0  0  0  0  0  0  0  0
    6.0044    9.0837   26.1073 H   0  0  0  0  0  0  0  0  0  0  0  0
   11.5312   12.4433   24.2916 H   0  0  0  0  0  0  0  0  0  0  0  0
  1  5  1  0  0  0  0
  1  8  2  0  0  0  0
  2  4  1  0  0  0  0
  2 13  2  0  0  0  0
  3  6  2  0  0  0  0
  3 18  1  0  0  0  0
  4  5  2  0  0  0  0
  4  9  1  0  0  0  0
  5 10  1  0  0  0  0
  6  7  1  0  0  0  0
  6 12  1  0  0  0  0
  7 11  1  0  0  0  0
  7 14  2  0  0  0  0
  8 13  1  0  0  0  0
  8 15  1  0  0  0  0
  9 16  1  0  0  0  0
  9 17  2  0  0  0  0
 12 16  1  0  0  0  0
 14 18  1  0  0  0  0
  1 19  1  0  0  0  0
  2 20  1  0  0  0  0
  3 21  1  0  0  0  0
 10 22  1  0  0  0  0
 10 23  1  0  0  0  0
 10 24  1  0  0  0  0
 11 25  1  0  0  0  0
 11 26  1  0  0  0  0
 11 27  1  0  0  0  0
 12 28  1  0  0  0  0
 12 29  1  0  0  0  0
 15 30  1  0  0  0  0
 15 31  1  0  0  0  0
 16 32  1  0  0  0  0
M  END
> <idnumber>
Z6143109172

> <heavy_atoms>
18

> <LogS>
-1.616

> <LogP>
0.151

> <rotating_bonds>
3

> <PSA>
94.04

> <hb_acceptors>
4

> <hb_donors>
2

> <Collection>
Functional

> <link>
https://www.enaminestore.com/catalog/Z6143109172

> <ROCS_ShapeQuery>
_x1140_x0812_0A_x1140_0A_x1097_0A_x0365_0A_x1097_0A_x0310_0A

> <ROCS_TanimotoCombo>
0.636 

> <ROCS_ShapeTanimoto>
0.238 

> <ROCS_ColorTanimoto>
0.398 

> <ROCS_RefTversky>
0.216 

> <ROCS_RefColorTversky>
0.570 

> <ROCS_RefTverskyCombo>
0.786 

> <ROCS_FitTversky>
1.700 

> <ROCS_FitColorTversky>
0.570 

> <ROCS_FitTverskyCombo>
2.270 

> <ROCS_ColorScore>
-4.560

> <ROCS_Overlap>
2221.178

> <ROCS_Rank>
264                 

$$$$
untitled-dbase-1067755_14
  -OEChem-02092421083D

 37 39  0     1  0  0  0  0  0999 V2000
   13.9175   16.5684   24.5496 C   0  0  0  0  0  0  0  0  0  0  0  0
   13.8373   15.2028   24.7988 C   0  0  0  0  0  0  0  0  0  0  0  0
    8.2059   12.5545   24.2515 C   0  0  0  0  0  0  0  0  0  0  0  0
   13.1580   17.0840   23.5117 C   0  0  0  0  0  0  0  0  0  0  0  0
    8.8874   10.3702   23.6141 C   0  0  0  0  0  0  0  0  0  0  0  0
    9.0124   11.7402   23.4659 C   0  0  0  0  0  0  0  0  0  0  0  0
    7.2934   11.9813   25.1385 C   0  0  0  0  0  0  0  0  0  0  0  0
   13.0116   14.4058   24.0136 C   0  0  0  0  0  0  0  0  0  0  0  0
   12.2925   15.0183   22.9999 C   0  0  0  0  0  0  0  0  0  0  0  0
    7.2371   10.5900   25.2115 C   0  0  0  0  0  0  0  0  0  0  0  0
    5.3733   10.6735   26.8254 C   0  0  0  0  0  0  0  0  0  0  0  0
    9.9684   12.3090   22.5325 C   0  0  0  0  0  0  0  0  0  0  0  0
    6.4738   12.8203   26.0714 C   0  0  0  0  0  0  0  0  0  0  0  0
    5.1707   12.1201   26.4232 C   0  0  0  0  0  0  0  0  0  0  0  0
   10.6377   15.0275   21.0998 C   0  0  0  0  0  0  0  0  0  0  0  0
   11.3860   14.1863   22.1244 C   0  0  2  0  0  0  0  0  0  0  0  0
   12.3447   16.3415   22.7276 N   0  0  0  0  0  0  0  0  0  0  0  0
    8.0270    9.7766   24.4712 N   0  0  0  0  0  0  0  0  0  0  0  0
    6.3415    9.9896   26.1170 N   0  0  0  0  0  0  0  0  0  0  0  0
    4.6491   10.1353   27.6627 O   0  0  0  0  0  0  0  0  0  0  0  0
   10.3228   11.7699   21.4742 O   0  0  0  0  0  0  0  0  0  0  0  0
   10.4346   13.5220   22.9630 O   0  0  0  0  0  0  0  0  0  0  0  0
   12.9221   13.0894   24.2385 F   0  0  0  0  0  0  0  0  0  0  0  0
   14.5543   17.2089   25.1490 H   0  0  0  0  0  0  0  0  0  0  0  0
   14.4169   14.7603   25.6030 H   0  0  0  0  0  0  0  0  0  0  0  0
    8.2926   13.6365   24.1839 H   0  0  0  0  0  0  0  0  0  0  0  0
   13.1850   18.1426   23.2762 H   0  0  0  0  0  0  0  0  0  0  0  0
    9.4946    9.6824   23.0333 H   0  0  0  0  0  0  0  0  0  0  0  0
    7.0611   12.9982   26.9807 H   0  0  0  0  0  0  0  0  0  0  0  0
    6.2501   13.7939   25.6209 H   0  0  0  0  0  0  0  0  0  0  0  0
    4.4919   12.1233   25.5612 H   0  0  0  0  0  0  0  0  0  0  0  0
    4.6745   12.6512   27.2427 H   0  0  0  0  0  0  0  0  0  0  0  0
   10.0555   15.8198   21.5808 H   0  0  0  0  0  0  0  0  0  0  0  0
    9.9576   14.4172   20.4949 H   0  0  0  0  0  0  0  0  0  0  0  0
   11.3438   15.4888   20.4006 H   0  0  0  0  0  0  0  0  0  0  0  0
   11.9523   13.4093   21.5972 H   0  0  0  0  0  0  0  0  0  0  0  0
    6.4266    8.9858   26.2462 H   0  0  0  0  0  0  0  0  0  0  0  0
  1  2  2  0  0  0  0
  1  4  1  0  0  0  0
  2  8  1  0  0  0  0
  3  6  2  0  0  0  0
  3  7  1  0  0  0  0
  4 17  2  0  0  0  0
  5  6  1  0  0  0  0
  5 18  2  0  0  0  0
  6 12  1  0  0  0  0
  7 10  2  0  0  0  0
  7 13  1  0  0  0  0
  8  9  2  0  0  0  0
  8 23  1  0  0  0  0
  9 16  1  0  0  0  0
  9 17  1  0  0  0  0
 10 18  1  0  0  0  0
 10 19  1  0  0  0  0
 11 14  1  0  0  0  0
 11 19  1  0  0  0  0
 11 20  2  0  0  0  0
 12 21  2  0  0  0  0
 12 22  1  0  0  0  0
 13 14  1  0  0  0  0
 15 16  1  1  0  0  0
 16 22  1  0  0  0  0
  1 24  1  0  0  0  0
  2 25  1  0  0  0  0
  3 26  1  0  0  0  0
  4 27  1  0  0  0  0
  5 28  1  0  0  0  0
 13 29  1  0  0  0  0
 13 30  1  0  0  0  0
 14 31  1  0  0  0  0
 14 32  1  0  0  0  0
 15 33  1  0  0  0  0
 15 34  1  0  0  0  0
 15 35  1  0  0  0  0
 16 36  1  0  0  0  0
 19 37  1  0  0  0  0
M  END
> <idnumber>
Z4045274527

> <heavy_atoms>
23

> <LogS>
-2.489

> <LogP>
1.673

> <rotating_bonds>
4

> <PSA>
81.18

> <hb_acceptors>
4

> <hb_donors>
1

> <Collection>
Advanced

> <link>
https://www.enaminestore.com/catalog/Z4045274527

> <ROCS_ShapeQuery>
_x1140_x0812_0A_x1140_0A_x1097_0A_x0365_0A_x1097_0A_x0310_0A

> <ROCS_TanimotoCombo>
0.636 

> <ROCS_ShapeTanimoto>
0.265 

> <ROCS_ColorTanimoto>
0.371 

> <ROCS_RefTversky>
0.241 

> <ROCS_RefColorTversky>
0.541 

> <ROCS_RefTverskyCombo>
0.782 

> <ROCS_FitTversky>
1.603 

> <ROCS_FitColorTversky>
0.541 

> <ROCS_FitTverskyCombo>
2.144 

> <ROCS_ColorScore>
-4.331

> <ROCS_Overlap>
2474.401

> <ROCS_Rank>
265                 

$$$$
untitled-dbase-28589_20
  -OEChem-02092421083D

 25 25  0     0  0  0  0  0  0999 V2000
    8.4551   12.4146   24.2065 C   0  0  0  0  0  0  0  0  0  0  0  0
    7.4765   11.9631   25.0850 C   0  0  0  0  0  0  0  0  0  0  0  0
    8.9566   10.1494   23.6828 C   0  0  0  0  0  0  0  0  0  0  0  0
    9.2136   11.4970   23.4882 C   0  0  0  0  0  0  0  0  0  0  0  0
    7.2970   10.5947   25.2079 C   0  0  0  0  0  0  0  0  0  0  0  0
   10.2416   11.9380   22.5619 C   0  0  0  0  0  0  0  0  0  0  0  0
   11.9020   14.5354   21.8464 C   0  0  0  0  0  0  0  0  0  0  0  0
    5.1234   10.9103   26.3918 C   0  0  0  0  0  0  0  0  0  0  0  0
   12.2784   13.1704   22.3819 C   0  0  0  0  0  0  0  0  0  0  0  0
    8.0144    9.6729   24.5272 N   0  0  0  0  0  0  0  0  0  0  0  0
    6.2970   10.1504   26.1083 N   0  0  0  0  0  0  0  0  0  0  0  0
   10.2502   11.6832   21.3491 O   0  0  0  0  0  0  0  0  0  0  0  0
   11.2070   12.6758   23.1925 O   0  0  0  0  0  0  0  0  0  0  0  0
    8.6191   13.4825   24.0904 H   0  0  0  0  0  0  0  0  0  0  0  0
    6.8795   12.6722   25.6494 H   0  0  0  0  0  0  0  0  0  0  0  0
    9.5158    9.3853   23.1513 H   0  0  0  0  0  0  0  0  0  0  0  0
   10.9982   14.4784   21.2333 H   0  0  0  0  0  0  0  0  0  0  0  0
   11.7281   15.2379   22.6680 H   0  0  0  0  0  0  0  0  0  0  0  0
   12.7145   14.9495   21.2401 H   0  0  0  0  0  0  0  0  0  0  0  0
    5.1429   11.8456   25.8131 H   0  0  0  0  0  0  0  0  0  0  0  0
    4.2331   10.3266   26.1151 H   0  0  0  0  0  0  0  0  0  0  0  0
    5.0891   11.1446   27.4660 H   0  0  0  0  0  0  0  0  0  0  0  0
   13.1830   13.2344   22.9941 H   0  0  0  0  0  0  0  0  0  0  0  0
   12.4510   12.4695   21.5597 H   0  0  0  0  0  0  0  0  0  0  0  0
    6.4506    9.2654   26.5468 H   0  0  0  0  0  0  0  0  0  0  0  0
  1  2  2  0  0  0  0
  1  4  1  0  0  0  0
  2  5  1  0  0  0  0
  3  4  2  0  0  0  0
  3 10  1  0  0  0  0
  4  6  1  0  0  0  0
  5 10  2  0  0  0  0
  5 11  1  0  0  0  0
  6 12  2  0  0  0  0
  6 13  1  0  0  0  0
  7  9  1  0  0  0  0
  8 11  1  0  0  0  0
  9 13  1  0  0  0  0
  1 14  1  0  0  0  0
  2 15  1  0  0  0  0
  3 16  1  0  0  0  0
  7 17  1  0  0  0  0
  7 18  1  0  0  0  0
  7 19  1  0  0  0  0
  8 20  1  0  0  0  0
  8 21  1  0  0  0  0
  8 22  1  0  0  0  0
  9 23  1  0  0  0  0
  9 24  1  0  0  0  0
 11 25  1  0  0  0  0
M  END
> <idnumber>
Z359297640

> <heavy_atoms>
13

> <LogS>
-1.274

> <LogP>
1.853

> <rotating_bonds>
4

> <PSA>
51.22

> <hb_acceptors>
3

> <hb_donors>
1

> <Collection>
HTS

> <link>
https://www.enaminestore.com/catalog/Z359297640

> <ROCS_ShapeQuery>
_x1140_x0812_0A_x1140_0A_x1097_0A_x0365_0A_x1097_0A_x0310_0A

> <ROCS_TanimotoCombo>
0.636 

> <ROCS_ShapeTanimoto>
0.231 

> <ROCS_ColorTanimoto>
0.405 

> <ROCS_RefTversky>
0.207 

> <ROCS_RefColorTversky>
0.444 

> <ROCS_RefTverskyCombo>
0.651 

> <ROCS_FitTversky>
1.976 

> <ROCS_FitColorTversky>
0.824 

> <ROCS_FitTverskyCombo>
2.800 

> <ROCS_ColorScore>
-3.460

> <ROCS_Overlap>
2121.827

> <ROCS_Rank>
266                 

$$$$
untitled-dbase-1064901_103
  -OEChem-02092421083D

 33 35  0     0  0  0  0  0  0999 V2000
   14.1293   15.2522   21.7179 C   0  0  0  0  0  0  0  0  0  0  0  0
   14.8733   14.1280   21.3601 C   0  0  0  0  0  0  0  0  0  0  0  0
    8.6932   12.5904   24.6312 C   0  0  0  0  0  0  0  0  0  0  0  0
   13.1654   12.6993   22.2978 C   0  0  0  0  0  0  0  0  0  0  0  0
    6.7165   12.2496   26.3207 C   0  0  0  0  0  0  0  0  0  0  0  0
    9.1113   10.4867   23.5554 C   0  0  0  0  0  0  0  0  0  0  0  0
    7.6783   11.9355   25.3400 C   0  0  0  0  0  0  0  0  0  0  0  0
   12.4214   13.8237   22.6556 C   0  0  0  0  0  0  0  0  0  0  0  0
    9.4233   11.8327   23.7154 C   0  0  0  0  0  0  0  0  0  0  0  0
   12.9033   15.1001   22.3657 C   0  0  0  0  0  0  0  0  0  0  0  0
   14.3913   12.8515   21.6501 C   0  0  0  0  0  0  0  0  0  0  0  0
    7.4719   10.5890   25.0837 C   0  0  0  0  0  0  0  0  0  0  0  0
   11.1041   13.6407   23.3524 C   0  0  0  0  0  0  0  0  0  0  0  0
   11.7915   17.0804   21.6589 C   0  0  0  0  0  0  0  0  0  0  0  0
    8.1412    9.8098   24.2163 N   0  0  0  0  0  0  0  0  0  0  0  0
    5.9621   11.1996   26.6616 N   0  0  0  0  0  0  0  0  0  0  0  0
    6.4442   10.2055   25.8939 N   0  0  0  0  0  0  0  0  0  0  0  0
   10.4584   12.4222   22.9665 N   0  0  0  0  0  0  0  0  0  0  0  0
   12.1903   16.2091   22.7096 O   0  0  0  0  0  0  0  0  0  0  0  0
   15.1056   11.7715   21.3068 F   0  0  0  0  0  0  0  0  0  0  0  0
   11.0083   16.3655   20.8106 F   0  0  0  0  0  0  0  0  0  0  0  0
   11.0101   18.0640   22.1686 F   0  0  0  0  0  0  0  0  0  0  0  0
   14.5111   16.2437   21.4901 H   0  0  0  0  0  0  0  0  0  0  0  0
   15.8277   14.2468   20.8562 H   0  0  0  0  0  0  0  0  0  0  0  0
    8.9010   13.6438   24.7897 H   0  0  0  0  0  0  0  0  0  0  0  0
   12.7999   11.7004   22.5200 H   0  0  0  0  0  0  0  0  0  0  0  0
    6.5322   13.1994   26.8025 H   0  0  0  0  0  0  0  0  0  0  0  0
    9.6669    9.8759   22.8472 H   0  0  0  0  0  0  0  0  0  0  0  0
   11.2416   13.6201   24.4390 H   0  0  0  0  0  0  0  0  0  0  0  0
   10.4220   14.4671   23.1265 H   0  0  0  0  0  0  0  0  0  0  0  0
   12.6328   17.4944   21.0928 H   0  0  0  0  0  0  0  0  0  0  0  0
    6.0238    9.2882   25.9743 H   0  0  0  0  0  0  0  0  0  0  0  0
   10.7408   11.9510   22.1260 H   0  0  0  0  0  0  0  0  0  0  0  0
  1  2  2  0  0  0  0
  1 10  1  0  0  0  0
  2 11  1  0  0  0  0
  3  7  1  0  0  0  0
  3  9  2  0  0  0  0
  4  8  1  0  0  0  0
  4 11  2  0  0  0  0
  5  7  1  0  0  0  0
  5 16  2  0  0  0  0
  6  9  1  0  0  0  0
  6 15  2  0  0  0  0
  7 12  2  0  0  0  0
  8 10  2  0  0  0  0
  8 13  1  0  0  0  0
  9 18  1  0  0  0  0
 10 19  1  0  0  0  0
 11 20  1  0  0  0  0
 12 15  1  0  0  0  0
 12 17  1  0  0  0  0
 13 18  1  0  0  0  0
 14 19  1  0  0  0  0
 14 21  1  0  0  0  0
 14 22  1  0  0  0  0
 16 17  1  0  0  0  0
  1 23  1  0  0  0  0
  2 24  1  0  0  0  0
  3 25  1  0  0  0  0
  4 26  1  0  0  0  0
  5 27  1  0  0  0  0
  6 28  1  0  0  0  0
 13 29  1  0  0  0  0
 13 30  1  0  0  0  0
 14 31  1  0  0  0  0
 17 32  1  0  0  0  0
 18 33  1  0  0  0  0
M  END
> <idnumber>
Z3992203380

> <heavy_atoms>
22

> <LogS>
-4.051

> <LogP>
3.533

> <rotating_bonds>
5

> <PSA>
62.83

> <hb_acceptors>
4

> <hb_donors>
2

> <Collection>
HTS

> <link>
https://www.enaminestore.com/catalog/Z3992203380

> <ROCS_ShapeQuery>
_x1140_x0812_0A_x1140_0A_x1097_0A_x0365_0A_x1097_0A_x0310_0A

> <ROCS_TanimotoCombo>
0.636 

> <ROCS_ShapeTanimoto>
0.241 

> <ROCS_ColorTanimoto>
0.395 

> <ROCS_RefTversky>
0.223 

> <ROCS_RefColorTversky>
0.567 

> <ROCS_RefTverskyCombo>
0.789 

> <ROCS_FitTversky>
1.517 

> <ROCS_FitColorTversky>
0.565 

> <ROCS_FitTverskyCombo>
2.083 

> <ROCS_ColorScore>
-4.534

> <ROCS_Overlap>
2288.406

> <ROCS_Rank>
267                 

$$$$
untitled-dbase-541747_63
  -OEChem-02092421083D

 42 42  0     1  0  0  0  0  0999 V2000
   12.6033   10.9329   22.0056 C   0  0  0  0  0  0  0  0  0  0  0  0
   11.4329   10.3462   22.3152 C   0  0  0  0  0  0  0  0  0  0  0  0
   10.2569   11.2371   22.2570 C   0  0  0  0  0  0  0  0  0  0  0  0
    7.1503   10.1160   25.0956 C   0  0  0  0  0  0  0  0  0  0  0  0
    8.1090   11.6621   23.4079 C   0  0  0  0  0  0  0  0  0  0  0  0
   10.0509   11.3312   24.7962 C   0  0  0  0  0  0  0  0  0  0  0  0
    7.6464   11.5107   24.8513 C   0  0  2  0  0  0  0  0  0  0  0  0
    8.8993   11.8030   25.6888 C   0  0  2  0  0  0  0  0  0  0  0  0
   11.1673    8.9314   22.7096 C   0  0  0  0  0  0  0  0  0  0  0  0
   14.8799   11.2033   22.9443 C   0  0  0  0  0  0  0  0  0  0  0  0
   14.5650   10.6663   20.5166 C   0  0  0  0  0  0  0  0  0  0  0  0
   14.2267    8.9059   22.2414 C   0  0  0  0  0  0  0  0  0  0  0  0
   14.0321   10.3994   21.9389 C   0  0  0  0  0  0  0  0  0  0  0  0
    9.0207   13.2918   26.0130 C   0  0  0  0  0  0  0  0  0  0  0  0
    9.5413   11.3988   23.4288 N   0  0  0  0  0  0  0  0  0  0  0  0
    6.1794   10.0347   26.0656 N   0  0  0  0  0  0  0  0  0  0  0  0
    9.9762   11.7768   21.1871 O   0  0  0  0  0  0  0  0  0  0  0  0
    7.5748    9.1520   24.4631 O   0  0  0  0  0  0  0  0  0  0  0  0
   10.1571   13.5302   26.6895 F   0  0  0  0  0  0  0  0  0  0  0  0
    9.0346   14.0156   24.8810 F   0  0  0  0  0  0  0  0  0  0  0  0
    7.9813   13.6909   26.7654 F   0  0  0  0  0  0  0  0  0  0  0  0
   12.5621   11.9950   21.7491 H   0  0  0  0  0  0  0  0  0  0  0  0
    7.6423   10.9344   22.7301 H   0  0  0  0  0  0  0  0  0  0  0  0
    7.9150   12.6653   23.0079 H   0  0  0  0  0  0  0  0  0  0  0  0
   10.9258   11.9924   24.8594 H   0  0  0  0  0  0  0  0  0  0  0  0
   10.3643   10.3088   25.0413 H   0  0  0  0  0  0  0  0  0  0  0  0
    6.8389   12.2127   25.0764 H   0  0  0  0  0  0  0  0  0  0  0  0
    8.8899   11.2413   26.6137 H   0  0  0  0  0  0  0  0  0  0  0  0
   11.2299    8.7946   23.7948 H   0  0  0  0  0  0  0  0  0  0  0  0
   11.9054    8.2564   22.2676 H   0  0  0  0  0  0  0  0  0  0  0  0
   10.1600    8.6241   22.4159 H   0  0  0  0  0  0  0  0  0  0  0  0
   15.9249   10.8709   22.9495 H   0  0  0  0  0  0  0  0  0  0  0  0
   14.8730   12.2726   22.7017 H   0  0  0  0  0  0  0  0  0  0  0  0
   14.4967   11.0915   23.9654 H   0  0  0  0  0  0  0  0  0  0  0  0
   15.5938   10.3065   20.3954 H   0  0  0  0  0  0  0  0  0  0  0  0
   13.9521   10.1607   19.7614 H   0  0  0  0  0  0  0  0  0  0  0  0
   14.5591   11.7384   20.2865 H   0  0  0  0  0  0  0  0  0  0  0  0
   15.2851    8.6275   22.1663 H   0  0  0  0  0  0  0  0  0  0  0  0
   13.6843    8.2745   21.5304 H   0  0  0  0  0  0  0  0  0  0  0  0
   13.9076    8.6517   23.2570 H   0  0  0  0  0  0  0  0  0  0  0  0
    5.8800   10.8870   26.5275 H   0  0  0  0  0  0  0  0  0  0  0  0
    5.7501    9.1564   26.3381 H   0  0  0  0  0  0  0  0  0  0  0  0
  1  2  2  0  0  0  0
  1 13  1  4  0  0  0
  2  3  1  0  0  0  0
  2  9  1  0  0  0  0
  3 15  1  0  0  0  0
  3 17  2  0  0  0  0
  4  7  1  1  0  0  0
  4 16  1  0  0  0  0
  4 18  2  0  0  0  0
  5  7  1  0  0  0  0
  5 15  1  0  0  0  0
  6  8  1  0  0  0  0
  6 15  1  0  0  0  0
  7  8  1  0  0  0  0
  8 14  1  6  0  0  0
 10 13  1  0  0  0  0
 11 13  1  0  0  0  0
 12 13  1  0  0  0  0
 14 19  1  0  0  0  0
 14 20  1  0  0  0  0
 14 21  1  0  0  0  0
  1 22  1  0  0  0  0
  5 23  1  0  0  0  0
  5 24  1  0  0  0  0
  6 25  1  0  0  0  0
  6 26  1  0  0  0  0
  7 27  1  0  0  0  0
  8 28  1  0  0  0  0
  9 29  1  0  0  0  0
  9 30  1  0  0  0  0
  9 31  1  0  0  0  0
 10 32  1  0  0  0  0
 10 33  1  0  0  0  0
 10 34  1  0  0  0  0
 11 35  1  0  0  0  0
 11 36  1  0  0  0  0
 11 37  1  0  0  0  0
 12 38  1  0  0  0  0
 12 39  1  0  0  0  0
 12 40  1  0  0  0  0
 16 41  1  0  0  0  0
 16 42  1  0  0  0  0
M  END
> <idnumber>
Z2062945639

> <heavy_atoms>
21

> <LogS>
-4.12

> <LogP>
1.894

> <rotating_bonds>
4

> <PSA>
63.4

> <hb_acceptors>
2

> <hb_donors>
1

> <Collection>
Legacy

> <link>
https://www.enaminestore.com/catalog/Z2062945639

> <ROCS_ShapeQuery>
_x1140_x0812_0A_x1140_0A_x1097_0A_x0365_0A_x1097_0A_x0310_0A

> <ROCS_TanimotoCombo>
0.636 

> <ROCS_ShapeTanimoto>
0.206 

> <ROCS_ColorTanimoto>
0.429 

> <ROCS_RefTversky>
0.195 

> <ROCS_RefColorTversky>
0.532 

> <ROCS_RefTverskyCombo>
0.727 

> <ROCS_FitTversky>
1.420 

> <ROCS_FitColorTversky>
0.689 

> <ROCS_FitTverskyCombo>
2.109 

> <ROCS_ColorScore>
-4.204

> <ROCS_Overlap>
1997.574

> <ROCS_Rank>
268                 

$$$$
untitled-dbase-282945_152
  -OEChem-02092421083D

 32 33  0     0  0  0  0  0  0999 V2000
    8.0518   11.9323   25.5385 C   0  0  0  0  0  0  0  0  0  0  0  0
    8.8214   12.3551   24.4605 C   0  0  0  0  0  0  0  0  0  0  0  0
   11.3617   14.9656   19.5493 C   0  0  0  0  0  0  0  0  0  0  0  0
   10.0681   15.4629   21.5282 C   0  0  0  0  0  0  0  0  0  0  0  0
   10.7266   16.0067   18.8724 C   0  0  0  0  0  0  0  0  0  0  0  0
    9.4329   16.5041   20.8513 C   0  0  0  0  0  0  0  0  0  0  0  0
    7.6937   10.5950   25.5948 C   0  0  0  0  0  0  0  0  0  0  0  0
    9.2041   11.4406   23.4855 C   0  0  0  0  0  0  0  0  0  0  0  0
   11.0324   14.6936   20.8772 C   0  0  0  0  0  0  0  0  0  0  0  0
    9.7622   16.7760   19.5234 C   0  0  0  0  0  0  0  0  0  0  0  0
    8.7946   10.1253   23.6339 C   0  0  0  0  0  0  0  0  0  0  0  0
   10.0268   11.9195   22.3449 C   0  0  0  0  0  0  0  0  0  0  0  0
   11.0370    8.9748   22.5563 C   0  0  0  0  0  0  0  0  0  0  0  0
   11.7125   13.5815   21.6018 C   0  0  0  0  0  0  0  0  0  0  0  0
    8.0465    9.6773   24.6670 N   0  0  0  0  0  0  0  0  0  0  0  0
   10.8708   12.9892   22.6102 N   0  0  0  0  0  0  0  0  0  0  0  0
    9.9090   11.3755   21.2500 O   0  0  0  0  0  0  0  0  0  0  0  0
    9.2390    8.8774   22.4308 S   0  0  0  0  0  0  0  0  0  0  0  0
    8.9789   18.0604   18.6883 Cl  0  0  0  0  0  0  0  0  0  0  0  0
    7.7417   12.6274   26.3101 H   0  0  0  0  0  0  0  0  0  0  0  0
    9.1160   13.3993   24.3930 H   0  0  0  0  0  0  0  0  0  0  0  0
   12.1119   14.3706   19.0350 H   0  0  0  0  0  0  0  0  0  0  0  0
    9.8060   15.2576   22.5628 H   0  0  0  0  0  0  0  0  0  0  0  0
   10.9937   16.2072   17.8380 H   0  0  0  0  0  0  0  0  0  0  0  0
    8.6834   17.0950   21.3714 H   0  0  0  0  0  0  0  0  0  0  0  0
    7.0932   10.2153   26.4148 H   0  0  0  0  0  0  0  0  0  0  0  0
   11.4968    8.2594   21.8701 H   0  0  0  0  0  0  0  0  0  0  0  0
   11.3509    8.7420   23.5769 H   0  0  0  0  0  0  0  0  0  0  0  0
   11.3729    9.9825   22.3001 H   0  0  0  0  0  0  0  0  0  0  0  0
   12.0108   12.7817   20.9095 H   0  0  0  0  0  0  0  0  0  0  0  0
   12.6284   13.9265   22.1011 H   0  0  0  0  0  0  0  0  0  0  0  0
   10.8655   13.4262   23.5282 H   0  0  0  0  0  0  0  0  0  0  0  0
  1  2  2  0  0  0  0
  1  7  1  0  0  0  0
  2  8  1  0  0  0  0
  3  5  2  0  0  0  0
  3  9  1  0  0  0  0
  4  6  1  0  0  0  0
  4  9  2  0  0  0  0
  5 10  1  0  0  0  0
  6 10  2  0  0  0  0
  7 15  2  0  0  0  0
  8 11  2  0  0  0  0
  8 12  1  0  0  0  0
  9 14  1  0  0  0  0
 10 19  1  0  0  0  0
 11 15  1  0  0  0  0
 11 18  1  0  0  0  0
 12 16  1  0  0  0  0
 12 17  2  0  0  0  0
 13 18  1  0  0  0  0
 14 16  1  0  0  0  0
  1 20  1  0  0  0  0
  2 21  1  0  0  0  0
  3 22  1  0  0  0  0
  4 23  1  0  0  0  0
  5 24  1  0  0  0  0
  6 25  1  0  0  0  0
  7 26  1  0  0  0  0
 13 27  1  0  0  0  0
 13 28  1  0  0  0  0
 13 29  1  0  0  0  0
 14 30  1  0  0  0  0
 14 31  1  0  0  0  0
 16 32  1  0  0  0  0
M  END
> <idnumber>
Z27725043

> <heavy_atoms>
19

> <LogS>
-4.3

> <LogP>
3.235

> <rotating_bonds>
4

> <PSA>
41.99

> <hb_acceptors>
2

> <hb_donors>
1

> <Collection>
Functional

> <link>
https://www.enaminestore.com/catalog/Z27725043

> <ROCS_ShapeQuery>
_x1140_x0812_0A_x1140_0A_x1097_0A_x0365_0A_x1097_0A_x0310_0A

> <ROCS_TanimotoCombo>
0.636 

> <ROCS_ShapeTanimoto>
0.216 

> <ROCS_ColorTanimoto>
0.420 

> <ROCS_RefTversky>
0.200 

> <ROCS_RefColorTversky>
0.524 

> <ROCS_RefTverskyCombo>
0.724 

> <ROCS_FitTversky>
1.564 

> <ROCS_FitColorTversky>
0.678 

> <ROCS_FitTverskyCombo>
2.242 

> <ROCS_ColorScore>
-4.138

> <ROCS_Overlap>
2057.052

> <ROCS_Rank>
269                 

$$$$
untitled-dbase-335448_108
  -OEChem-02092421083D

 32 33  0     0  0  0  0  0  0999 V2000
    8.3572   12.6572   24.1220 C   0  0  0  0  0  0  0  0  0  0  0  0
    7.3662   12.0693   24.9002 C   0  0  0  0  0  0  0  0  0  0  0  0
   11.5583   15.6960   21.7216 C   0  0  0  0  0  0  0  0  0  0  0  0
    9.2709   10.4941   23.7441 C   0  0  0  0  0  0  0  0  0  0  0  0
   12.2571   15.2356   23.8351 C   0  0  0  0  0  0  0  0  0  0  0  0
   10.9053   14.4829   21.6405 C   0  0  0  0  0  0  0  0  0  0  0  0
    9.3314   11.8616   23.5294 C   0  0  0  0  0  0  0  0  0  0  0  0
    7.3936   10.6924   25.0534 C   0  0  0  0  0  0  0  0  0  0  0  0
   10.9925   13.6819   22.7608 C   0  0  0  0  0  0  0  0  0  0  0  0
   10.1845   14.1116   20.4334 C   0  0  0  0  0  0  0  0  0  0  0  0
    5.7672   10.7938   26.9429 C   0  0  0  0  0  0  0  0  0  0  0  0
    8.9562   14.9732   18.5782 C   0  0  0  0  0  0  0  0  0  0  0  0
   12.2462   16.1058   22.8075 N   0  0  0  0  0  0  0  0  0  0  0  0
    8.3238    9.8869   24.4935 N   0  0  0  0  0  0  0  0  0  0  0  0
   11.6627   14.0279   23.8795 N   0  0  0  0  0  0  0  0  0  0  0  0
   10.3455   12.4265   22.7389 N   0  0  0  0  0  0  0  0  0  0  0  0
    6.3776   10.1087   25.8508 N   0  0  0  0  0  0  0  0  0  0  0  0
   10.0336   12.9480   20.0377 O   0  0  0  0  0  0  0  0  0  0  0  0
    9.6894   15.2100   19.7848 O   0  0  0  0  0  0  0  0  0  0  0  0
    8.3612   13.7350   23.9834 H   0  0  0  0  0  0  0  0  0  0  0  0
    6.6024   12.6826   25.3669 H   0  0  0  0  0  0  0  0  0  0  0  0
   11.5533   16.4010   20.8960 H   0  0  0  0  0  0  0  0  0  0  0  0
   10.0035    9.8215   23.3080 H   0  0  0  0  0  0  0  0  0  0  0  0
   12.8032   15.5385   24.7199 H   0  0  0  0  0  0  0  0  0  0  0  0
    6.2075   11.7973   27.0391 H   0  0  0  0  0  0  0  0  0  0  0  0
    4.6861   10.8838   26.7610 H   0  0  0  0  0  0  0  0  0  0  0  0
    5.9370   10.2286   27.8712 H   0  0  0  0  0  0  0  0  0  0  0  0
    8.6188   15.9260   18.1631 H   0  0  0  0  0  0  0  0  0  0  0  0
    8.0973   14.3323   18.7925 H   0  0  0  0  0  0  0  0  0  0  0  0
    9.6091   14.4751   17.8575 H   0  0  0  0  0  0  0  0  0  0  0  0
   10.6843   11.8119   22.0012 H   0  0  0  0  0  0  0  0  0  0  0  0
    6.1013    9.1782   25.6129 H   0  0  0  0  0  0  0  0  0  0  0  0
  1  2  2  0  0  0  0
  1  7  1  0  0  0  0
  2  8  1  0  0  0  0
  3  6  1  0  0  0  0
  3 13  2  0  0  0  0
  4  7  2  0  0  0  0
  4 14  1  0  0  0  0
  5 13  1  0  0  0  0
  5 15  2  0  0  0  0
  6  9  2  0  0  0  0
  6 10  1  0  0  0  0
  7 16  1  0  0  0  0
  8 14  2  0  0  0  0
  8 17  1  0  0  0  0
  9 15  1  0  0  0  0
  9 16  1  0  0  0  0
 10 18  2  0  0  0  0
 10 19  1  0  0  0  0
 11 17  1  0  0  0  0
 12 19  1  0  0  0  0
  1 20  1  0  0  0  0
  2 21  1  0  0  0  0
  3 22  1  0  0  0  0
  4 23  1  0  0  0  0
  5 24  1  0  0  0  0
 11 25  1  0  0  0  0
 11 26  1  0  0  0  0
 11 27  1  0  0  0  0
 12 28  1  0  0  0  0
 12 29  1  0  0  0  0
 12 30  1  0  0  0  0
 16 31  1  0  0  0  0
 17 32  1  0  0  0  0
M  END
> <idnumber>
Z2034494235

> <heavy_atoms>
19

> <LogS>
-2.072

> <LogP>
2.085

> <rotating_bonds>
5

> <PSA>
89.03

> <hb_acceptors>
6

> <hb_donors>
2

> <Collection>
HTS

> <link>
https://www.enaminestore.com/catalog/Z2034494235

> <ROCS_ShapeQuery>
_x1140_x0812_0A_x1140_0A_x1097_0A_x0365_0A_x1097_0A_x0310_0A

> <ROCS_TanimotoCombo>
0.636 

> <ROCS_ShapeTanimoto>
0.236 

> <ROCS_ColorTanimoto>
0.400 

> <ROCS_RefTversky>
0.216 

> <ROCS_RefColorTversky>
0.572 

> <ROCS_RefTverskyCombo>
0.788 

> <ROCS_FitTversky>
1.630 

> <ROCS_FitColorTversky>
0.571 

> <ROCS_FitTverskyCombo>
2.202 

> <ROCS_ColorScore>
-4.573

> <ROCS_Overlap>
2216.324

> <ROCS_Rank>
270                 

$$$$
untitled-dbase-290772_36
  -OEChem-02092421083D

 32 33  0     0  0  0  0  0  0999 V2000
   12.6626   13.9862   19.5638 C   0  0  0  0  0  0  0  0  0  0  0  0
    8.0563   11.9336   25.5355 C   0  0  0  0  0  0  0  0  0  0  0  0
    8.8237   12.3541   24.4549 C   0  0  0  0  0  0  0  0  0  0  0  0
   13.4327   15.0476   20.0390 C   0  0  0  0  0  0  0  0  0  0  0  0
   11.8079   13.3026   20.4286 C   0  0  0  0  0  0  0  0  0  0  0  0
   12.4937   14.7417   22.2440 C   0  0  0  0  0  0  0  0  0  0  0  0
    7.6978   10.5965   25.5950 C   0  0  0  0  0  0  0  0  0  0  0  0
    9.2037   11.4377   23.4807 C   0  0  0  0  0  0  0  0  0  0  0  0
   13.3483   15.4253   21.3791 C   0  0  0  0  0  0  0  0  0  0  0  0
   11.7235   13.6803   21.7687 C   0  0  0  0  0  0  0  0  0  0  0  0
    8.7940   10.1228   23.6324 C   0  0  0  0  0  0  0  0  0  0  0  0
   10.0170   11.9100   22.3471 C   0  0  0  0  0  0  0  0  0  0  0  0
   11.0334    8.9693   22.5517 C   0  0  0  0  0  0  0  0  0  0  0  0
   14.1719   16.5601   21.8867 C   0  0  0  0  0  0  0  0  0  0  0  0
    8.0481    9.6770   24.6680 N   0  0  0  0  0  0  0  0  0  0  0  0
   10.8680   12.9967   22.6333 N   0  0  0  0  0  0  0  0  0  0  0  0
    9.9128   11.3952   21.2358 O   0  0  0  0  0  0  0  0  0  0  0  0
   14.9605   17.1351   20.9308 F   0  0  0  0  0  0  0  0  0  0  0  0
   13.4314   17.5862   22.4012 F   0  0  0  0  0  0  0  0  0  0  0  0
   15.0228   16.1858   22.8862 F   0  0  0  0  0  0  0  0  0  0  0  0
    9.2351    8.8726   22.4305 S   0  0  0  0  0  0  0  0  0  0  0  0
   12.7279   13.6923   18.5202 H   0  0  0  0  0  0  0  0  0  0  0  0
    7.7483   12.6301   26.3065 H   0  0  0  0  0  0  0  0  0  0  0  0
    9.1185   13.3980   24.3848 H   0  0  0  0  0  0  0  0  0  0  0  0
   14.0960   15.5736   19.3579 H   0  0  0  0  0  0  0  0  0  0  0  0
   11.2124   12.4768   20.0473 H   0  0  0  0  0  0  0  0  0  0  0  0
   12.4302   15.0376   23.2889 H   0  0  0  0  0  0  0  0  0  0  0  0
    7.0990   10.2185   26.4171 H   0  0  0  0  0  0  0  0  0  0  0  0
   11.4913    8.2525   21.8657 H   0  0  0  0  0  0  0  0  0  0  0  0
   11.3495    8.7382   23.5719 H   0  0  0  0  0  0  0  0  0  0  0  0
   11.3691    9.9764   22.2929 H   0  0  0  0  0  0  0  0  0  0  0  0
   10.8569   13.3284   23.6046 H   0  0  0  0  0  0  0  0  0  0  0  0
  1  4  1  0  0  0  0
  1  5  2  0  0  0  0
  2  3  2  0  0  0  0
  2  7  1  0  0  0  0
  3  8  1  0  0  0  0
  4  9  2  0  0  0  0
  5 10  1  0  0  0  0
  6  9  1  0  0  0  0
  6 10  2  0  0  0  0
  7 15  2  0  0  0  0
  8 11  2  0  0  0  0
  8 12  1  0  0  0  0
  9 14  1  0  0  0  0
 10 16  1  0  0  0  0
 11 15  1  0  0  0  0
 11 21  1  0  0  0  0
 12 16  1  0  0  0  0
 12 17  2  0  0  0  0
 13 21  1  0  0  0  0
 14 18  1  0  0  0  0
 14 19  1  0  0  0  0
 14 20  1  0  0  0  0
  1 22  1  0  0  0  0
  2 23  1  0  0  0  0
  3 24  1  0  0  0  0
  4 25  1  0  0  0  0
  5 26  1  0  0  0  0
  6 27  1  0  0  0  0
  7 28  1  0  0  0  0
 13 29  1  0  0  0  0
 13 30  1  0  0  0  0
 13 31  1  0  0  0  0
 16 32  1  0  0  0  0
M  END
> <idnumber>
Z28170072

> <heavy_atoms>
21

> <LogS>
-4.75

> <LogP>
3.383

> <rotating_bonds>
4

> <PSA>
41.99

> <hb_acceptors>
2

> <hb_donors>
1

> <Collection>
Functional

> <link>
https://www.enaminestore.com/catalog/Z28170072

> <ROCS_ShapeQuery>
_x1140_x0812_0A_x1140_0A_x1097_0A_x0365_0A_x1097_0A_x0310_0A

> <ROCS_TanimotoCombo>
0.636 

> <ROCS_ShapeTanimoto>
0.218 

> <ROCS_ColorTanimoto>
0.418 

> <ROCS_RefTversky>
0.204 

> <ROCS_RefColorTversky>
0.522 

> <ROCS_RefTverskyCombo>
0.726 

> <ROCS_FitTversky>
1.465 

> <ROCS_FitColorTversky>
0.676 

> <ROCS_FitTverskyCombo>
2.141 

> <ROCS_ColorScore>
-4.126

> <ROCS_Overlap>
2090.278

> <ROCS_Rank>
271                 

$$$$
untitled-dbase-1044252_81
  -OEChem-02092421083D

 39 40  0     1  0  0  0  0  0999 V2000
   13.9023   15.4899   24.3608 C   0  0  0  0  0  0  0  0  0  0  0  0
    8.8993   12.4779   24.1616 C   0  0  0  0  0  0  0  0  0  0  0  0
   13.8556   14.1982   23.8483 C   0  0  0  0  0  0  0  0  0  0  0  0
    7.9235   12.2331   25.1214 C   0  0  0  0  0  0  0  0  0  0  0  0
   13.0560   16.4378   23.8084 C   0  0  0  0  0  0  0  0  0  0  0  0
   12.1715   14.9173   22.3306 C   0  0  0  0  0  0  0  0  0  0  0  0
    9.4832   11.4130   23.4846 C   0  0  0  0  0  0  0  0  0  0  0  0
   12.9765   13.8981   22.8136 C   0  0  0  0  0  0  0  0  0  0  0  0
    7.5696   10.9158   25.3652 C   0  0  0  0  0  0  0  0  0  0  0  0
    9.0597   10.1324   23.8018 C   0  0  0  0  0  0  0  0  0  0  0  0
   10.5163   11.6701   22.4687 C   0  0  0  0  0  0  0  0  0  0  0  0
    9.6504    8.9481   23.1078 C   0  0  0  0  0  0  0  0  0  0  0  0
   14.2359   11.7630   22.3099 C   0  0  0  0  0  0  0  0  0  0  0  0
   12.2737   10.9228   24.0267 C   0  0  0  0  0  0  0  0  0  0  0  0
   12.9013   12.5018   22.2346 C   0  0  1  0  0  0  0  0  0  0  0  0
    6.5260   10.6155   26.3889 C   0  0  0  0  0  0  0  0  0  0  0  0
   12.1888   16.1839   22.8029 N   0  0  0  0  0  0  0  0  0  0  0  0
    8.1145    9.8554   24.7279 N   0  0  0  0  0  0  0  0  0  0  0  0
   11.8533   11.7123   22.8777 N   0  0  0  0  0  0  0  0  0  0  0  0
   10.1191   11.8183   21.3136 O   0  0  0  0  0  0  0  0  0  0  0  0
    6.0179   11.7292   26.9943 F   0  0  0  0  0  0  0  0  0  0  0  0
    5.4411    9.9568   25.8853 F   0  0  0  0  0  0  0  0  0  0  0  0
    6.9953    9.8297   27.4009 F   0  0  0  0  0  0  0  0  0  0  0  0
   14.5795   15.7465   25.1674 H   0  0  0  0  0  0  0  0  0  0  0  0
    9.1963   13.5018   23.9501 H   0  0  0  0  0  0  0  0  0  0  0  0
   14.5070   13.4326   24.2609 H   0  0  0  0  0  0  0  0  0  0  0  0
    7.4603   13.0549   25.6568 H   0  0  0  0  0  0  0  0  0  0  0  0
   13.0546   17.4598   24.1729 H   0  0  0  0  0  0  0  0  0  0  0  0
   11.4660   14.7428   21.5242 H   0  0  0  0  0  0  0  0  0  0  0  0
   10.5278    8.5864   23.6558 H   0  0  0  0  0  0  0  0  0  0  0  0
    8.9231    8.1307   23.0322 H   0  0  0  0  0  0  0  0  0  0  0  0
    9.9555    9.2006   22.0851 H   0  0  0  0  0  0  0  0  0  0  0  0
   14.5763   11.6679   23.3469 H   0  0  0  0  0  0  0  0  0  0  0  0
   14.1411   10.7551   21.8902 H   0  0  0  0  0  0  0  0  0  0  0  0
   15.0208   12.2753   21.7422 H   0  0  0  0  0  0  0  0  0  0  0  0
   12.5967    9.9268   23.6895 H   0  0  0  0  0  0  0  0  0  0  0  0
   13.1102   11.4278   24.5320 H   0  0  0  0  0  0  0  0  0  0  0  0
   11.4320   10.8176   24.7269 H   0  0  0  0  0  0  0  0  0  0  0  0
   12.6133   12.5658   21.1780 H   0  0  0  0  0  0  0  0  0  0  0  0
  1  3  2  0  0  0  0
  1  5  1  0  0  0  0
  2  4  2  0  0  0  0
  2  7  1  0  0  0  0
  3  8  1  0  0  0  0
  4  9  1  0  0  0  0
  5 17  2  0  0  0  0
  6  8  2  0  0  0  0
  6 17  1  0  0  0  0
  7 10  2  0  0  0  0
  7 11  1  0  0  0  0
  8 15  1  0  0  0  0
  9 16  1  0  0  0  0
  9 18  2  0  0  0  0
 10 12  1  0  0  0  0
 10 18  1  0  0  0  0
 11 19  1  0  0  0  0
 11 20  2  0  0  0  0
 13 15  1  6  0  0  0
 14 19  1  0  0  0  0
 15 19  1  0  0  0  0
 16 21  1  0  0  0  0
 16 22  1  0  0  0  0
 16 23  1  0  0  0  0
  1 24  1  0  0  0  0
  2 25  1  0  0  0  0
  3 26  1  0  0  0  0
  4 27  1  0  0  0  0
  5 28  1  0  0  0  0
  6 29  1  0  0  0  0
 12 30  1  0  0  0  0
 12 31  1  0  0  0  0
 12 32  1  0  0  0  0
 13 33  1  0  0  0  0
 13 34  1  0  0  0  0
 13 35  1  0  0  0  0
 14 36  1  0  0  0  0
 14 37  1  0  0  0  0
 14 38  1  0  0  0  0
 15 39  1  0  0  0  0
M  END
> <idnumber>
Z3592313629

> <heavy_atoms>
23

> <LogS>
-2.749

> <LogP>
1.953

> <rotating_bonds>
4

> <PSA>
46.09

> <hb_acceptors>
3

> <hb_donors>
0

> <Collection>
Advanced

> <link>
https://www.enaminestore.com/catalog/Z3592313629

> <ROCS_ShapeQuery>
_x1140_x0812_0A_x1140_0A_x1097_0A_x0365_0A_x1097_0A_x0310_0A

> <ROCS_TanimotoCombo>
0.636 

> <ROCS_ShapeTanimoto>
0.269 

> <ROCS_ColorTanimoto>
0.367 

> <ROCS_RefTversky>
0.244 

> <ROCS_RefColorTversky>
0.444 

> <ROCS_RefTverskyCombo>
0.688 

> <ROCS_FitTversky>
1.637 

> <ROCS_FitColorTversky>
0.677 

> <ROCS_FitTverskyCombo>
2.314 

> <ROCS_ColorScore>
-3.487

> <ROCS_Overlap>
2501.716

> <ROCS_Rank>
272                 

$$$$
untitled-dbase-958397_33
  -OEChem-02092421083D

 37 38  0     0  0  0  0  0  0999 V2000
    8.0284   12.2535   24.6833 C   0  0  0  0  0  0  0  0  0  0  0  0
    9.3678   11.9738   24.5637 C   0  0  0  0  0  0  0  0  0  0  0  0
    7.3943   11.0042   24.5462 C   0  0  0  0  0  0  0  0  0  0  0  0
   10.2163   14.4231   24.9543 C   0  0  0  0  0  0  0  0  0  0  0  0
   10.6277   14.0452   23.5657 C   0  0  0  0  0  0  0  0  0  0  0  0
   10.5193   12.9721   24.6324 C   0  0  0  0  0  0  0  0  0  0  0  0
   10.0127    8.4898   22.1102 C   0  0  0  0  0  0  0  0  0  0  0  0
   12.4536    8.7600   22.6309 C   0  0  0  0  0  0  0  0  0  0  0  0
   11.5486   10.3190   20.1457 C   0  0  0  0  0  0  0  0  0  0  0  0
   10.7141    9.8198   24.1834 C   0  0  0  0  0  0  0  0  0  0  0  0
    5.9496   10.7227   24.5912 C   0  0  0  0  0  0  0  0  0  0  0  0
   11.0691    9.4138   22.7301 C   0  0  0  0  0  0  0  0  0  0  0  0
    8.2597   10.0051   24.3539 N   0  0  0  0  0  0  0  0  0  0  0  0
    9.4513   10.6264   24.3694 N   0  0  0  0  0  0  0  0  0  0  0  0
    9.7599   11.4265   21.6970 O   0  0  0  0  0  0  0  0  0  0  0  0
   12.2046   11.7193   22.2531 O   0  0  0  0  0  0  0  0  0  0  0  0
    5.1628   11.8307   24.7916 F   0  0  0  0  0  0  0  0  0  0  0  0
    5.4483   10.1539   23.4459 F   0  0  0  0  0  0  0  0  0  0  0  0
    5.5952    9.8569   25.5951 F   0  0  0  0  0  0  0  0  0  0  0  0
   11.1111   10.9289   21.7478 S   0  0  0  0  0  0  0  0  0  0  0  0
    7.5764   13.2215   24.8467 H   0  0  0  0  0  0  0  0  0  0  0  0
   10.9288   14.9674   25.5622 H   0  0  0  0  0  0  0  0  0  0  0  0
    9.1840   14.7111   25.1126 H   0  0  0  0  0  0  0  0  0  0  0  0
    9.8724   14.0773   22.7897 H   0  0  0  0  0  0  0  0  0  0  0  0
   11.6183   14.3338   23.2356 H   0  0  0  0  0  0  0  0  0  0  0  0
   11.4579   12.5771   25.0184 H   0  0  0  0  0  0  0  0  0  0  0  0
    9.0137    8.9361   22.1693 H   0  0  0  0  0  0  0  0  0  0  0  0
    9.9821    7.5155   22.6083 H   0  0  0  0  0  0  0  0  0  0  0  0
   10.2227    8.3067   21.0498 H   0  0  0  0  0  0  0  0  0  0  0  0
   13.2258    9.4035   23.0685 H   0  0  0  0  0  0  0  0  0  0  0  0
   12.7397    8.5699   21.5916 H   0  0  0  0  0  0  0  0  0  0  0  0
   12.4810    7.8083   23.1733 H   0  0  0  0  0  0  0  0  0  0  0  0
   11.6036   11.1647   19.4585 H   0  0  0  0  0  0  0  0  0  0  0  0
   12.5172    9.8222   20.2191 H   0  0  0  0  0  0  0  0  0  0  0  0
   10.7804    9.6141   19.8241 H   0  0  0  0  0  0  0  0  0  0  0  0
   10.6413    8.9176   24.8075 H   0  0  0  0  0  0  0  0  0  0  0  0
   11.5505   10.3847   24.6195 H   0  0  0  0  0  0  0  0  0  0  0  0
  1  2  2  0  0  0  0
  1  3  1  0  0  0  0
  2  6  1  0  0  0  0
  2 14  1  0  0  0  0
  3 11  1  0  0  0  0
  3 13  2  0  0  0  0
  4  5  1  0  0  0  0
  4  6  1  0  0  0  0
  5  6  1  0  0  0  0
  7 12  1  0  0  0  0
  8 12  1  0  0  0  0
  9 20  1  0  0  0  0
 10 12  1  0  0  0  0
 10 14  1  0  0  0  0
 11 17  1  0  0  0  0
 11 18  1  0  0  0  0
 11 19  1  0  0  0  0
 12 20  1  0  0  0  0
 13 14  1  0  0  0  0
 15 20  2  0  0  0  0
 16 20  2  0  0  0  0
  1 21  1  0  0  0  0
  4 22  1  0  0  0  0
  4 23  1  0  0  0  0
  5 24  1  0  0  0  0
  5 25  1  0  0  0  0
  6 26  1  0  0  0  0
  7 27  1  0  0  0  0
  7 28  1  0  0  0  0
  7 29  1  0  0  0  0
  8 30  1  0  0  0  0
  8 31  1  0  0  0  0
  8 32  1  0  0  0  0
  9 33  1  0  0  0  0
  9 34  1  0  0  0  0
  9 35  1  0  0  0  0
 10 36  1  0  0  0  0
 10 37  1  0  0  0  0
M  END
> <idnumber>
Z2790100375

> <heavy_atoms>
20

> <LogS>
-2.772

> <LogP>
1.64

> <rotating_bonds>
5

> <PSA>
51.96

> <hb_acceptors>
3

> <hb_donors>
0

> <Collection>
HTS

> <link>
https://www.enaminestore.com/catalog/Z2790100375

> <ROCS_ShapeQuery>
_x1140_x0812_0A_x1140_0A_x1097_0A_x0365_0A_x1097_0A_x0310_0A

> <ROCS_TanimotoCombo>
0.635 

> <ROCS_ShapeTanimoto>
0.230 

> <ROCS_ColorTanimoto>
0.406 

> <ROCS_RefTversky>
0.212 

> <ROCS_RefColorTversky>
0.478 

> <ROCS_RefTverskyCombo>
0.690 

> <ROCS_FitTversky>
1.601 

> <ROCS_FitColorTversky>
0.728 

> <ROCS_FitTverskyCombo>
2.329 

> <ROCS_ColorScore>
-3.752

> <ROCS_Overlap>
2171.204

> <ROCS_Rank>
273                 

$$$$
untitled-dbase-297230_36
  -OEChem-02092421083D

 33 34  0     0  0  0  0  0  0999 V2000
   12.3251   15.3169   22.1387 C   0  0  0  0  0  0  0  0  0  0  0  0
    7.8198   12.1223   25.2133 C   0  0  0  0  0  0  0  0  0  0  0  0
    8.4601   12.4430   24.0215 C   0  0  0  0  0  0  0  0  0  0  0  0
    7.7372   10.7848   25.5656 C   0  0  0  0  0  0  0  0  0  0  0  0
   12.3065   14.3682   21.0678 C   0  0  0  0  0  0  0  0  0  0  0  0
    8.9908   11.4308   23.2296 C   0  0  0  0  0  0  0  0  0  0  0  0
   13.0060   14.5130   19.8350 C   0  0  0  0  0  0  0  0  0  0  0  0
   12.8011   13.4409   18.9947 C   0  0  0  0  0  0  0  0  0  0  0  0
    8.8560   10.1243   23.6708 C   0  0  0  0  0  0  0  0  0  0  0  0
   11.5933   13.1907   21.1227 C   0  0  0  0  0  0  0  0  0  0  0  0
    9.6571   11.7948   21.9860 C   0  0  0  0  0  0  0  0  0  0  0  0
   13.8580   15.6791   19.4878 C   0  0  0  0  0  0  0  0  0  0  0  0
   13.3413   13.2070   17.6369 C   0  0  0  0  0  0  0  0  0  0  0  0
   11.2526    9.2158   22.6992 C   0  0  0  0  0  0  0  0  0  0  0  0
   12.3403   16.0863   23.0074 N   0  0  0  0  0  0  0  0  0  0  0  0
    8.2406    9.7739   24.8225 N   0  0  0  0  0  0  0  0  0  0  0  0
   10.7676   12.6383   22.1341 N   0  0  0  0  0  0  0  0  0  0  0  0
    9.2380   11.4071   20.8882 O   0  0  0  0  0  0  0  0  0  0  0  0
   11.7688   12.2660   19.6922 S   0  0  0  0  0  0  0  0  0  0  0  0
    9.5074    8.7556   22.7199 S   0  0  0  0  0  0  0  0  0  0  0  0
    7.3984   12.8944   25.8464 H   0  0  0  0  0  0  0  0  0  0  0  0
    8.5385   13.4851   23.7225 H   0  0  0  0  0  0  0  0  0  0  0  0
    7.2471   10.4822   26.4851 H   0  0  0  0  0  0  0  0  0  0  0  0
   14.8965   15.5087   19.8042 H   0  0  0  0  0  0  0  0  0  0  0  0
   13.8568   15.8729   18.4050 H   0  0  0  0  0  0  0  0  0  0  0  0
   13.4991   16.6002   19.9704 H   0  0  0  0  0  0  0  0  0  0  0  0
   14.3013   12.6701   17.6826 H   0  0  0  0  0  0  0  0  0  0  0  0
   12.6503   12.6126   17.0175 H   0  0  0  0  0  0  0  0  0  0  0  0
   13.5071   14.1513   17.0935 H   0  0  0  0  0  0  0  0  0  0  0  0
   11.8270    8.4706   22.1434 H   0  0  0  0  0  0  0  0  0  0  0  0
   11.6342    9.2699   23.7218 H   0  0  0  0  0  0  0  0  0  0  0  0
   11.3737   10.1905   22.2204 H   0  0  0  0  0  0  0  0  0  0  0  0
   11.0120   12.8855   23.0899 H   0  0  0  0  0  0  0  0  0  0  0  0
  1  5  1  0  0  0  0
  1 15  3  0  0  0  0
  2  3  2  0  0  0  0
  2  4  1  0  0  0  0
  3  6  1  0  0  0  0
  4 16  2  0  0  0  0
  5  7  1  0  0  0  0
  5 10  2  0  0  0  0
  6  9  2  0  0  0  0
  6 11  1  0  0  0  0
  7  8  2  0  0  0  0
  7 12  1  0  0  0  0
  8 13  1  0  0  0  0
  8 19  1  0  0  0  0
  9 16  1  0  0  0  0
  9 20  1  0  0  0  0
 10 17  1  0  0  0  0
 10 19  1  0  0  0  0
 11 17  1  0  0  0  0
 11 18  2  0  0  0  0
 14 20  1  0  0  0  0
  2 21  1  0  0  0  0
  3 22  1  0  0  0  0
  4 23  1  0  0  0  0
 12 24  1  0  0  0  0
 12 25  1  0  0  0  0
 12 26  1  0  0  0  0
 13 27  1  0  0  0  0
 13 28  1  0  0  0  0
 13 29  1  0  0  0  0
 14 30  1  0  0  0  0
 14 31  1  0  0  0  0
 14 32  1  0  0  0  0
 17 33  1  0  0  0  0
M  END
> <idnumber>
Z28750883

> <heavy_atoms>
20

> <LogS>
-4.93

> <LogP>
2.071

> <rotating_bonds>
3

> <PSA>
65.78

> <hb_acceptors>
3

> <hb_donors>
1

> <Collection>
Functional

> <link>
https://www.enaminestore.com/catalog/Z28750883

> <ROCS_ShapeQuery>
_x1140_x0812_0A_x1140_0A_x1097_0A_x0365_0A_x1097_0A_x0310_0A

> <ROCS_TanimotoCombo>
0.635 

> <ROCS_ShapeTanimoto>
0.214 

> <ROCS_ColorTanimoto>
0.422 

> <ROCS_RefTversky>
0.199 

> <ROCS_RefColorTversky>
0.560 

> <ROCS_RefTverskyCombo>
0.759 

> <ROCS_FitTversky>
1.512 

> <ROCS_FitColorTversky>
0.631 

> <ROCS_FitTverskyCombo>
2.143 

> <ROCS_ColorScore>
-4.449

> <ROCS_Overlap>
2045.162

> <ROCS_Rank>
274                 

$$$$
untitled-dbase-1105698_41
  -OEChem-02092421083D

 29 30  0     0  0  0  0  0  0999 V2000
   14.1420   16.5544   24.3179 C   0  0  0  0  0  0  0  0  0  0  0  0
    8.2335   12.4830   24.3292 C   0  0  0  0  0  0  0  0  0  0  0  0
   13.2863   17.0840   23.3654 C   0  0  0  0  0  0  0  0  0  0  0  0
    8.8307   10.3000   23.5980 C   0  0  0  0  0  0  0  0  0  0  0  0
    9.0035   11.6715   23.5034 C   0  0  0  0  0  0  0  0  0  0  0  0
   13.2242   14.3915   23.8042 C   0  0  0  0  0  0  0  0  0  0  0  0
   14.1042   15.1816   24.5354 C   0  0  0  0  0  0  0  0  0  0  0  0
    7.3269   11.9063   25.2117 C   0  0  0  0  0  0  0  0  0  0  0  0
   12.4095   15.0179   22.8749 C   0  0  0  0  0  0  0  0  0  0  0  0
    7.2290   10.5243   25.2296 C   0  0  0  0  0  0  0  0  0  0  0  0
    9.9593   12.2429   22.5709 C   0  0  0  0  0  0  0  0  0  0  0  0
   11.4467   14.1986   22.0650 C   0  0  0  0  0  0  0  0  0  0  0  0
   12.4179   16.3484   22.6357 N   0  0  0  0  0  0  0  0  0  0  0  0
    7.9602    9.7034   24.4428 N   0  0  0  0  0  0  0  0  0  0  0  0
    6.3103    9.9184   26.1224 N   0  0  0  0  0  0  0  0  0  0  0  0
   10.5029   13.4911   22.9002 N   0  0  0  0  0  0  0  0  0  0  0  0
   10.2541   11.6444   21.5201 O   0  0  0  0  0  0  0  0  0  0  0  0
   13.1631   13.0659   23.9891 F   0  0  0  0  0  0  0  0  0  0  0  0
   15.1427   14.4705   25.7082 Cl  0  0  0  0  0  0  0  0  0  0  0  0
    6.3804   12.9260   26.2281 Cl  0  0  0  0  0  0  0  0  0  0  0  0
   14.8172   17.2018   24.8675 H   0  0  0  0  0  0  0  0  0  0  0  0
    8.3441   13.5640   24.2806 H   0  0  0  0  0  0  0  0  0  0  0  0
   13.2766   18.1487   23.1570 H   0  0  0  0  0  0  0  0  0  0  0  0
    9.4031    9.6153   22.9794 H   0  0  0  0  0  0  0  0  0  0  0  0
   10.8783   14.8366   21.3795 H   0  0  0  0  0  0  0  0  0  0  0  0
   11.9760   13.4579   21.4565 H   0  0  0  0  0  0  0  0  0  0  0  0
    5.7930   10.4977   26.7470 H   0  0  0  0  0  0  0  0  0  0  0  0
    6.2717    8.9236   26.1709 H   0  0  0  0  0  0  0  0  0  0  0  0
   10.1815   13.9655   23.7377 H   0  0  0  0  0  0  0  0  0  0  0  0
  1  3  1  0  0  0  0
  1  7  2  0  0  0  0
  2  5  2  0  0  0  0
  2  8  1  0  0  0  0
  3 13  2  0  0  0  0
  4  5  1  0  0  0  0
  4 14  2  0  0  0  0
  5 11  1  0  0  0  0
  6  7  1  0  0  0  0
  6  9  2  0  0  0  0
  6 18  1  0  0  0  0
  7 19  1  0  0  0  0
  8 10  2  0  0  0  0
  8 20  1  0  0  0  0
  9 12  1  0  0  0  0
  9 13  1  0  0  0  0
 10 14  1  0  0  0  0
 10 15  1  0  0  0  0
 11 16  1  0  0  0  0
 11 17  2  0  0  0  0
 12 16  1  0  0  0  0
  1 21  1  0  0  0  0
  2 22  1  0  0  0  0
  3 23  1  0  0  0  0
  4 24  1  0  0  0  0
 12 25  1  0  0  0  0
 12 26  1  0  0  0  0
 15 27  1  0  0  0  0
 15 28  1  0  0  0  0
 16 29  1  0  0  0  0
M  END
> <idnumber>
Z4952311812

> <heavy_atoms>
20

> <LogS>
-3.434

> <LogP>
2.037

> <rotating_bonds>
3

> <PSA>
80.9

> <hb_acceptors>
4

> <hb_donors>
2

> <Collection>
Advanced

> <link>
https://www.enaminestore.com/catalog/Z4952311812

> <ROCS_ShapeQuery>
_x1140_x0812_0A_x1140_0A_x1097_0A_x0365_0A_x1097_0A_x0310_0A

> <ROCS_TanimotoCombo>
0.635 

> <ROCS_ShapeTanimoto>
0.236 

> <ROCS_ColorTanimoto>
0.399 

> <ROCS_RefTversky>
0.217 

> <ROCS_RefColorTversky>
0.571 

> <ROCS_RefTverskyCombo>
0.787 

> <ROCS_FitTversky>
1.612 

> <ROCS_FitColorTversky>
0.570 

> <ROCS_FitTverskyCombo>
2.182 

> <ROCS_ColorScore>
-4.565

> <ROCS_Overlap>
2225.894

> <ROCS_Rank>
275                 

$$$$
untitled-dbase-111860_46
  -OEChem-02092421083D

 35 35  0     0  0  0  0  0  0999 V2000
    8.8461   12.2350   24.7796 C   0  0  0  0  0  0  0  0  0  0  0  0
    7.4045   10.6061   25.3321 C   0  0  0  0  0  0  0  0  0  0  0  0
    8.9695   10.2361   23.7666 C   0  0  0  0  0  0  0  0  0  0  0  0
   11.7642    9.7892   23.8048 C   0  0  0  0  0  0  0  0  0  0  0  0
   11.4414    8.1109   21.9982 C   0  0  0  0  0  0  0  0  0  0  0  0
   12.5896   11.3146   21.5323 C   0  0  0  0  0  0  0  0  0  0  0  0
   11.0451   10.1217   19.9847 C   0  0  0  0  0  0  0  0  0  0  0  0
    9.3525   13.6259   24.9572 C   0  0  0  0  0  0  0  0  0  0  0  0
   10.9898    9.4985   22.5017 C   0  0  0  0  0  0  0  0  0  0  0  0
   11.2161   10.6277   21.4282 C   0  0  0  0  0  0  0  0  0  0  0  0
    7.8048   11.8699   25.5451 N   0  0  0  0  0  0  0  0  0  0  0  0
    9.4782   11.4743   23.8714 N   0  0  0  0  0  0  0  0  0  0  0  0
    7.9368    9.7330   24.4620 N   0  0  0  0  0  0  0  0  0  0  0  0
    6.3115   10.1497   26.1007 N   0  0  0  0  0  0  0  0  0  0  0  0
    9.5646    9.4013   22.8576 N   0  0  0  0  0  0  0  0  0  0  0  0
   10.2210   11.6486   21.5983 O   0  0  0  0  0  0  0  0  0  0  0  0
    8.6664   14.3434   25.8958 F   0  0  0  0  0  0  0  0  0  0  0  0
   10.6598   13.6865   25.3492 F   0  0  0  0  0  0  0  0  0  0  0  0
    9.2804   14.3621   23.8099 F   0  0  0  0  0  0  0  0  0  0  0  0
   11.4912   10.7666   24.2218 H   0  0  0  0  0  0  0  0  0  0  0  0
   11.5480    9.0390   24.5734 H   0  0  0  0  0  0  0  0  0  0  0  0
   12.8475    9.8060   23.6459 H   0  0  0  0  0  0  0  0  0  0  0  0
   10.9264    7.8393   21.0681 H   0  0  0  0  0  0  0  0  0  0  0  0
   11.2172    7.3257   22.7276 H   0  0  0  0  0  0  0  0  0  0  0  0
   12.5148    8.0785   21.7843 H   0  0  0  0  0  0  0  0  0  0  0  0
   12.7748   11.6993   22.5403 H   0  0  0  0  0  0  0  0  0  0  0  0
   13.4096   10.6461   21.2538 H   0  0  0  0  0  0  0  0  0  0  0  0
   12.6312   12.1913   20.8744 H   0  0  0  0  0  0  0  0  0  0  0  0
   10.0756    9.6229   19.8639 H   0  0  0  0  0  0  0  0  0  0  0  0
   11.7937    9.3646   19.7300 H   0  0  0  0  0  0  0  0  0  0  0  0
   11.0987   10.9336   19.2529 H   0  0  0  0  0  0  0  0  0  0  0  0
    5.9171   10.7537   26.7920 H   0  0  0  0  0  0  0  0  0  0  0  0
    6.0133    9.2007   26.0059 H   0  0  0  0  0  0  0  0  0  0  0  0
    9.0349    8.6868   22.3987 H   0  0  0  0  0  0  0  0  0  0  0  0
   10.3679   12.2843   20.8848 H   0  0  0  0  0  0  0  0  0  0  0  0
  1  8  1  0  0  0  0
  1 11  2  0  0  0  0
  1 12  1  0  0  0  0
  2 11  1  0  0  0  0
  2 13  2  0  0  0  0
  2 14  1  0  0  0  0
  3 12  2  0  0  0  0
  3 13  1  0  0  0  0
  3 15  1  0  0  0  0
  4  9  1  0  0  0  0
  5  9  1  0  0  0  0
  6 10  1  0  0  0  0
  7 10  1  0  0  0  0
  8 17  1  0  0  0  0
  8 18  1  0  0  0  0
  8 19  1  0  0  0  0
  9 10  1  0  0  0  0
  9 15  1  0  0  0  0
 10 16  1  0  0  0  0
  4 20  1  0  0  0  0
  4 21  1  0  0  0  0
  4 22  1  0  0  0  0
  5 23  1  0  0  0  0
  5 24  1  0  0  0  0
  5 25  1  0  0  0  0
  6 26  1  0  0  0  0
  6 27  1  0  0  0  0
  6 28  1  0  0  0  0
  7 29  1  0  0  0  0
  7 30  1  0  0  0  0
  7 31  1  0  0  0  0
 14 32  1  0  0  0  0
 14 33  1  0  0  0  0
 15 34  1  0  0  0  0
 16 35  1  0  0  0  0
M  END
> <idnumber>
Z2047036946

> <heavy_atoms>
19

> <LogS>
-3.149

> <LogP>
1.339

> <rotating_bonds>
4

> <PSA>
96.95

> <hb_acceptors>
6

> <hb_donors>
3

> <Collection>
Advanced

> <link>
https://www.enaminestore.com/catalog/Z2047036946

> <ROCS_ShapeQuery>
_x1140_x0812_0A_x1140_0A_x1097_0A_x0365_0A_x1097_0A_x0310_0A

> <ROCS_TanimotoCombo>
0.635 

> <ROCS_ShapeTanimoto>
0.235 

> <ROCS_ColorTanimoto>
0.400 

> <ROCS_RefTversky>
0.216 

> <ROCS_RefColorTversky>
0.667 

> <ROCS_RefTverskyCombo>
0.883 

> <ROCS_FitTversky>
1.644 

> <ROCS_FitColorTversky>
0.499 

> <ROCS_FitTverskyCombo>
2.143 

> <ROCS_ColorScore>
-5.439

> <ROCS_Overlap>
2211.988

> <ROCS_Rank>
276                 

$$$$
untitled-dbase-541013_178
  -OEChem-02092421083D

 46 48  0     0  0  0  0  0  0999 V2000
   10.4758    5.7345   22.3824 C   0  0  0  0  0  0  0  0  0  0  0  0
    9.1777    5.3014   22.1125 C   0  0  0  0  0  0  0  0  0  0  0  0
    7.5657   12.1080   25.1649 C   0  0  0  0  0  0  0  0  0  0  0  0
    8.4878   12.5306   24.2140 C   0  0  0  0  0  0  0  0  0  0  0  0
   10.7080    7.0631   22.7384 C   0  0  0  0  0  0  0  0  0  0  0  0
    8.1117    6.1969   22.1984 C   0  0  0  0  0  0  0  0  0  0  0  0
    7.4626   10.7480   25.4088 C   0  0  0  0  0  0  0  0  0  0  0  0
    9.2677   11.5936   23.5454 C   0  0  0  0  0  0  0  0  0  0  0  0
    9.6420    7.9586   22.8243 C   0  0  0  0  0  0  0  0  0  0  0  0
    8.3438    7.5255   22.5544 C   0  0  0  0  0  0  0  0  0  0  0  0
    9.0886   10.2566   23.8619 C   0  0  0  0  0  0  0  0  0  0  0  0
   10.2352   12.0497   22.5390 C   0  0  0  0  0  0  0  0  0  0  0  0
   12.5329   16.2512   23.1213 C   0  0  0  0  0  0  0  0  0  0  0  0
   12.4330   15.7343   24.5562 C   0  0  0  0  0  0  0  0  0  0  0  0
   11.3410   15.8893   22.2371 C   0  0  0  0  0  0  0  0  0  0  0  0
   12.5867   14.2253   24.7593 C   0  0  0  0  0  0  0  0  0  0  0  0
   11.6076   14.7322   21.2763 C   0  0  0  0  0  0  0  0  0  0  0  0
   11.3744   13.3843   24.3499 C   0  0  0  0  0  0  0  0  0  0  0  0
   12.1445   13.4583   21.9205 C   0  0  0  0  0  0  0  0  0  0  0  0
    8.2029    9.8080   24.7796 N   0  0  0  0  0  0  0  0  0  0  0  0
   11.2553   12.9273   22.9533 N   0  0  0  0  0  0  0  0  0  0  0  0
    9.8783    9.2948   23.1827 N   0  0  0  0  0  0  0  0  0  0  0  0
   10.0702   11.6248   21.3964 O   0  0  0  0  0  0  0  0  0  0  0  0
    7.3121    8.3777   22.6338 F   0  0  0  0  0  0  0  0  0  0  0  0
   11.3056    5.0371   22.3152 H   0  0  0  0  0  0  0  0  0  0  0  0
    8.9975    4.2668   21.8355 H   0  0  0  0  0  0  0  0  0  0  0  0
    6.9461   12.8207   25.6970 H   0  0  0  0  0  0  0  0  0  0  0  0
    8.5894   13.5918   24.0023 H   0  0  0  0  0  0  0  0  0  0  0  0
   11.7236    7.3898   22.9474 H   0  0  0  0  0  0  0  0  0  0  0  0
    7.1010    5.8599   21.9883 H   0  0  0  0  0  0  0  0  0  0  0  0
    6.7583   10.3671   26.1411 H   0  0  0  0  0  0  0  0  0  0  0  0
   12.7185   17.3297   23.1134 H   0  0  0  0  0  0  0  0  0  0  0  0
   13.4326   15.8001   22.6841 H   0  0  0  0  0  0  0  0  0  0  0  0
   13.2078   16.2293   25.1556 H   0  0  0  0  0  0  0  0  0  0  0  0
   11.4735   16.0585   24.9777 H   0  0  0  0  0  0  0  0  0  0  0  0
   10.5228   15.5707   22.8959 H   0  0  0  0  0  0  0  0  0  0  0  0
   10.9635   16.7625   21.6943 H   0  0  0  0  0  0  0  0  0  0  0  0
   13.5028   13.8627   24.2787 H   0  0  0  0  0  0  0  0  0  0  0  0
   12.7541   14.0555   25.8330 H   0  0  0  0  0  0  0  0  0  0  0  0
   10.6984   14.5119   20.7079 H   0  0  0  0  0  0  0  0  0  0  0  0
   12.3471   15.0716   20.5426 H   0  0  0  0  0  0  0  0  0  0  0  0
   11.3640   12.4605   24.9649 H   0  0  0  0  0  0  0  0  0  0  0  0
   10.4575   13.9307   24.6491 H   0  0  0  0  0  0  0  0  0  0  0  0
   12.2288   12.6961   21.1384 H   0  0  0  0  0  0  0  0  0  0  0  0
   13.1503   13.5994   22.3207 H   0  0  0  0  0  0  0  0  0  0  0  0
   10.7863    9.6474   22.9051 H   0  0  0  0  0  0  0  0  0  0  0  0
  1  2  1  0  0  0  0
  1  5  2  0  0  0  0
  2  6  2  0  0  0  0
  3  4  2  0  0  0  0
  3  7  1  0  0  0  0
  4  8  1  0  0  0  0
  5  9  1  0  0  0  0
  6 10  1  0  0  0  0
  7 20  2  0  0  0  0
  8 11  2  0  0  0  0
  8 12  1  0  0  0  0
  9 10  2  0  0  0  0
  9 22  1  0  0  0  0
 10 24  1  0  0  0  0
 11 20  1  0  0  0  0
 11 22  1  0  0  0  0
 12 21  1  0  0  0  0
 12 23  2  0  0  0  0
 13 14  1  0  0  0  0
 13 15  1  0  0  0  0
 14 16  1  0  0  0  0
 15 17  1  0  0  0  0
 16 18  1  0  0  0  0
 17 19  1  0  0  0  0
 18 21  1  0  0  0  0
 19 21  1  0  0  0  0
  1 25  1  0  0  0  0
  2 26  1  0  0  0  0
  3 27  1  0  0  0  0
  4 28  1  0  0  0  0
  5 29  1  0  0  0  0
  6 30  1  0  0  0  0
  7 31  1  0  0  0  0
 13 32  1  0  0  0  0
 13 33  1  0  0  0  0
 14 34  1  0  0  0  0
 14 35  1  0  0  0  0
 15 36  1  0  0  0  0
 15 37  1  0  0  0  0
 16 38  1  0  0  0  0
 16 39  1  0  0  0  0
 17 40  1  0  0  0  0
 17 41  1  0  0  0  0
 18 42  1  0  0  0  0
 18 43  1  0  0  0  0
 19 44  1  0  0  0  0
 19 45  1  0  0  0  0
 22 46  1  0  0  0  0
M  END
> <idnumber>
Z95604053

> <heavy_atoms>
24

> <LogS>
-4.834

> <LogP>
4.533

> <rotating_bonds>
3

> <PSA>
45.23

> <hb_acceptors>
3

> <hb_donors>
1

> <Collection>
Legacy

> <link>
https://www.enaminestore.com/catalog/Z95604053

> <ROCS_ShapeQuery>
_x1140_x0812_0A_x1140_0A_x1097_0A_x0365_0A_x1097_0A_x0310_0A

> <ROCS_TanimotoCombo>
0.635 

> <ROCS_ShapeTanimoto>
0.249 

> <ROCS_ColorTanimoto>
0.387 

> <ROCS_RefTversky>
0.229 

> <ROCS_RefColorTversky>
0.462 

> <ROCS_RefTverskyCombo>
0.691 

> <ROCS_FitTversky>
1.513 

> <ROCS_FitColorTversky>
0.704 

> <ROCS_FitTverskyCombo>
2.217 

> <ROCS_ColorScore>
-3.625

> <ROCS_Overlap>
2355.305

> <ROCS_Rank>
277                 

$$$$
untitled-dbase-11477_5
  -OEChem-02092421083D

 22 23  0     0  0  0  0  0  0999 V2000
    7.6109   12.1865   25.0073 C   0  0  0  0  0  0  0  0  0  0  0  0
    8.5512   12.5987   24.0697 C   0  0  0  0  0  0  0  0  0  0  0  0
    7.5011   10.8290   25.2622 C   0  0  0  0  0  0  0  0  0  0  0  0
    9.3418   11.6542   23.4247 C   0  0  0  0  0  0  0  0  0  0  0  0
    9.1547   10.3205   23.7505 C   0  0  0  0  0  0  0  0  0  0  0  0
    7.9193    8.0874   22.2033 C   0  0  0  0  0  0  0  0  0  0  0  0
    8.6815    8.6001   21.0156 C   0  0  0  0  0  0  0  0  0  0  0  0
    9.4023    8.3055   22.3000 C   0  0  0  0  0  0  0  0  0  0  0  0
    8.2514    9.8820   24.6558 N   0  0  0  0  0  0  0  0  0  0  0  0
   10.2943   12.0693   22.4753 N   0  0  0  0  0  0  0  0  0  0  0  0
    9.9560    9.3506   23.0970 N   0  0  0  0  0  0  0  0  0  0  0  0
    6.9837   12.9050   25.5224 H   0  0  0  0  0  0  0  0  0  0  0  0
    8.6585   13.6577   23.8504 H   0  0  0  0  0  0  0  0  0  0  0  0
    6.7828   10.4552   25.9845 H   0  0  0  0  0  0  0  0  0  0  0  0
    7.2618    8.7787   22.7156 H   0  0  0  0  0  0  0  0  0  0  0  0
    7.5607    7.0659   22.1701 H   0  0  0  0  0  0  0  0  0  0  0  0
    8.8348    7.9235   20.1840 H   0  0  0  0  0  0  0  0  0  0  0  0
    8.5336    9.6350   20.7322 H   0  0  0  0  0  0  0  0  0  0  0  0
   10.0248    7.4178   22.3192 H   0  0  0  0  0  0  0  0  0  0  0  0
   10.3607   13.0401   22.2387 H   0  0  0  0  0  0  0  0  0  0  0  0
   10.8268   11.3802   21.9809 H   0  0  0  0  0  0  0  0  0  0  0  0
   10.9443    9.4300   23.2211 H   0  0  0  0  0  0  0  0  0  0  0  0
  1  2  2  0  0  0  0
  1  3  1  0  0  0  0
  2  4  1  0  0  0  0
  3  9  2  0  0  0  0
  4  5  2  0  0  0  0
  4 10  1  0  0  0  0
  5  9  1  0  0  0  0
  5 11  1  0  0  0  0
  6  7  1  0  0  0  0
  6  8  1  0  0  0  0
  7  8  1  0  0  0  0
  8 11  1  0  0  0  0
  1 12  1  0  0  0  0
  2 13  1  0  0  0  0
  3 14  1  0  0  0  0
  6 15  1  0  0  0  0
  6 16  1  0  0  0  0
  7 17  1  0  0  0  0
  7 18  1  0  0  0  0
  8 19  1  0  0  0  0
 10 20  1  0  0  0  0
 10 21  1  0  0  0  0
 11 22  1  0  0  0  0
M  END
> <idnumber>
Z359511288

> <heavy_atoms>
11

> <LogS>
-1.012

> <LogP>
1.373

> <rotating_bonds>
2

> <PSA>
50.94

> <hb_acceptors>
3

> <hb_donors>
2

> <Collection>
Legacy

> <link>
https://www.enaminestore.com/catalog/Z359511288

> <ROCS_ShapeQuery>
_x1140_x0812_0A_x1140_0A_x1097_0A_x0365_0A_x1097_0A_x0310_0A

> <ROCS_TanimotoCombo>
0.635 

> <ROCS_ShapeTanimoto>
0.198 

> <ROCS_ColorTanimoto>
0.437 

> <ROCS_RefTversky>
0.181 

> <ROCS_RefColorTversky>
0.504 

> <ROCS_RefTverskyCombo>
0.685 

> <ROCS_FitTversky>
1.862 

> <ROCS_FitColorTversky>
0.768 

> <ROCS_FitTverskyCombo>
2.630 

> <ROCS_ColorScore>
-3.957

> <ROCS_Overlap>
1855.098

> <ROCS_Rank>
278                 

$$$$
untitled-dbase-84185_28
  -OEChem-02092421083D

 34 35  0     0  0  0  0  0  0999 V2000
    5.8703   10.8766   26.9024 C   0  0  0  0  0  0  0  0  0  0  0  0
    6.0099   12.2562   26.8759 C   0  0  0  0  0  0  0  0  0  0  0  0
    6.6646   10.0890   26.0708 C   0  0  0  0  0  0  0  0  0  0  0  0
    6.9424   12.8364   26.0178 C   0  0  0  0  0  0  0  0  0  0  0  0
    7.5995   10.6589   25.2097 C   0  0  0  0  0  0  0  0  0  0  0  0
    7.7410   12.0585   25.1827 C   0  0  0  0  0  0  0  0  0  0  0  0
    9.2412   10.4808   23.6051 C   0  0  0  0  0  0  0  0  0  0  0  0
    9.3788   11.8431   23.5787 C   0  0  0  0  0  0  0  0  0  0  0  0
   10.0612    9.5854   22.7401 C   0  0  0  0  0  0  0  0  0  0  0  0
   13.6587   15.9512   22.9558 C   0  0  0  0  0  0  0  0  0  0  0  0
   11.5831   14.2197   21.5945 C   0  0  0  0  0  0  0  0  0  0  0  0
   10.5260   13.8426   22.6240 C   0  0  0  0  0  0  0  0  0  0  0  0
   11.8181   15.7231   21.5125 C   0  0  0  0  0  0  0  0  0  0  0  0
    8.3542    9.8779   24.4171 N   0  0  0  0  0  0  0  0  0  0  0  0
    8.6336   12.6418   24.3636 N   0  0  0  0  0  0  0  0  0  0  0  0
   10.3238   12.4303   22.7090 N   0  0  0  0  0  0  0  0  0  0  0  0
   12.2682   16.1854   22.7791 O   0  0  0  0  0  0  0  0  0  0  0  0
    5.1475   10.4120   27.5661 H   0  0  0  0  0  0  0  0  0  0  0  0
    5.3975   12.8810   27.5186 H   0  0  0  0  0  0  0  0  0  0  0  0
    6.5446    9.0079   26.1020 H   0  0  0  0  0  0  0  0  0  0  0  0
    7.0414   13.9201   26.0071 H   0  0  0  0  0  0  0  0  0  0  0  0
   10.9861    9.2977   23.2553 H   0  0  0  0  0  0  0  0  0  0  0  0
    9.5117    8.6721   22.4767 H   0  0  0  0  0  0  0  0  0  0  0  0
   10.3284   10.0780   21.7957 H   0  0  0  0  0  0  0  0  0  0  0  0
   13.9689   16.3181   23.9373 H   0  0  0  0  0  0  0  0  0  0  0  0
   14.2184   16.4641   22.1696 H   0  0  0  0  0  0  0  0  0  0  0  0
   13.8489   14.8770   22.8941 H   0  0  0  0  0  0  0  0  0  0  0  0
   12.5291   13.7256   21.8492 H   0  0  0  0  0  0  0  0  0  0  0  0
   11.3046   13.8409   20.6030 H   0  0  0  0  0  0  0  0  0  0  0  0
   10.8320   14.1814   23.6187 H   0  0  0  0  0  0  0  0  0  0  0  0
    9.5627   14.3050   22.3864 H   0  0  0  0  0  0  0  0  0  0  0  0
   12.5812   15.9655   20.7664 H   0  0  0  0  0  0  0  0  0  0  0  0
   10.8920   16.2492   21.2598 H   0  0  0  0  0  0  0  0  0  0  0  0
   10.8613   11.8075   22.1374 H   0  0  0  0  0  0  0  0  0  0  0  0
  1  2  1  0  0  0  0
  1  3  2  0  0  0  0
  2  4  2  0  0  0  0
  3  5  1  0  0  0  0
  4  6  1  0  0  0  0
  5  6  1  0  0  0  0
  5 14  2  0  0  0  0
  6 15  2  0  0  0  0
  7  8  2  0  0  0  0
  7  9  1  0  0  0  0
  7 14  1  0  0  0  0
  8 15  1  0  0  0  0
  8 16  1  0  0  0  0
 10 17  1  0  0  0  0
 11 12  1  0  0  0  0
 11 13  1  0  0  0  0
 12 16  1  0  0  0  0
 13 17  1  0  0  0  0
  1 18  1  0  0  0  0
  2 19  1  0  0  0  0
  3 20  1  0  0  0  0
  4 21  1  0  0  0  0
  9 22  1  0  0  0  0
  9 23  1  0  0  0  0
  9 24  1  0  0  0  0
 10 25  1  0  0  0  0
 10 26  1  0  0  0  0
 10 27  1  0  0  0  0
 11 28  1  0  0  0  0
 11 29  1  0  0  0  0
 12 30  1  0  0  0  0
 12 31  1  0  0  0  0
 13 32  1  0  0  0  0
 13 33  1  0  0  0  0
 16 34  1  0  0  0  0
M  END
> <idnumber>
Z319858910

> <heavy_atoms>
17

> <LogS>
-1.605

> <LogP>
2.949

> <rotating_bonds>
5

> <PSA>
47.04

> <hb_acceptors>
4

> <hb_donors>
1

> <Collection>
HTS

> <link>
https://www.enaminestore.com/catalog/Z319858910

> <ROCS_ShapeQuery>
_x1140_x0812_0A_x1140_0A_x1097_0A_x0365_0A_x1097_0A_x0310_0A

> <ROCS_TanimotoCombo>
0.635 

> <ROCS_ShapeTanimoto>
0.274 

> <ROCS_ColorTanimoto>
0.361 

> <ROCS_RefTversky>
0.242 

> <ROCS_RefColorTversky>
0.470 

> <ROCS_RefTverskyCombo>
0.712 

> <ROCS_FitTversky>
1.973 

> <ROCS_FitColorTversky>
0.608 

> <ROCS_FitTverskyCombo>
2.581 

> <ROCS_ColorScore>
-3.714

> <ROCS_Overlap>
2477.556

> <ROCS_Rank>
279                 

$$$$
untitled-dbase-170385_133
  -OEChem-02092421083D

 33 34  0     0  0  0  0  0  0999 V2000
    8.6693   12.4954   24.4412 C   0  0  0  0  0  0  0  0  0  0  0  0
    7.7511   12.0237   25.3727 C   0  0  0  0  0  0  0  0  0  0  0  0
   12.4281   15.0380   23.3019 C   0  0  0  0  0  0  0  0  0  0  0  0
   10.6967   14.7631   21.9746 C   0  0  0  0  0  0  0  0  0  0  0  0
    9.3197   11.5999   23.5995 C   0  0  0  0  0  0  0  0  0  0  0  0
   11.4824   14.0864   22.8753 C   0  0  0  0  0  0  0  0  0  0  0  0
    7.5206   10.6583   25.4222 C   0  0  0  0  0  0  0  0  0  0  0  0
    9.0192   10.2535   23.7285 C   0  0  0  0  0  0  0  0  0  0  0  0
   10.2810   12.0916   22.6244 C   0  0  0  0  0  0  0  0  0  0  0  0
    9.6861    9.2435   22.8520 C   0  0  0  0  0  0  0  0  0  0  0  0
   11.1319   16.9765   19.6491 C   0  0  0  0  0  0  0  0  0  0  0  0
   10.7070   17.1124   21.1012 C   0  0  0  0  0  0  0  0  0  0  0  0
    6.5418   10.1164   26.4100 C   0  0  0  0  0  0  0  0  0  0  0  0
   12.2603   16.2285   22.7200 N   0  0  0  0  0  0  0  0  0  0  0  0
    8.1332    9.7579   24.6213 N   0  0  0  0  0  0  0  0  0  0  0  0
   11.2001   16.0294   21.9184 N   0  0  0  0  0  0  0  0  0  0  0  0
   10.1757   11.9376   21.3997 O   0  0  0  0  0  0  0  0  0  0  0  0
   11.3374   12.7484   23.2515 O   0  0  0  0  0  0  0  0  0  0  0  0
    5.9603   11.0773   27.1867 F   0  0  0  0  0  0  0  0  0  0  0  0
    5.5015    9.4444   25.8350 F   0  0  0  0  0  0  0  0  0  0  0  0
    7.1110    9.2347   27.2821 F   0  0  0  0  0  0  0  0  0  0  0  0
    8.8695   13.5619   24.3804 H   0  0  0  0  0  0  0  0  0  0  0  0
    7.2371   12.7117   26.0353 H   0  0  0  0  0  0  0  0  0  0  0  0
   13.2326   14.9153   24.0131 H   0  0  0  0  0  0  0  0  0  0  0  0
    9.8444   14.4584   21.3826 H   0  0  0  0  0  0  0  0  0  0  0  0
   10.6094    8.8853   23.3211 H   0  0  0  0  0  0  0  0  0  0  0  0
    9.0299    8.3841   22.6687 H   0  0  0  0  0  0  0  0  0  0  0  0
    9.9336    9.6716   21.8730 H   0  0  0  0  0  0  0  0  0  0  0  0
   12.2230   16.9606   19.5559 H   0  0  0  0  0  0  0  0  0  0  0  0
   10.7515   17.8182   19.0622 H   0  0  0  0  0  0  0  0  0  0  0  0
   10.7460   16.0510   19.2091 H   0  0  0  0  0  0  0  0  0  0  0  0
    9.6144   17.1273   21.1842 H   0  0  0  0  0  0  0  0  0  0  0  0
   11.0783   18.0518   21.5260 H   0  0  0  0  0  0  0  0  0  0  0  0
  1  2  2  0  0  0  0
  1  5  1  0  0  0  0
  2  7  1  0  0  0  0
  3  6  1  0  0  0  0
  3 14  2  0  0  0  0
  4  6  2  0  0  0  0
  4 16  1  0  0  0  0
  5  8  2  0  0  0  0
  5  9  1  0  0  0  0
  6 18  1  0  0  0  0
  7 13  1  0  0  0  0
  7 15  2  0  0  0  0
  8 10  1  0  0  0  0
  8 15  1  0  0  0  0
  9 17  2  0  0  0  0
  9 18  1  0  0  0  0
 11 12  1  0  0  0  0
 12 16  1  0  0  0  0
 13 19  1  0  0  0  0
 13 20  1  0  0  0  0
 13 21  1  0  0  0  0
 14 16  1  0  0  0  0
  1 22  1  0  0  0  0
  2 23  1  0  0  0  0
  3 24  1  0  0  0  0
  4 25  1  0  0  0  0
 10 26  1  0  0  0  0
 10 27  1  0  0  0  0
 10 28  1  0  0  0  0
 11 29  1  0  0  0  0
 11 30  1  0  0  0  0
 11 31  1  0  0  0  0
 12 32  1  0  0  0  0
 12 33  1  0  0  0  0
M  END
> <idnumber>
Z1848530598

> <heavy_atoms>
21

> <LogS>
-2.375

> <LogP>
2.591

> <rotating_bonds>
5

> <PSA>
57.01

> <hb_acceptors>
3

> <hb_donors>
0

> <Collection>
Legacy

> <link>
https://www.enaminestore.com/catalog/Z1848530598

> <ROCS_ShapeQuery>
_x1140_x0812_0A_x1140_0A_x1097_0A_x0365_0A_x1097_0A_x0310_0A

> <ROCS_TanimotoCombo>
0.635 

> <ROCS_ShapeTanimoto>
0.268 

> <ROCS_ColorTanimoto>
0.366 

> <ROCS_RefTversky>
0.242 

> <ROCS_RefColorTversky>
0.444 

> <ROCS_RefTverskyCombo>
0.686 

> <ROCS_FitTversky>
1.707 

> <ROCS_FitColorTversky>
0.677 

> <ROCS_FitTverskyCombo>
2.384 

> <ROCS_ColorScore>
-3.487

> <ROCS_Overlap>
2481.060

> <ROCS_Rank>
280                 

$$$$
untitled-dbase-880141_26
  -OEChem-02092421083D

 30 31  0     0  0  0  0  0  0999 V2000
   10.3407   11.0245   21.2186 C   0  0  0  0  0  0  0  0  0  0  0  0
    7.4364   14.2974   25.9217 C   0  0  0  0  0  0  0  0  0  0  0  0
    8.6591   14.6313   25.3501 C   0  0  0  0  0  0  0  0  0  0  0  0
    6.9951   12.9787   25.8770 C   0  0  0  0  0  0  0  0  0  0  0  0
    9.4379   13.6463   24.7356 C   0  0  0  0  0  0  0  0  0  0  0  0
    7.7840   11.9940   25.2572 C   0  0  0  0  0  0  0  0  0  0  0  0
    9.0208   12.3188   24.6766 C   0  0  0  0  0  0  0  0  0  0  0  0
    7.4012   10.6580   25.1786 C   0  0  0  0  0  0  0  0  0  0  0  0
    9.3016   10.1256   24.0706 C   0  0  0  0  0  0  0  0  0  0  0  0
    5.1230    9.6619   24.9695 C   0  0  0  0  0  0  0  0  0  0  0  0
   11.1971    9.8401   21.3793 C   0  0  0  0  0  0  0  0  0  0  0  0
   11.3692    9.4557   22.8451 C   0  0  0  0  0  0  0  0  0  0  0  0
    9.6652   11.9591   21.0895 N   0  0  0  0  0  0  0  0  0  0  0  0
    9.7835   11.3851   24.0815 N   0  0  0  0  0  0  0  0  0  0  0  0
    8.1397    9.6982   24.5904 N   0  0  0  0  0  0  0  0  0  0  0  0
    6.1650   10.2551   25.7425 N   0  0  0  0  0  0  0  0  0  0  0  0
   10.1075    9.1505   23.4434 N   0  0  0  0  0  0  0  0  0  0  0  0
    6.8305   15.0612   26.3995 H   0  0  0  0  0  0  0  0  0  0  0  0
    9.0108   15.6587   25.3807 H   0  0  0  0  0  0  0  0  0  0  0  0
    6.0357   12.7426   26.3303 H   0  0  0  0  0  0  0  0  0  0  0  0
   10.3907   13.9340   24.2947 H   0  0  0  0  0  0  0  0  0  0  0  0
    5.4442    9.5816   23.9205 H   0  0  0  0  0  0  0  0  0  0  0  0
    4.9006    8.6589   25.3626 H   0  0  0  0  0  0  0  0  0  0  0  0
    4.2204   10.2878   25.0296 H   0  0  0  0  0  0  0  0  0  0  0  0
   12.1829   10.0546   20.9505 H   0  0  0  0  0  0  0  0  0  0  0  0
   10.7762    9.0011   20.8128 H   0  0  0  0  0  0  0  0  0  0  0  0
   12.0115    8.5721   22.9192 H   0  0  0  0  0  0  0  0  0  0  0  0
   11.8508   10.2639   23.4067 H   0  0  0  0  0  0  0  0  0  0  0  0
    6.0497   10.4075   26.7235 H   0  0  0  0  0  0  0  0  0  0  0  0
    9.7557    8.2126   23.4301 H   0  0  0  0  0  0  0  0  0  0  0  0
  1 11  1  0  0  0  0
  1 13  3  0  0  0  0
  2  3  1  0  0  0  0
  2  4  2  0  0  0  0
  3  5  2  0  0  0  0
  4  6  1  0  0  0  0
  5  7  1  0  0  0  0
  6  7  1  0  0  0  0
  6  8  2  0  0  0  0
  7 14  2  0  0  0  0
  8 15  1  0  0  0  0
  8 16  1  0  0  0  0
  9 14  1  0  0  0  0
  9 15  2  0  0  0  0
  9 17  1  0  0  0  0
 10 16  1  0  0  0  0
 11 12  1  0  0  0  0
 12 17  1  0  0  0  0
  2 18  1  0  0  0  0
  3 19  1  0  0  0  0
  4 20  1  0  0  0  0
  5 21  1  0  0  0  0
 10 22  1  0  0  0  0
 10 23  1  0  0  0  0
 10 24  1  0  0  0  0
 11 25  1  0  0  0  0
 11 26  1  0  0  0  0
 12 27  1  0  0  0  0
 12 28  1  0  0  0  0
 16 29  1  0  0  0  0
 17 30  1  0  0  0  0
M  END
> <idnumber>
Z2272525980

> <heavy_atoms>
17

> <LogS>
-3.079

> <LogP>
2.204

> <rotating_bonds>
4

> <PSA>
73.63

> <hb_acceptors>
5

> <hb_donors>
2

> <Collection>
Advanced

> <link>
https://www.enaminestore.com/catalog/Z2272525980

> <ROCS_ShapeQuery>
_x1140_x0812_0A_x1140_0A_x1097_0A_x0365_0A_x1097_0A_x0310_0A

> <ROCS_TanimotoCombo>
0.635 

> <ROCS_ShapeTanimoto>
0.235 

> <ROCS_ColorTanimoto>
0.400 

> <ROCS_RefTversky>
0.214 

> <ROCS_RefColorTversky>
0.540 

> <ROCS_RefTverskyCombo>
0.753 

> <ROCS_FitTversky>
1.736 

> <ROCS_FitColorTversky>
0.607 

> <ROCS_FitTverskyCombo>
2.344 

> <ROCS_ColorScore>
-4.290

> <ROCS_Overlap>
2191.113

> <ROCS_Rank>
281                 

$$$$
untitled-dbase-1030548_196
  -OEChem-02092421083D

 39 42  0     1  0  0  0  0  0999 V2000
    5.7738   11.5296   26.3002 C   0  0  0  0  0  0  0  0  0  0  0  0
    7.5638   11.8874   25.1998 C   0  0  0  0  0  0  0  0  0  0  0  0
    8.6878   12.3757   24.5410 C   0  0  0  0  0  0  0  0  0  0  0  0
    7.3621   10.5169   25.1628 C   0  0  0  0  0  0  0  0  0  0  0  0
    9.1877   10.1901   23.9580 C   0  0  0  0  0  0  0  0  0  0  0  0
   12.0527   13.7218   22.2126 C   0  0  0  0  0  0  0  0  0  0  0  0
   12.4208   14.3009   20.8750 C   0  0  0  0  0  0  0  0  0  0  0  0
   11.6590   11.7046   19.8310 C   0  0  0  0  0  0  0  0  0  0  0  0
   11.0396   10.3283   19.8140 C   0  0  0  0  0  0  0  0  0  0  0  0
   11.0249   13.7975   21.1177 C   0  0  0  0  0  0  0  0  0  0  0  0
   10.5404   12.5329   20.4358 C   0  0  2  0  0  0  0  0  0  0  0  0
   10.2180   10.3140   21.0952 C   0  0  1  0  0  0  0  0  0  0  0  0
   10.9795    9.7389   22.2812 C   0  0  0  0  0  0  0  0  0  0  0  0
    9.0481   13.8199   24.4855 C   0  0  0  0  0  0  0  0  0  0  0  0
    6.5670   12.5061   25.9117 N   0  0  0  0  0  0  0  0  0  0  0  0
    9.5116   11.5049   23.9098 N   0  0  0  0  0  0  0  0  0  0  0  0
    8.1326    9.5991   24.5599 N   0  0  0  0  0  0  0  0  0  0  0  0
    6.2137   10.3054   25.8712 N   0  0  0  0  0  0  0  0  0  0  0  0
   10.0646    9.3297   23.2953 N   0  0  0  0  0  0  0  0  0  0  0  0
    9.8889   11.6829   21.3935 O   0  0  0  0  0  0  0  0  0  0  0  0
    8.1684   14.6314   25.1455 F   0  0  0  0  0  0  0  0  0  0  0  0
   10.2686   14.1023   25.0317 F   0  0  0  0  0  0  0  0  0  0  0  0
    9.1002   14.3014   23.2086 F   0  0  0  0  0  0  0  0  0  0  0  0
    4.8739   11.6383   26.8888 H   0  0  0  0  0  0  0  0  0  0  0  0
   12.4635   12.7541   22.4726 H   0  0  0  0  0  0  0  0  0  0  0  0
   11.9513   14.4050   23.0469 H   0  0  0  0  0  0  0  0  0  0  0  0
   12.5660   15.3724   20.8122 H   0  0  0  0  0  0  0  0  0  0  0  0
   13.0784   13.7210   20.2392 H   0  0  0  0  0  0  0  0  0  0  0  0
   12.5487   11.7060   20.4723 H   0  0  0  0  0  0  0  0  0  0  0  0
   11.9596   12.0575   18.8402 H   0  0  0  0  0  0  0  0  0  0  0  0
   10.3697   10.2440   18.9494 H   0  0  0  0  0  0  0  0  0  0  0  0
   11.7729    9.5196   19.7478 H   0  0  0  0  0  0  0  0  0  0  0  0
   10.2358   14.5327   21.2194 H   0  0  0  0  0  0  0  0  0  0  0  0
    9.7983   12.7963   19.6718 H   0  0  0  0  0  0  0  0  0  0  0  0
    9.2873    9.7534   20.9567 H   0  0  0  0  0  0  0  0  0  0  0  0
   11.5531    8.8854   21.9195 H   0  0  0  0  0  0  0  0  0  0  0  0
   11.6394   10.5209   22.6572 H   0  0  0  0  0  0  0  0  0  0  0  0
    5.7712    9.4132   26.0466 H   0  0  0  0  0  0  0  0  0  0  0  0
   10.0343    8.3444   23.5669 H   0  0  0  0  0  0  0  0  0  0  0  0
  1 15  2  0  0  0  0
  1 18  1  0  0  0  0
  2  3  2  0  0  0  0
  2  4  1  0  0  0  0
  2 15  1  0  0  0  0
  3 14  1  0  0  0  0
  3 16  1  0  0  0  0
  4 17  2  0  0  0  0
  4 18  1  0  0  0  0
  5 16  2  0  0  0  0
  5 17  1  0  0  0  0
  5 19  1  0  0  0  0
  6  7  1  0  0  0  0
  6 10  1  0  0  0  0
  7 10  1  0  0  0  0
  8  9  1  0  0  0  0
  8 11  1  0  0  0  0
  9 12  1  0  0  0  0
 10 11  1  6  0  0  0
 11 20  1  0  0  0  0
 12 13  1  6  0  0  0
 12 20  1  0  0  0  0
 13 19  1  0  0  0  0
 14 21  1  0  0  0  0
 14 22  1  0  0  0  0
 14 23  1  0  0  0  0
  1 24  1  0  0  0  0
  6 25  1  0  0  0  0
  6 26  1  0  0  0  0
  7 27  1  0  0  0  0
  7 28  1  0  0  0  0
  8 29  1  0  0  0  0
  8 30  1  0  0  0  0
  9 31  1  0  0  0  0
  9 32  1  0  0  0  0
 10 33  1  0  0  0  0
 11 34  1  0  0  0  0
 12 35  1  0  0  0  0
 13 36  1  0  0  0  0
 13 37  1  0  0  0  0
 18 38  1  0  0  0  0
 19 39  1  0  0  0  0
M  END
> <idnumber>
Z3393839556

> <heavy_atoms>
23

> <LogS>
-4.78

> <LogP>
2.928

> <rotating_bonds>
5

> <PSA>
75.72

> <hb_acceptors>
5

> <hb_donors>
2

> <Collection>
Advanced

> <link>
https://www.enaminestore.com/catalog/Z3393839556

> <ROCS_ShapeQuery>
_x1140_x0812_0A_x1140_0A_x1097_0A_x0365_0A_x1097_0A_x0310_0A

> <ROCS_TanimotoCombo>
0.635 

> <ROCS_ShapeTanimoto>
0.284 

> <ROCS_ColorTanimoto>
0.351 

> <ROCS_RefTversky>
0.254 

> <ROCS_RefColorTversky>
0.579 

> <ROCS_RefTverskyCombo>
0.833 

> <ROCS_FitTversky>
1.678 

> <ROCS_FitColorTversky>
0.472 

> <ROCS_FitTverskyCombo>
2.150 

> <ROCS_ColorScore>
-4.688

> <ROCS_Overlap>
2613.407

> <ROCS_Rank>
282                 

$$$$
untitled-dbase-1029827_36
  -OEChem-02092421083D

 36 38  0     0  0  0  0  0  0999 V2000
    8.3578   12.6587   24.1197 C   0  0  0  0  0  0  0  0  0  0  0  0
    7.3702   12.0718   24.9030 C   0  0  0  0  0  0  0  0  0  0  0  0
   11.1168   14.3080   23.9655 C   0  0  0  0  0  0  0  0  0  0  0  0
   11.7577   15.5299   23.9430 C   0  0  0  0  0  0  0  0  0  0  0  0
    9.2639   10.4940   23.7324 C   0  0  0  0  0  0  0  0  0  0  0  0
   12.0507   15.3916   21.6931 C   0  0  0  0  0  0  0  0  0  0  0  0
    9.3264   11.8618   23.5196 C   0  0  0  0  0  0  0  0  0  0  0  0
    7.3952   10.6947   25.0537 C   0  0  0  0  0  0  0  0  0  0  0  0
   10.9871   13.6794   22.7439 C   0  0  0  0  0  0  0  0  0  0  0  0
    3.4546   10.8785   27.9600 C   0  0  0  0  0  0  0  0  0  0  0  0
    4.5109   11.8231   28.5401 C   0  0  0  0  0  0  0  0  0  0  0  0
    4.1796   10.0179   26.9286 C   0  0  0  0  0  0  0  0  0  0  0  0
    5.8172   11.4838   27.8271 C   0  0  0  0  0  0  0  0  0  0  0  0
    5.3592   10.8839   26.5032 C   0  0  0  0  0  0  0  0  0  0  0  0
   12.2389   16.1035   22.8206 N   0  0  0  0  0  0  0  0  0  0  0  0
    8.3199    9.8878   24.4867 N   0  0  0  0  0  0  0  0  0  0  0  0
   11.4438   14.1944   21.5835 N   0  0  0  0  0  0  0  0  0  0  0  0
   10.3370   12.4256   22.7238 N   0  0  0  0  0  0  0  0  0  0  0  0
    6.4035   10.1240   25.8399 N   0  0  0  0  0  0  0  0  0  0  0  0
    8.3636   13.7367   23.9829 H   0  0  0  0  0  0  0  0  0  0  0  0
    6.6109   12.6861   25.3754 H   0  0  0  0  0  0  0  0  0  0  0  0
   10.7448   13.8826   24.8890 H   0  0  0  0  0  0  0  0  0  0  0  0
   11.9058   16.0991   24.8546 H   0  0  0  0  0  0  0  0  0  0  0  0
    9.9921    9.8204   23.2906 H   0  0  0  0  0  0  0  0  0  0  0  0
   12.4273   15.8287   20.7765 H   0  0  0  0  0  0  0  0  0  0  0  0
    2.9874   10.2631   28.7354 H   0  0  0  0  0  0  0  0  0  0  0  0
    2.6603   11.4615   27.4797 H   0  0  0  0  0  0  0  0  0  0  0  0
    4.2267   12.8630   28.3414 H   0  0  0  0  0  0  0  0  0  0  0  0
    4.6072   11.7103   29.6246 H   0  0  0  0  0  0  0  0  0  0  0  0
    4.5204    9.0905   27.4065 H   0  0  0  0  0  0  0  0  0  0  0  0
    3.5316    9.7483   26.0889 H   0  0  0  0  0  0  0  0  0  0  0  0
    6.4529   12.3644   27.6926 H   0  0  0  0  0  0  0  0  0  0  0  0
    6.3754   10.7488   28.4210 H   0  0  0  0  0  0  0  0  0  0  0  0
    5.0087   11.6863   25.8262 H   0  0  0  0  0  0  0  0  0  0  0  0
   10.6696   11.8114   21.9830 H   0  0  0  0  0  0  0  0  0  0  0  0
    6.4132    9.1146   25.9565 H   0  0  0  0  0  0  0  0  0  0  0  0
  1  2  2  0  0  0  0
  1  7  1  0  0  0  0
  2  8  1  0  0  0  0
  3  4  2  0  0  0  0
  3  9  1  0  0  0  0
  4 15  1  0  0  0  0
  5  7  2  0  0  0  0
  5 16  1  0  0  0  0
  6 15  2  0  0  0  0
  6 17  1  0  0  0  0
  7 18  1  0  0  0  0
  8 16  2  0  0  0  0
  8 19  1  0  0  0  0
  9 17  2  0  0  0  0
  9 18  1  0  0  0  0
 10 11  1  0  0  0  0
 10 12  1  0  0  0  0
 11 13  1  0  0  0  0
 12 14  1  0  0  0  0
 13 14  1  0  0  0  0
 14 19  1  0  0  0  0
  1 20  1  0  0  0  0
  2 21  1  0  0  0  0
  3 22  1  0  0  0  0
  4 23  1  0  0  0  0
  5 24  1  0  0  0  0
  6 25  1  0  0  0  0
 10 26  1  0  0  0  0
 10 27  1  0  0  0  0
 11 28  1  0  0  0  0
 11 29  1  0  0  0  0
 12 30  1  0  0  0  0
 12 31  1  0  0  0  0
 13 32  1  0  0  0  0
 13 33  1  0  0  0  0
 14 34  1  0  0  0  0
 18 35  1  0  0  0  0
 19 36  1  0  0  0  0
M  END
> <idnumber>
Z3390324200

> <heavy_atoms>
19

> <LogS>
-3.148

> <LogP>
3.043

> <rotating_bonds>
4

> <PSA>
62.73

> <hb_acceptors>
5

> <hb_donors>
2

> <Collection>
Advanced

> <link>
https://www.enaminestore.com/catalog/Z3390324200

> <ROCS_ShapeQuery>
_x1140_x0812_0A_x1140_0A_x1097_0A_x0365_0A_x1097_0A_x0310_0A

> <ROCS_TanimotoCombo>
0.635 

> <ROCS_ShapeTanimoto>
0.237 

> <ROCS_ColorTanimoto>
0.398 

> <ROCS_RefTversky>
0.217 

> <ROCS_RefColorTversky>
0.569 

> <ROCS_RefTverskyCombo>
0.786 

> <ROCS_FitTversky>
1.642 

> <ROCS_FitColorTversky>
0.569 

> <ROCS_FitTverskyCombo>
2.211 

> <ROCS_ColorScore>
-4.554

> <ROCS_Overlap>
2227.309

> <ROCS_Rank>
283                 

$$$$
untitled-dbase-507711_108
  -OEChem-02092421083D

 39 40  0     0  0  0  0  0  0999 V2000
    8.9615   12.4055   24.3355 C   0  0  0  0  0  0  0  0  0  0  0  0
    8.0682   12.1193   25.3619 C   0  0  0  0  0  0  0  0  0  0  0  0
    8.8986   10.1113   23.7113 C   0  0  0  0  0  0  0  0  0  0  0  0
   12.9490   15.4113   22.7907 C   0  0  0  0  0  0  0  0  0  0  0  0
   11.0328   15.2320   21.7270 C   0  0  0  0  0  0  0  0  0  0  0  0
    9.3896   11.3880   23.4901 C   0  0  0  0  0  0  0  0  0  0  0  0
   12.1280   14.4950   22.1064 C   0  0  0  0  0  0  0  0  0  0  0  0
    7.6363   10.8099   25.4992 C   0  0  0  0  0  0  0  0  0  0  0  0
   10.3328   11.6598   22.3938 C   0  0  0  0  0  0  0  0  0  0  0  0
   10.3789   17.6314   22.0333 C   0  0  0  0  0  0  0  0  0  0  0  0
    6.2866   11.5956   27.4283 C   0  0  0  0  0  0  0  0  0  0  0  0
    6.2243    9.1922   26.7440 C   0  0  0  0  0  0  0  0  0  0  0  0
   12.1900   11.8529   24.0024 C   0  0  0  0  0  0  0  0  0  0  0  0
   12.3896   13.0397   21.8459 C   0  0  0  0  0  0  0  0  0  0  0  0
    8.0299    9.7950   24.6976 N   0  0  0  0  0  0  0  0  0  0  0  0
   12.4206   16.6368   22.8443 N   0  0  0  0  0  0  0  0  0  0  0  0
   11.2559   16.4958   22.1888 N   0  0  0  0  0  0  0  0  0  0  0  0
    6.7273   10.5341   26.5508 N   0  0  0  0  0  0  0  0  0  0  0  0
   11.5923   12.1767   22.7147 N   0  0  0  0  0  0  0  0  0  0  0  0
    9.9392   11.3945   21.2586 O   0  0  0  0  0  0  0  0  0  0  0  0
    9.3185   13.4234   24.2045 H   0  0  0  0  0  0  0  0  0  0  0  0
    7.7285   12.9073   26.0263 H   0  0  0  0  0  0  0  0  0  0  0  0
    9.1961    9.2755   23.0851 H   0  0  0  0  0  0  0  0  0  0  0  0
   13.9110   15.2396   23.2525 H   0  0  0  0  0  0  0  0  0  0  0  0
   10.1367   14.9716   21.1802 H   0  0  0  0  0  0  0  0  0  0  0  0
    9.7008   17.6538   22.8905 H   0  0  0  0  0  0  0  0  0  0  0  0
   10.9739   18.5481   21.9925 H   0  0  0  0  0  0  0  0  0  0  0  0
    9.8158   17.5282   21.1015 H   0  0  0  0  0  0  0  0  0  0  0  0
    5.5891   11.1887   28.1752 H   0  0  0  0  0  0  0  0  0  0  0  0
    7.1566   12.0335   27.9395 H   0  0  0  0  0  0  0  0  0  0  0  0
    5.7790   12.3724   26.8377 H   0  0  0  0  0  0  0  0  0  0  0  0
    5.5369    9.1778   27.6027 H   0  0  0  0  0  0  0  0  0  0  0  0
    5.6881    8.8680   25.8399 H   0  0  0  0  0  0  0  0  0  0  0  0
    7.0652    8.5096   26.9362 H   0  0  0  0  0  0  0  0  0  0  0  0
   12.7903   10.9359   23.9084 H   0  0  0  0  0  0  0  0  0  0  0  0
   12.8361   12.6824   24.3255 H   0  0  0  0  0  0  0  0  0  0  0  0
   11.3951   11.6960   24.7464 H   0  0  0  0  0  0  0  0  0  0  0  0
   12.1522   12.7846   20.8073 H   0  0  0  0  0  0  0  0  0  0  0  0
   13.4446   12.7949   22.0079 H   0  0  0  0  0  0  0  0  0  0  0  0
  1  2  2  0  0  0  0
  1  6  1  0  0  0  0
  2  8  1  0  0  0  0
  3  6  2  0  0  0  0
  3 15  1  0  0  0  0
  4  7  1  0  0  0  0
  4 16  2  0  0  0  0
  5  7  2  0  0  0  0
  5 17  1  0  0  0  0
  6  9  1  0  0  0  0
  7 14  1  0  0  0  0
  8 15  2  0  0  0  0
  8 18  1  0  0  0  0
  9 19  1  0  0  0  0
  9 20  2  0  0  0  0
 10 17  1  0  0  0  0
 11 18  1  0  0  0  0
 12 18  1  0  0  0  0
 13 19  1  0  0  0  0
 14 19  1  0  0  0  0
 16 17  1  0  0  0  0
  1 21  1  0  0  0  0
  2 22  1  0  0  0  0
  3 23  1  0  0  0  0
  4 24  1  0  0  0  0
  5 25  1  0  0  0  0
 10 26  1  0  0  0  0
 10 27  1  0  0  0  0
 10 28  1  0  0  0  0
 11 29  1  0  0  0  0
 11 30  1  0  0  0  0
 11 31  1  0  0  0  0
 12 32  1  0  0  0  0
 12 33  1  0  0  0  0
 12 34  1  0  0  0  0
 13 35  1  0  0  0  0
 13 36  1  0  0  0  0
 13 37  1  0  0  0  0
 14 38  1  0  0  0  0
 14 39  1  0  0  0  0
M  END
> <idnumber>
Z367366954

> <heavy_atoms>
20

> <LogS>
-0.856

> <LogP>
0.525

> <rotating_bonds>
4

> <PSA>
54.26

> <hb_acceptors>
4

> <hb_donors>
0

> <Collection>
Legacy

> <link>
https://www.enaminestore.com/catalog/Z367366954

> <ROCS_ShapeQuery>
_x1140_x0812_0A_x1140_0A_x1097_0A_x0365_0A_x1097_0A_x0310_0A

> <ROCS_TanimotoCombo>
0.635 

> <ROCS_ShapeTanimoto>
0.241 

> <ROCS_ColorTanimoto>
0.394 

> <ROCS_RefTversky>
0.220 

> <ROCS_RefColorTversky>
0.468 

> <ROCS_RefTverskyCombo>
0.688 

> <ROCS_FitTversky>
1.627 

> <ROCS_FitColorTversky>
0.713 

> <ROCS_FitTverskyCombo>
2.340 

> <ROCS_ColorScore>
-3.672

> <ROCS_Overlap>
2263.477

> <ROCS_Rank>
284                 

$$$$
untitled-dbase-592356_19
  -OEChem-02092421083D

 40 42  0     0  0  0  0  0  0999 V2000
   13.8831   14.0808   19.7411 C   0  0  0  0  0  0  0  0  0  0  0  0
   13.2872   12.8368   19.5339 C   0  0  0  0  0  0  0  0  0  0  0  0
    6.9866   13.1862   25.8434 C   0  0  0  0  0  0  0  0  0  0  0  0
   13.5355   14.8437   20.8559 C   0  0  0  0  0  0  0  0  0  0  0  0
   12.3435   12.3558   20.4415 C   0  0  0  0  0  0  0  0  0  0  0  0
    6.1905   12.8685   26.9400 C   0  0  0  0  0  0  0  0  0  0  0  0
    8.4660   12.4667   24.0281 C   0  0  0  0  0  0  0  0  0  0  0  0
    6.7302   10.5369   26.6291 C   0  0  0  0  0  0  0  0  0  0  0  0
    7.6582   12.1750   25.1355 C   0  0  0  0  0  0  0  0  0  0  0  0
   12.5918   14.3627   21.7635 C   0  0  0  0  0  0  0  0  0  0  0  0
    9.1160   11.4456   23.3500 C   0  0  0  0  0  0  0  0  0  0  0  0
    7.5326   10.8261   25.5288 C   0  0  0  0  0  0  0  0  0  0  0  0
   11.9957   13.1187   21.5563 C   0  0  0  0  0  0  0  0  0  0  0  0
    6.0623   11.5421   27.3331 C   0  0  0  0  0  0  0  0  0  0  0  0
    8.9325   10.1570   23.8090 C   0  0  0  0  0  0  0  0  0  0  0  0
    9.9530   11.7535   22.2006 C   0  0  0  0  0  0  0  0  0  0  0  0
   12.2510   15.1848   22.9179 C   0  0  0  0  0  0  0  0  0  0  0  0
    9.6012    9.0085   23.1260 C   0  0  0  0  0  0  0  0  0  0  0  0
   11.5281   15.1120   25.1876 C   0  0  0  0  0  0  0  0  0  0  0  0
    8.1622    9.8331   24.8728 N   0  0  0  0  0  0  0  0  0  0  0  0
   11.0328   12.6102   22.4641 N   0  0  0  0  0  0  0  0  0  0  0  0
    9.6968   11.3120   21.0721 O   0  0  0  0  0  0  0  0  0  0  0  0
   12.2846   16.4207   22.9276 O   0  0  0  0  0  0  0  0  0  0  0  0
   11.8881   14.4168   23.9889 O   0  0  0  0  0  0  0  0  0  0  0  0
    5.2995   11.2261   28.3877 F   0  0  0  0  0  0  0  0  0  0  0  0
   14.6177   14.4553   19.0340 H   0  0  0  0  0  0  0  0  0  0  0  0
   13.5584   12.2431   18.6659 H   0  0  0  0  0  0  0  0  0  0  0  0
    7.0793   14.2278   25.5441 H   0  0  0  0  0  0  0  0  0  0  0  0
   14.0072   15.8115   21.0063 H   0  0  0  0  0  0  0  0  0  0  0  0
   11.8863   11.3847   20.2687 H   0  0  0  0  0  0  0  0  0  0  0  0
    5.6736   13.6527   27.4845 H   0  0  0  0  0  0  0  0  0  0  0  0
    8.5843   13.4964   23.6953 H   0  0  0  0  0  0  0  0  0  0  0  0
    6.6136    9.5057   26.9571 H   0  0  0  0  0  0  0  0  0  0  0  0
   10.5844    8.8221   23.5727 H   0  0  0  0  0  0  0  0  0  0  0  0
    9.0002    8.0949   23.2083 H   0  0  0  0  0  0  0  0  0  0  0  0
    9.7348    9.2082   22.0558 H   0  0  0  0  0  0  0  0  0  0  0  0
   11.2607   14.3894   25.9624 H   0  0  0  0  0  0  0  0  0  0  0  0
   10.6832   15.7751   24.9855 H   0  0  0  0  0  0  0  0  0  0  0  0
   12.3817   15.7050   25.5246 H   0  0  0  0  0  0  0  0  0  0  0  0
   11.1382   12.9045   23.4318 H   0  0  0  0  0  0  0  0  0  0  0  0
  1  2  1  0  0  0  0
  1  4  2  0  0  0  0
  2  5  2  0  0  0  0
  3  6  2  0  0  0  0
  3  9  1  0  0  0  0
  4 10  1  0  0  0  0
  5 13  1  0  0  0  0
  6 14  1  0  0  0  0
  7  9  2  0  0  0  0
  7 11  1  0  0  0  0
  8 12  1  0  0  0  0
  8 14  2  0  0  0  0
  9 12  1  0  0  0  0
 10 13  2  0  0  0  0
 10 17  1  0  0  0  0
 11 15  2  0  0  0  0
 11 16  1  0  0  0  0
 12 20  2  0  0  0  0
 13 21  1  0  0  0  0
 14 25  1  0  0  0  0
 15 18  1  0  0  0  0
 15 20  1  0  0  0  0
 16 21  1  0  0  0  0
 16 22  2  0  0  0  0
 17 23  2  0  0  0  0
 17 24  1  0  0  0  0
 19 24  1  0  0  0  0
  1 26  1  0  0  0  0
  2 27  1  0  0  0  0
  3 28  1  0  0  0  0
  4 29  1  0  0  0  0
  5 30  1  0  0  0  0
  6 31  1  0  0  0  0
  7 32  1  0  0  0  0
  8 33  1  0  0  0  0
 18 34  1  0  0  0  0
 18 35  1  0  0  0  0
 18 36  1  0  0  0  0
 19 37  1  0  0  0  0
 19 38  1  0  0  0  0
 19 39  1  0  0  0  0
 21 40  1  0  0  0  0
M  END
> <idnumber>
Z199552118

> <heavy_atoms>
25

> <LogS>
-4.878

> <LogP>
3.741

> <rotating_bonds>
4

> <PSA>
68.29

> <hb_acceptors>
3

> <hb_donors>
1

> <Collection>
Legacy

> <link>
https://www.enaminestore.com/catalog/Z199552118

> <ROCS_ShapeQuery>
_x1140_x0812_0A_x1140_0A_x1097_0A_x0365_0A_x1097_0A_x0310_0A

> <ROCS_TanimotoCombo>
0.634 

> <ROCS_ShapeTanimoto>
0.279 

> <ROCS_ColorTanimoto>
0.356 

> <ROCS_RefTversky>
0.253 

> <ROCS_RefColorTversky>
0.495 

> <ROCS_RefTverskyCombo>
0.748 

> <ROCS_FitTversky>
1.587 

> <ROCS_FitColorTversky>
0.558 

> <ROCS_FitTverskyCombo>
2.145 

> <ROCS_ColorScore>
-3.939

> <ROCS_Overlap>
2595.740

> <ROCS_Rank>
285                 

$$$$
untitled-dbase-970847_21
  -OEChem-02092421083D

 46 48  0     1  0  0  0  0  0999 V2000
    8.4182   12.0785   24.3252 C   0  0  0  0  0  0  0  0  0  0  0  0
    7.8047   10.9029   24.7980 C   0  0  0  0  0  0  0  0  0  0  0  0
    9.4626   11.6336   23.5520 C   0  0  0  0  0  0  0  0  0  0  0  0
   10.5663   13.7272   22.7015 C   0  0  0  0  0  0  0  0  0  0  0  0
   13.5136   14.3151   19.8608 C   0  0  0  0  0  0  0  0  0  0  0  0
   12.9922   15.6059   19.2934 C   0  0  0  0  0  0  0  0  0  0  0  0
   12.6689   14.4149   23.8219 C   0  0  0  0  0  0  0  0  0  0  0  0
   12.3721   15.8832   24.0314 C   0  0  0  0  0  0  0  0  0  0  0  0
   12.0003   14.1203   22.4993 C   0  0  2  0  0  0  0  0  0  0  0  0
   13.2517   15.4842   20.7694 C   0  0  0  0  0  0  0  0  0  0  0  0
   12.0884   15.4473   21.7517 C   0  0  2  0  0  0  0  0  0  0  0  0
    6.6289   10.7968   25.6784 C   0  0  0  0  0  0  0  0  0  0  0  0
   11.7516    9.5748   23.4448 C   0  0  0  0  0  0  0  0  0  0  0  0
   10.2379    9.5391   21.4231 C   0  0  0  0  0  0  0  0  0  0  0  0
    9.9731    7.8536   23.2282 C   0  0  0  0  0  0  0  0  0  0  0  0
   10.3055    9.3412   22.9539 C   0  0  0  0  0  0  0  0  0  0  0  0
    8.4090    9.7946   24.3616 N   0  0  0  0  0  0  0  0  0  0  0  0
    9.4129   10.2717   23.6063 N   0  0  0  0  0  0  0  0  0  0  0  0
   10.4366   12.3489   22.8156 N   0  0  0  0  0  0  0  0  0  0  0  0
    9.6830   14.5770   22.7514 O   0  0  0  0  0  0  0  0  0  0  0  0
   12.3079   16.4787   22.7322 O   0  0  0  0  0  0  0  0  0  0  0  0
    8.1409   13.1050   24.5186 H   0  0  0  0  0  0  0  0  0  0  0  0
   12.8371   13.4701   19.8943 H   0  0  0  0  0  0  0  0  0  0  0  0
   14.5455   14.0559   19.6581 H   0  0  0  0  0  0  0  0  0  0  0  0
   13.6745   16.2124   18.7105 H   0  0  0  0  0  0  0  0  0  0  0  0
   11.9664   15.6254   18.9467 H   0  0  0  0  0  0  0  0  0  0  0  0
   13.7518   14.2746   23.7208 H   0  0  0  0  0  0  0  0  0  0  0  0
   12.3233   13.7999   24.6583 H   0  0  0  0  0  0  0  0  0  0  0  0
   11.4013   16.0282   24.5174 H   0  0  0  0  0  0  0  0  0  0  0  0
   13.1375   16.3847   24.6302 H   0  0  0  0  0  0  0  0  0  0  0  0
   12.4820   13.2913   21.9667 H   0  0  0  0  0  0  0  0  0  0  0  0
   14.1094   16.0079   21.1742 H   0  0  0  0  0  0  0  0  0  0  0  0
   11.1743   15.6870   21.2071 H   0  0  0  0  0  0  0  0  0  0  0  0
    5.6934   10.7579   25.0944 H   0  0  0  0  0  0  0  0  0  0  0  0
    6.6626    9.8928   26.3123 H   0  0  0  0  0  0  0  0  0  0  0  0
    6.5508   11.6509   26.3747 H   0  0  0  0  0  0  0  0  0  0  0  0
   11.8272    9.4403   24.5300 H   0  0  0  0  0  0  0  0  0  0  0  0
   12.4629    8.8793   22.9867 H   0  0  0  0  0  0  0  0  0  0  0  0
   12.0869   10.5914   23.2086 H   0  0  0  0  0  0  0  0  0  0  0  0
    9.2283    9.3832   21.0285 H   0  0  0  0  0  0  0  0  0  0  0  0
   10.5369   10.5556   21.1421 H   0  0  0  0  0  0  0  0  0  0  0  0
   10.9048    8.8387   20.9069 H   0  0  0  0  0  0  0  0  0  0  0  0
    8.9539    7.6115   22.9031 H   0  0  0  0  0  0  0  0  0  0  0  0
   10.6492    7.1819   22.6866 H   0  0  0  0  0  0  0  0  0  0  0  0
   10.0332    7.6167   24.2967 H   0  0  0  0  0  0  0  0  0  0  0  0
   11.1144   11.7755   22.3177 H   0  0  0  0  0  0  0  0  0  0  0  0
  1  2  1  0  0  0  0
  1  3  2  0  0  0  0
  2 12  1  0  0  0  0
  2 17  2  0  0  0  0
  3 18  1  0  0  0  0
  3 19  1  0  0  0  0
  4  9  1  6  0  0  0
  4 19  1  0  0  0  0
  4 20  2  0  0  0  0
  5  6  1  0  0  0  0
  5 10  1  0  0  0  0
  6 10  1  0  0  0  0
  7  8  1  0  0  0  0
  7  9  1  0  0  0  0
  8 21  1  0  0  0  0
  9 11  1  0  0  0  0
 10 11  1  1  0  0  0
 11 21  1  0  0  0  0
 13 16  1  0  0  0  0
 14 16  1  0  0  0  0
 15 16  1  0  0  0  0
 16 18  1  0  0  0  0
 17 18  1  0  0  0  0
  1 22  1  0  0  0  0
  5 23  1  0  0  0  0
  5 24  1  0  0  0  0
  6 25  1  0  0  0  0
  6 26  1  0  0  0  0
  7 27  1  0  0  0  0
  7 28  1  0  0  0  0
  8 29  1  0  0  0  0
  8 30  1  0  0  0  0
  9 31  1  0  0  0  0
 10 32  1  0  0  0  0
 11 33  1  0  0  0  0
 12 34  1  0  0  0  0
 12 35  1  0  0  0  0
 12 36  1  0  0  0  0
 13 37  1  0  0  0  0
 13 38  1  0  0  0  0
 13 39  1  0  0  0  0
 14 40  1  0  0  0  0
 14 41  1  0  0  0  0
 14 42  1  0  0  0  0
 15 43  1  0  0  0  0
 15 44  1  0  0  0  0
 15 45  1  0  0  0  0
 19 46  1  0  0  0  0
M  END
> <idnumber>
Z2905688936

> <heavy_atoms>
21

> <LogS>
-2.197

> <LogP>
2.014

> <rotating_bonds>
4

> <PSA>
56.15

> <hb_acceptors>
3

> <hb_donors>
1

> <Collection>
HTS

> <link>
https://www.enaminestore.com/catalog/Z2905688936

> <ROCS_ShapeQuery>
_x1140_x0812_0A_x1140_0A_x1097_0A_x0365_0A_x1097_0A_x0310_0A

> <ROCS_TanimotoCombo>
0.634 

> <ROCS_ShapeTanimoto>
0.249 

> <ROCS_ColorTanimoto>
0.386 

> <ROCS_RefTversky>
0.227 

> <ROCS_RefColorTversky>
0.525 

> <ROCS_RefTverskyCombo>
0.752 

> <ROCS_FitTversky>
1.633 

> <ROCS_FitColorTversky>
0.592 

> <ROCS_FitTverskyCombo>
2.225 

> <ROCS_ColorScore>
-4.174

> <ROCS_Overlap>
2331.298

> <ROCS_Rank>
286                 

$$$$
untitled-dbase-560264_161
  -OEChem-02092421083D

 44 46  0     0  0  0  0  0  0999 V2000
    8.5295    6.4927   21.5503 C   0  0  0  0  0  0  0  0  0  0  0  0
    7.1979   11.9069   25.0019 C   0  0  0  0  0  0  0  0  0  0  0  0
    8.0554   12.4108   24.0303 C   0  0  0  0  0  0  0  0  0  0  0  0
    8.6439    7.6744   22.2825 C   0  0  0  0  0  0  0  0  0  0  0  0
    9.6748    5.8493   21.0810 C   0  0  0  0  0  0  0  0  0  0  0  0
   11.0488    7.5694   22.0761 C   0  0  0  0  0  0  0  0  0  0  0  0
    7.3293   10.5734   25.3544 C   0  0  0  0  0  0  0  0  0  0  0  0
    9.0046   11.5775   23.4490 C   0  0  0  0  0  0  0  0  0  0  0  0
    9.9036    8.2128   22.5454 C   0  0  0  0  0  0  0  0  0  0  0  0
   10.9344    6.3877   21.3439 C   0  0  0  0  0  0  0  0  0  0  0  0
    9.0553   10.2588   23.8711 C   0  0  0  0  0  0  0  0  0  0  0  0
    9.8959   12.1141   22.4272 C   0  0  0  0  0  0  0  0  0  0  0  0
   13.1104   15.8839   23.6683 C   0  0  0  0  0  0  0  0  0  0  0  0
   13.0781   13.7687   22.3499 C   0  0  0  0  0  0  0  0  0  0  0  0
   12.1267   13.8548   24.7093 C   0  0  0  0  0  0  0  0  0  0  0  0
   11.6458   13.7678   21.8151 C   0  0  0  0  0  0  0  0  0  0  0  0
   10.7273   13.8655   24.0961 C   0  0  0  0  0  0  0  0  0  0  0  0
   13.1999   14.3688   23.7499 C   0  0  0  0  0  0  0  0  0  0  0  0
    8.2391    9.7334   24.8121 N   0  0  0  0  0  0  0  0  0  0  0  0
   10.7282   13.1871   22.7947 N   0  0  0  0  0  0  0  0  0  0  0  0
   13.8617   16.5358   24.6173 N   0  0  0  0  0  0  0  0  0  0  0  0
   10.0188    9.4022   23.2814 N   0  0  0  0  0  0  0  0  0  0  0  0
    9.9023   11.6285   21.2947 O   0  0  0  0  0  0  0  0  0  0  0  0
   12.4358   16.4528   22.8135 O   0  0  0  0  0  0  0  0  0  0  0  0
   12.0342    5.7689   20.8947 F   0  0  0  0  0  0  0  0  0  0  0  0
    7.5487    6.0729   21.3460 H   0  0  0  0  0  0  0  0  0  0  0  0
    6.4493   12.5378   25.4673 H   0  0  0  0  0  0  0  0  0  0  0  0
    7.9742   13.4534   23.7342 H   0  0  0  0  0  0  0  0  0  0  0  0
    7.7450    8.1677   22.6428 H   0  0  0  0  0  0  0  0  0  0  0  0
    9.5858    4.9291   20.5113 H   0  0  0  0  0  0  0  0  0  0  0  0
   12.0355    7.9800   22.2745 H   0  0  0  0  0  0  0  0  0  0  0  0
    6.6844   10.1321   26.1072 H   0  0  0  0  0  0  0  0  0  0  0  0
   13.4368   12.7315   22.3805 H   0  0  0  0  0  0  0  0  0  0  0  0
   13.7247   14.3037   21.6438 H   0  0  0  0  0  0  0  0  0  0  0  0
   12.1205   14.4494   25.6308 H   0  0  0  0  0  0  0  0  0  0  0  0
   12.3740   12.8252   24.9984 H   0  0  0  0  0  0  0  0  0  0  0  0
   11.3072   14.7901   21.6109 H   0  0  0  0  0  0  0  0  0  0  0  0
   11.6033   13.2151   20.8709 H   0  0  0  0  0  0  0  0  0  0  0  0
   10.0234   13.4002   24.7910 H   0  0  0  0  0  0  0  0  0  0  0  0
   10.3803   14.8918   23.9297 H   0  0  0  0  0  0  0  0  0  0  0  0
   14.1815   14.1563   24.1571 H   0  0  0  0  0  0  0  0  0  0  0  0
   14.3996   15.9830   25.2766 H   0  0  0  0  0  0  0  0  0  0  0  0
   13.9000   17.5476   24.6850 H   0  0  0  0  0  0  0  0  0  0  0  0
   10.9715    9.7159   23.4218 H   0  0  0  0  0  0  0  0  0  0  0  0
  1  4  2  0  0  0  0
  1  5  1  0  0  0  0
  2  3  2  0  0  0  0
  2  7  1  0  0  0  0
  3  8  1  0  0  0  0
  4  9  1  0  0  0  0
  5 10  2  0  0  0  0
  6  9  2  0  0  0  0
  6 10  1  0  0  0  0
  7 19  2  0  0  0  0
  8 11  2  0  0  0  0
  8 12  1  0  0  0  0
  9 22  1  0  0  0  0
 10 25  1  0  0  0  0
 11 19  1  0  0  0  0
 11 22  1  0  0  0  0
 12 20  1  0  0  0  0
 12 23  2  0  0  0  0
 13 18  1  0  0  0  0
 13 21  1  0  0  0  0
 13 24  2  0  0  0  0
 14 16  1  0  0  0  0
 14 18  1  0  0  0  0
 15 17  1  0  0  0  0
 15 18  1  0  0  0  0
 16 20  1  0  0  0  0
 17 20  1  0  0  0  0
  1 26  1  0  0  0  0
  2 27  1  0  0  0  0
  3 28  1  0  0  0  0
  4 29  1  0  0  0  0
  5 30  1  0  0  0  0
  6 31  1  0  0  0  0
  7 32  1  0  0  0  0
 14 33  1  0  0  0  0
 14 34  1  0  0  0  0
 15 35  1  0  0  0  0
 15 36  1  0  0  0  0
 16 37  1  0  0  0  0
 16 38  1  0  0  0  0
 17 39  1  0  0  0  0
 17 40  1  0  0  0  0
 18 41  1  0  0  0  0
 21 42  1  0  0  0  0
 21 43  1  0  0  0  0
 22 44  1  0  0  0  0
M  END
> <idnumber>
Z454432600

> <heavy_atoms>
25

> <LogS>
-3.65

> <LogP>
0.978

> <rotating_bonds>
4

> <PSA>
88.32

> <hb_acceptors>
4

> <hb_donors>
2

> <Collection>
HTS

> <link>
https://www.enaminestore.com/catalog/Z454432600

> <ROCS_ShapeQuery>
_x1140_x0812_0A_x1140_0A_x1097_0A_x0365_0A_x1097_0A_x0310_0A

> <ROCS_TanimotoCombo>
0.634 

> <ROCS_ShapeTanimoto>
0.249 

> <ROCS_ColorTanimoto>
0.385 

> <ROCS_RefTversky>
0.231 

> <ROCS_RefColorTversky>
0.556 

> <ROCS_RefTverskyCombo>
0.787 

> <ROCS_FitTversky>
1.469 

> <ROCS_FitColorTversky>
0.556 

> <ROCS_FitTverskyCombo>
2.026 

> <ROCS_ColorScore>
-4.452

> <ROCS_Overlap>
2370.753

> <ROCS_Rank>
287                 

$$$$
untitled-dbase-626305_45
  -OEChem-02092421083D

 29 30  0     0  0  0  0  0  0999 V2000
    7.5610   12.0859   25.1739 C   0  0  0  0  0  0  0  0  0  0  0  0
    8.4736   12.5241   24.2208 C   0  0  0  0  0  0  0  0  0  0  0  0
    7.4713   10.7231   25.4076 C   0  0  0  0  0  0  0  0  0  0  0  0
    9.2576   11.5992   23.5401 C   0  0  0  0  0  0  0  0  0  0  0  0
    9.0921   10.2583   23.8470 C   0  0  0  0  0  0  0  0  0  0  0  0
   10.2250   12.0555   22.5295 C   0  0  0  0  0  0  0  0  0  0  0  0
   11.3305   12.3678   25.4460 C   0  0  0  0  0  0  0  0  0  0  0  0
   12.5518   13.1852   25.1384 C   0  0  0  0  0  0  0  0  0  0  0  0
   11.3051   13.3608   24.3193 C   0  0  0  0  0  0  0  0  0  0  0  0
   12.2883   13.4530   22.0558 C   0  0  0  0  0  0  0  0  0  0  0  0
   12.2312   14.9656   22.0108 C   0  0  0  0  0  0  0  0  0  0  0  0
    8.2160    9.7947   24.7664 N   0  0  0  0  0  0  0  0  0  0  0  0
   11.2441   12.9252   22.9312 N   0  0  0  0  0  0  0  0  0  0  0  0
   10.0684   11.6189   21.3898 O   0  0  0  0  0  0  0  0  0  0  0  0
    9.8452    9.3137   23.1987 O   0  0  0  0  0  0  0  0  0  0  0  0
   12.7825   15.4830   23.1371 F   0  0  0  0  0  0  0  0  0  0  0  0
   10.9325   15.3611   22.0011 F   0  0  0  0  0  0  0  0  0  0  0  0
    6.9402   12.7884   25.7181 H   0  0  0  0  0  0  0  0  0  0  0  0
    8.5655   13.5875   24.0166 H   0  0  0  0  0  0  0  0  0  0  0  0
    6.7757   10.3296   26.1414 H   0  0  0  0  0  0  0  0  0  0  0  0
   11.3591   11.3121   25.2054 H   0  0  0  0  0  0  0  0  0  0  0  0
   10.7738   12.6087   26.3436 H   0  0  0  0  0  0  0  0  0  0  0  0
   12.8165   13.9763   25.8289 H   0  0  0  0  0  0  0  0  0  0  0  0
   13.3972   12.6776   24.6904 H   0  0  0  0  0  0  0  0  0  0  0  0
   10.7374   14.2700   24.4861 H   0  0  0  0  0  0  0  0  0  0  0  0
   12.1486   13.0508   21.0472 H   0  0  0  0  0  0  0  0  0  0  0  0
   13.2731   13.1265   22.4056 H   0  0  0  0  0  0  0  0  0  0  0  0
   12.7332   15.3921   21.1373 H   0  0  0  0  0  0  0  0  0  0  0  0
    9.6133    8.4325   23.5228 H   0  0  0  0  0  0  0  0  0  0  0  0
  1  2  2  0  0  0  0
  1  3  1  0  0  0  0
  2  4  1  0  0  0  0
  3 12  2  0  0  0  0
  4  5  2  0  0  0  0
  4  6  1  0  0  0  0
  5 12  1  0  0  0  0
  5 15  1  0  0  0  0
  6 13  1  0  0  0  0
  6 14  2  0  0  0  0
  7  8  1  0  0  0  0
  7  9  1  0  0  0  0
  8  9  1  0  0  0  0
  9 13  1  0  0  0  0
 10 11  1  0  0  0  0
 10 13  1  0  0  0  0
 11 16  1  0  0  0  0
 11 17  1  0  0  0  0
  1 18  1  0  0  0  0
  2 19  1  0  0  0  0
  3 20  1  0  0  0  0
  7 21  1  0  0  0  0
  7 22  1  0  0  0  0
  8 23  1  0  0  0  0
  8 24  1  0  0  0  0
  9 25  1  0  0  0  0
 10 26  1  0  0  0  0
 10 27  1  0  0  0  0
 11 28  1  0  0  0  0
 15 29  1  0  0  0  0
M  END
> <idnumber>
Z1144979658

> <heavy_atoms>
17

> <LogS>
-2.131

> <LogP>
1.034

> <rotating_bonds>
4

> <PSA>
53.43

> <hb_acceptors>
3

> <hb_donors>
1

> <Collection>
HTS

> <link>
https://www.enaminestore.com/catalog/Z1144979658

> <ROCS_ShapeQuery>
_x1140_x0812_0A_x1140_0A_x1097_0A_x0365_0A_x1097_0A_x0310_0A

> <ROCS_TanimotoCombo>
0.634 

> <ROCS_ShapeTanimoto>
0.246 

> <ROCS_ColorTanimoto>
0.389 

> <ROCS_RefTversky>
0.221 

> <ROCS_RefColorTversky>
0.464 

> <ROCS_RefTverskyCombo>
0.685 

> <ROCS_FitTversky>
1.811 

> <ROCS_FitColorTversky>
0.706 

> <ROCS_FitTverskyCombo>
2.517 

> <ROCS_ColorScore>
-3.641

> <ROCS_Overlap>
2271.424

> <ROCS_Rank>
288                 

$$$$
untitled-dbase-98223_166
  -OEChem-02092421083D

 33 34  0     0  0  0  0  0  0999 V2000
    7.4201   12.0177   25.0940 C   0  0  0  0  0  0  0  0  0  0  0  0
    8.2844   12.4305   24.0861 C   0  0  0  0  0  0  0  0  0  0  0  0
    7.4110   10.6736   25.4304 C   0  0  0  0  0  0  0  0  0  0  0  0
   12.1585   17.1468   22.4405 C   0  0  0  0  0  0  0  0  0  0  0  0
   13.5521   15.1413   22.7329 C   0  0  0  0  0  0  0  0  0  0  0  0
    9.1018   11.4999   23.4544 C   0  0  0  0  0  0  0  0  0  0  0  0
   11.5204   16.0057   22.0067 C   0  0  0  0  0  0  0  0  0  0  0  0
   12.3275   14.8438   22.1762 C   0  0  0  0  0  0  0  0  0  0  0  0
    9.0176   10.1790   23.8643 C   0  0  0  0  0  0  0  0  0  0  0  0
   10.0000   11.9414   22.3964 C   0  0  0  0  0  0  0  0  0  0  0  0
   10.1532   15.9999   21.4324 C   0  0  0  0  0  0  0  0  0  0  0  0
   11.2695    9.3101   23.2323 C   0  0  0  0  0  0  0  0  0  0  0  0
   11.9049   13.4540   21.7968 C   0  0  0  0  0  0  0  0  0  0  0  0
    8.1903    9.7403   24.8394 N   0  0  0  0  0  0  0  0  0  0  0  0
    9.8459    9.2236   23.2233 N   0  0  0  0  0  0  0  0  0  0  0  0
   10.9592   12.9001   22.7390 N   0  0  0  0  0  0  0  0  0  0  0  0
    9.8866   11.4881   21.2448 O   0  0  0  0  0  0  0  0  0  0  0  0
   13.7244   16.8154   23.0491 S   0  0  0  0  0  0  0  0  0  0  0  0
    6.7727   12.7255   25.5989 H   0  0  0  0  0  0  0  0  0  0  0  0
    8.3119   13.4791   23.8016 H   0  0  0  0  0  0  0  0  0  0  0  0
    6.7547   10.3009   26.2099 H   0  0  0  0  0  0  0  0  0  0  0  0
   11.7842   18.1612   22.4317 H   0  0  0  0  0  0  0  0  0  0  0  0
   14.3565   14.4589   22.9706 H   0  0  0  0  0  0  0  0  0  0  0  0
   10.1874   16.1352   20.3414 H   0  0  0  0  0  0  0  0  0  0  0  0
    9.6276   15.0557   21.6424 H   0  0  0  0  0  0  0  0  0  0  0  0
    9.5305   16.8028   21.8562 H   0  0  0  0  0  0  0  0  0  0  0  0
   11.5796   10.2017   23.7970 H   0  0  0  0  0  0  0  0  0  0  0  0
   11.6883    8.4109   23.7079 H   0  0  0  0  0  0  0  0  0  0  0  0
   11.6388    9.3840   22.1988 H   0  0  0  0  0  0  0  0  0  0  0  0
   11.4363   13.4497   20.8066 H   0  0  0  0  0  0  0  0  0  0  0  0
   12.7666   12.7797   21.7518 H   0  0  0  0  0  0  0  0  0  0  0  0
    9.3823    8.4728   22.7544 H   0  0  0  0  0  0  0  0  0  0  0  0
   10.9665   13.2824   23.6790 H   0  0  0  0  0  0  0  0  0  0  0  0
  1  2  2  0  0  0  0
  1  3  1  0  0  0  0
  2  6  1  0  0  0  0
  3 14  2  0  0  0  0
  4  7  2  0  0  0  0
  4 18  1  0  0  0  0
  5  8  2  0  0  0  0
  5 18  1  0  0  0  0
  6  9  2  0  0  0  0
  6 10  1  0  0  0  0
  7  8  1  0  0  0  0
  7 11  1  0  0  0  0
  8 13  1  0  0  0  0
  9 14  1  0  0  0  0
  9 15  1  0  0  0  0
 10 16  1  0  0  0  0
 10 17  2  0  0  0  0
 12 15  1  0  0  0  0
 13 16  1  0  0  0  0
  1 19  1  0  0  0  0
  2 20  1  0  0  0  0
  3 21  1  0  0  0  0
  4 22  1  0  0  0  0
  5 23  1  0  0  0  0
 11 24  1  0  0  0  0
 11 25  1  0  0  0  0
 11 26  1  0  0  0  0
 12 27  1  0  0  0  0
 12 28  1  0  0  0  0
 12 29  1  0  0  0  0
 13 30  1  0  0  0  0
 13 31  1  0  0  0  0
 15 32  1  0  0  0  0
 16 33  1  0  0  0  0
M  END
> <idnumber>
Z1392664871

> <heavy_atoms>
18

> <LogS>
-2.51

> <LogP>
3.096

> <rotating_bonds>
4

> <PSA>
54.02

> <hb_acceptors>
3

> <hb_donors>
2

> <Collection>
Advanced

> <link>
https://www.enaminestore.com/catalog/Z1392664871

> <ROCS_ShapeQuery>
_x1140_x0812_0A_x1140_0A_x1097_0A_x0365_0A_x1097_0A_x0310_0A

> <ROCS_TanimotoCombo>
0.634 

> <ROCS_ShapeTanimoto>
0.242 

> <ROCS_ColorTanimoto>
0.392 

> <ROCS_RefTversky>
0.219 

> <ROCS_RefColorTversky>
0.499 

> <ROCS_RefTverskyCombo>
0.719 

> <ROCS_FitTversky>
1.750 

> <ROCS_FitColorTversky>
0.647 

> <ROCS_FitTverskyCombo>
2.397 

> <ROCS_ColorScore>
-3.946

> <ROCS_Overlap>
2248.449

> <ROCS_Rank>
289                 

$$$$
untitled-dbase-173097_22
  -OEChem-02092421083D

 39 40  0     0  0  0  0  0  0999 V2000
   12.5295   15.1308   22.6224 C   0  0  0  0  0  0  0  0  0  0  0  0
    3.6301   11.3553   26.3774 C   0  0  0  0  0  0  0  0  0  0  0  0
    4.6820   11.9465   27.0771 C   0  0  0  0  0  0  0  0  0  0  0  0
    3.8774   10.6927   25.1751 C   0  0  0  0  0  0  0  0  0  0  0  0
    5.9812   11.8752   26.5745 C   0  0  0  0  0  0  0  0  0  0  0  0
    5.1766   10.6214   24.6725 C   0  0  0  0  0  0  0  0  0  0  0  0
    9.5048   11.6507   24.0932 C   0  0  0  0  0  0  0  0  0  0  0  0
    6.2286   11.2127   25.3722 C   0  0  0  0  0  0  0  0  0  0  0  0
    9.3120   10.2605   24.2023 C   0  0  0  0  0  0  0  0  0  0  0  0
    8.3248   12.1969   24.5357 C   0  0  0  0  0  0  0  0  0  0  0  0
   10.8821   12.3541   22.0879 C   0  0  0  0  0  0  0  0  0  0  0  0
   10.2626    9.1875   23.8623 C   0  0  0  0  0  0  0  0  0  0  0  0
    7.9020   13.6064   24.6641 C   0  0  0  0  0  0  0  0  0  0  0  0
   12.2634   13.1041   20.1341 C   0  0  0  0  0  0  0  0  0  0  0  0
   12.9401   13.7434   22.4149 C   0  0  0  0  0  0  0  0  0  0  0  0
   10.7306   12.3808   23.6016 C   0  0  0  0  0  0  0  0  0  0  0  0
   12.2062   16.2327   22.7896 N   0  0  0  0  0  0  0  0  0  0  0  0
    8.1045    9.9432   24.6771 N   0  0  0  0  0  0  0  0  0  0  0  0
    7.5281   11.1417   24.8703 N   0  0  0  0  0  0  0  0  0  0  0  0
   11.9852   13.0403   21.5671 N   0  0  0  0  0  0  0  0  0  0  0  0
   10.0650   11.7543   21.3837 O   0  0  0  0  0  0  0  0  0  0  0  0
    2.6187   11.4089   26.7692 H   0  0  0  0  0  0  0  0  0  0  0  0
    4.4899   12.4613   28.0139 H   0  0  0  0  0  0  0  0  0  0  0  0
    3.0580   10.2313   24.6316 H   0  0  0  0  0  0  0  0  0  0  0  0
    6.7922   12.3397   27.1302 H   0  0  0  0  0  0  0  0  0  0  0  0
    5.3555   10.1011   23.7346 H   0  0  0  0  0  0  0  0  0  0  0  0
   10.8908    8.9201   24.7290 H   0  0  0  0  0  0  0  0  0  0  0  0
    9.7506    8.2685   23.5262 H   0  0  0  0  0  0  0  0  0  0  0  0
   10.9385    9.4758   23.0376 H   0  0  0  0  0  0  0  0  0  0  0  0
    7.4180   13.9606   23.7397 H   0  0  0  0  0  0  0  0  0  0  0  0
    7.1886   13.7494   25.4931 H   0  0  0  0  0  0  0  0  0  0  0  0
    8.7536   14.2751   24.8752 H   0  0  0  0  0  0  0  0  0  0  0  0
   11.7625   13.9827   19.7016 H   0  0  0  0  0  0  0  0  0  0  0  0
   13.3488   13.1855   19.9747 H   0  0  0  0  0  0  0  0  0  0  0  0
   11.8887   12.1918   19.6470 H   0  0  0  0  0  0  0  0  0  0  0  0
   13.9175   13.6904   21.9268 H   0  0  0  0  0  0  0  0  0  0  0  0
   12.9992   13.2037   23.3644 H   0  0  0  0  0  0  0  0  0  0  0  0
   11.6194   11.9274   24.0565 H   0  0  0  0  0  0  0  0  0  0  0  0
   10.6797   13.4233   23.9380 H   0  0  0  0  0  0  0  0  0  0  0  0
  1 15  1  0  0  0  0
  1 17  3  0  0  0  0
  2  3  1  0  0  0  0
  2  4  2  0  0  0  0
  3  5  2  0  0  0  0
  4  6  1  0  0  0  0
  5  8  1  0  0  0  0
  6  8  2  0  0  0  0
  7  9  1  0  0  0  0
  7 10  2  0  0  0  0
  7 16  1  0  0  0  0
  8 19  1  0  0  0  0
  9 12  1  0  0  0  0
  9 18  2  0  0  0  0
 10 13  1  0  0  0  0
 10 19  1  0  0  0  0
 11 16  1  0  0  0  0
 11 20  1  0  0  0  0
 11 21  2  0  0  0  0
 14 20  1  0  0  0  0
 15 20  1  0  0  0  0
 18 19  1  0  0  0  0
  2 22  1  0  0  0  0
  3 23  1  0  0  0  0
  4 24  1  0  0  0  0
  5 25  1  0  0  0  0
  6 26  1  0  0  0  0
 12 27  1  0  0  0  0
 12 28  1  0  0  0  0
 12 29  1  0  0  0  0
 13 30  1  0  0  0  0
 13 31  1  0  0  0  0
 13 32  1  0  0  0  0
 14 33  1  0  0  0  0
 14 34  1  0  0  0  0
 14 35  1  0  0  0  0
 15 36  1  0  0  0  0
 15 37  1  0  0  0  0
 16 38  1  0  0  0  0
 16 39  1  0  0  0  0
M  END
> <idnumber>
Z1000015460

> <heavy_atoms>
21

> <LogS>
-2.018

> <LogP>
1.204

> <rotating_bonds>
4

> <PSA>
61.92

> <hb_acceptors>
3

> <hb_donors>
0

> <Collection>
Functional

> <link>
https://www.enaminestore.com/catalog/Z1000015460

> <ROCS_ShapeQuery>
_x1140_x0812_0A_x1140_0A_x1097_0A_x0365_0A_x1097_0A_x0310_0A

> <ROCS_TanimotoCombo>
0.634 

> <ROCS_ShapeTanimoto>
0.263 

> <ROCS_ColorTanimoto>
0.371 

> <ROCS_RefTversky>
0.237 

> <ROCS_RefColorTversky>
0.448 

> <ROCS_RefTverskyCombo>
0.686 

> <ROCS_FitTversky>
1.707 

> <ROCS_FitColorTversky>
0.683 

> <ROCS_FitTverskyCombo>
2.390 

> <ROCS_ColorScore>
-3.518

> <ROCS_Overlap>
2437.677

> <ROCS_Rank>
290                 

$$$$
untitled-dbase-515588_50
  -OEChem-02092421083D

 43 46  0     0  0  0  0  0  0999 V2000
    8.3740   12.5312   24.1268 C   0  0  0  0  0  0  0  0  0  0  0  0
    7.4838   12.0481   25.0794 C   0  0  0  0  0  0  0  0  0  0  0  0
    8.8803   10.2837   23.5359 C   0  0  0  0  0  0  0  0  0  0  0  0
    9.0895   11.6388   23.3362 C   0  0  0  0  0  0  0  0  0  0  0  0
    7.3464   10.6747   25.2009 C   0  0  0  0  0  0  0  0  0  0  0  0
   10.0353   12.1182   22.3206 C   0  0  0  0  0  0  0  0  0  0  0  0
    4.3822   11.6734   26.5620 C   0  0  0  0  0  0  0  0  0  0  0  0
    4.3879   10.6281   27.6400 C   0  0  0  0  0  0  0  0  0  0  0  0
   12.5476   14.5416   21.4601 C   0  0  0  0  0  0  0  0  0  0  0  0
   12.4800   14.2769   23.9627 C   0  0  0  0  0  0  0  0  0  0  0  0
   11.0699   14.1638   21.4019 C   0  0  0  0  0  0  0  0  0  0  0  0
   11.0031   13.8959   23.8670 C   0  0  0  0  0  0  0  0  0  0  0  0
   13.3032   17.3512   23.3263 C   0  0  0  0  0  0  0  0  0  0  0  0
   14.5421   16.7587   22.7148 C   0  0  0  0  0  0  0  0  0  0  0  0
    5.6807   11.0701   27.0161 C   0  0  0  0  0  0  0  0  0  0  0  0
   12.9202   15.1754   22.8036 C   0  0  0  0  0  0  0  0  0  0  0  0
    8.0241    9.7769   24.4511 N   0  0  0  0  0  0  0  0  0  0  0  0
   10.6861   13.3351   22.5458 N   0  0  0  0  0  0  0  0  0  0  0  0
    6.4365   10.1982   26.1771 N   0  0  0  0  0  0  0  0  0  0  0  0
   10.1775   11.4007   21.3315 O   0  0  0  0  0  0  0  0  0  0  0  0
   12.2724   16.4560   22.9121 O   0  0  0  0  0  0  0  0  0  0  0  0
   14.3445   15.3543   22.8702 O   0  0  0  0  0  0  0  0  0  0  0  0
    8.5035   13.6037   24.0099 H   0  0  0  0  0  0  0  0  0  0  0  0
    6.9209   12.7374   25.7006 H   0  0  0  0  0  0  0  0  0  0  0  0
    9.4096    9.5382   22.9499 H   0  0  0  0  0  0  0  0  0  0  0  0
    3.9945   11.3921   25.5908 H   0  0  0  0  0  0  0  0  0  0  0  0
    4.1723   12.6957   26.8516 H   0  0  0  0  0  0  0  0  0  0  0  0
    4.1814   10.9478   28.6538 H   0  0  0  0  0  0  0  0  0  0  0  0
    4.0031    9.6469   27.3904 H   0  0  0  0  0  0  0  0  0  0  0  0
   13.1518   13.6426   21.2898 H   0  0  0  0  0  0  0  0  0  0  0  0
   12.7860   15.2338   20.6430 H   0  0  0  0  0  0  0  0  0  0  0  0
   12.6712   14.7811   24.9204 H   0  0  0  0  0  0  0  0  0  0  0  0
   13.0838   13.3592   23.9757 H   0  0  0  0  0  0  0  0  0  0  0  0
   10.4563   15.0727   21.3608 H   0  0  0  0  0  0  0  0  0  0  0  0
   10.8510   13.5874   20.4925 H   0  0  0  0  0  0  0  0  0  0  0  0
   10.7514   13.1306   24.6130 H   0  0  0  0  0  0  0  0  0  0  0  0
   10.3873   14.7728   24.0909 H   0  0  0  0  0  0  0  0  0  0  0  0
   13.3450   17.4161   24.4163 H   0  0  0  0  0  0  0  0  0  0  0  0
   13.0823   18.3412   22.9123 H   0  0  0  0  0  0  0  0  0  0  0  0
   14.6729   17.0174   21.6615 H   0  0  0  0  0  0  0  0  0  0  0  0
   15.4416   17.0404   23.2724 H   0  0  0  0  0  0  0  0  0  0  0  0
    6.3253   11.6994   27.6197 H   0  0  0  0  0  0  0  0  0  0  0  0
    6.3445    9.2061   26.2570 H   0  0  0  0  0  0  0  0  0  0  0  0
  1  2  2  0  0  0  0
  1  4  1  0  0  0  0
  2  5  1  0  0  0  0
  3  4  2  0  0  0  0
  3 17  1  0  0  0  0
  4  6  1  0  0  0  0
  5 17  2  0  0  0  0
  5 19  1  0  0  0  0
  6 18  1  0  0  0  0
  6 20  2  0  0  0  0
  7  8  1  0  0  0  0
  7 15  1  0  0  0  0
  8 15  1  0  0  0  0
  9 11  1  0  0  0  0
  9 16  1  0  0  0  0
 10 12  1  0  0  0  0
 10 16  1  0  0  0  0
 11 18  1  0  0  0  0
 12 18  1  0  0  0  0
 13 14  1  0  0  0  0
 13 21  1  0  0  0  0
 14 22  1  0  0  0  0
 15 19  1  0  0  0  0
 16 21  1  0  0  0  0
 16 22  1  0  0  0  0
  1 23  1  0  0  0  0
  2 24  1  0  0  0  0
  3 25  1  0  0  0  0
  7 26  1  0  0  0  0
  7 27  1  0  0  0  0
  8 28  1  0  0  0  0
  8 29  1  0  0  0  0
  9 30  1  0  0  0  0
  9 31  1  0  0  0  0
 10 32  1  0  0  0  0
 10 33  1  0  0  0  0
 11 34  1  0  0  0  0
 11 35  1  0  0  0  0
 12 36  1  0  0  0  0
 12 37  1  0  0  0  0
 13 38  1  0  0  0  0
 13 39  1  0  0  0  0
 14 40  1  0  0  0  0
 14 41  1  0  0  0  0
 15 42  1  0  0  0  0
 19 43  1  0  0  0  0
M  END
> <idnumber>
Z786223372

> <heavy_atoms>
22

> <LogS>
-2.76

> <LogP>
0.379

> <rotating_bonds>
3

> <PSA>
63.69

> <hb_acceptors>
5

> <hb_donors>
1

> <Collection>
Legacy

> <link>
https://www.enaminestore.com/catalog/Z786223372

> <ROCS_ShapeQuery>
_x1140_x0812_0A_x1140_0A_x1097_0A_x0365_0A_x1097_0A_x0310_0A

> <ROCS_TanimotoCombo>
0.634 

> <ROCS_ShapeTanimoto>
0.251 

> <ROCS_ColorTanimoto>
0.383 

> <ROCS_RefTversky>
0.230 

> <ROCS_RefColorTversky>
0.554 

> <ROCS_RefTverskyCombo>
0.784 

> <ROCS_FitTversky>
1.584 

> <ROCS_FitColorTversky>
0.554 

> <ROCS_FitTverskyCombo>
2.138 

> <ROCS_ColorScore>
-4.435

> <ROCS_Overlap>
2359.031

> <ROCS_Rank>
291                 

$$$$
untitled-dbase-553667_19
  -OEChem-02092421083D

 43 45  0     0  0  0  0  0  0999 V2000
   13.8827   14.0808   19.7411 C   0  0  0  0  0  0  0  0  0  0  0  0
   13.2867   12.8368   19.5339 C   0  0  0  0  0  0  0  0  0  0  0  0
    6.9863   13.1860   25.8437 C   0  0  0  0  0  0  0  0  0  0  0  0
   13.5349   14.8437   20.8559 C   0  0  0  0  0  0  0  0  0  0  0  0
    6.1908   12.8682   26.9408 C   0  0  0  0  0  0  0  0  0  0  0  0
   12.3429   12.3558   20.4414 C   0  0  0  0  0  0  0  0  0  0  0  0
    8.4652   12.4668   24.0279 C   0  0  0  0  0  0  0  0  0  0  0  0
    6.7313   10.5368   26.6302 C   0  0  0  0  0  0  0  0  0  0  0  0
    7.6580   12.1749   25.1357 C   0  0  0  0  0  0  0  0  0  0  0  0
   12.5912   14.3627   21.7634 C   0  0  0  0  0  0  0  0  0  0  0  0
    9.1152   11.4457   23.3498 C   0  0  0  0  0  0  0  0  0  0  0  0
    6.0634   11.5418   27.3342 C   0  0  0  0  0  0  0  0  0  0  0  0
    7.5331   10.8261   25.5294 C   0  0  0  0  0  0  0  0  0  0  0  0
   11.9951   13.1187   21.5562 C   0  0  0  0  0  0  0  0  0  0  0  0
    8.9324   10.1572   23.8091 C   0  0  0  0  0  0  0  0  0  0  0  0
    9.9522   11.7536   22.2004 C   0  0  0  0  0  0  0  0  0  0  0  0
   12.2504   15.1849   22.9177 C   0  0  0  0  0  0  0  0  0  0  0  0
    5.2136   11.1891   28.5081 C   0  0  0  0  0  0  0  0  0  0  0  0
    9.6017    9.0094   23.1256 C   0  0  0  0  0  0  0  0  0  0  0  0
   11.5273   15.1121   25.1874 C   0  0  0  0  0  0  0  0  0  0  0  0
    8.1628    9.8332   24.8733 N   0  0  0  0  0  0  0  0  0  0  0  0
   11.0321   12.6103   22.4639 N   0  0  0  0  0  0  0  0  0  0  0  0
    9.6962   11.3120   21.0719 O   0  0  0  0  0  0  0  0  0  0  0  0
   12.2839   16.4207   22.9275 O   0  0  0  0  0  0  0  0  0  0  0  0
   11.8874   14.4169   23.9888 O   0  0  0  0  0  0  0  0  0  0  0  0
   14.6173   14.4552   19.0341 H   0  0  0  0  0  0  0  0  0  0  0  0
   13.5580   12.2431   18.6659 H   0  0  0  0  0  0  0  0  0  0  0  0
    7.0790   14.2274   25.5433 H   0  0  0  0  0  0  0  0  0  0  0  0
   14.0067   15.8115   21.0063 H   0  0  0  0  0  0  0  0  0  0  0  0
    5.6772   13.6593   27.4800 H   0  0  0  0  0  0  0  0  0  0  0  0
   11.8857   11.3847   20.2687 H   0  0  0  0  0  0  0  0  0  0  0  0
    8.5839   13.4965   23.6954 H   0  0  0  0  0  0  0  0  0  0  0  0
    6.6222    9.5019   26.9518 H   0  0  0  0  0  0  0  0  0  0  0  0
    4.1830   10.9929   28.1882 H   0  0  0  0  0  0  0  0  0  0  0  0
    5.5944   10.2969   29.0219 H   0  0  0  0  0  0  0  0  0  0  0  0
    5.2000   12.0001   29.2480 H   0  0  0  0  0  0  0  0  0  0  0  0
   10.5852    8.8236   23.5718 H   0  0  0  0  0  0  0  0  0  0  0  0
    9.0014    8.0952   23.2080 H   0  0  0  0  0  0  0  0  0  0  0  0
    9.7347    9.2093   22.0553 H   0  0  0  0  0  0  0  0  0  0  0  0
   11.2598   14.3895   25.9622 H   0  0  0  0  0  0  0  0  0  0  0  0
   10.6824   15.7752   24.9852 H   0  0  0  0  0  0  0  0  0  0  0  0
   12.3808   15.7051   25.5245 H   0  0  0  0  0  0  0  0  0  0  0  0
   11.1375   12.9046   23.4317 H   0  0  0  0  0  0  0  0  0  0  0  0
  1  2  1  0  0  0  0
  1  4  2  0  0  0  0
  2  6  2  0  0  0  0
  3  5  2  0  0  0  0
  3  9  1  0  0  0  0
  4 10  1  0  0  0  0
  5 12  1  0  0  0  0
  6 14  1  0  0  0  0
  7  9  2  0  0  0  0
  7 11  1  0  0  0  0
  8 12  2  0  0  0  0
  8 13  1  0  0  0  0
  9 13  1  0  0  0  0
 10 14  2  0  0  0  0
 10 17  1  0  0  0  0
 11 15  2  0  0  0  0
 11 16  1  0  0  0  0
 12 18  1  0  0  0  0
 13 21  2  0  0  0  0
 14 22  1  0  0  0  0
 15 19  1  0  0  0  0
 15 21  1  0  0  0  0
 16 22  1  0  0  0  0
 16 23  2  0  0  0  0
 17 24  2  0  0  0  0
 17 25  1  0  0  0  0
 20 25  1  0  0  0  0
  1 26  1  0  0  0  0
  2 27  1  0  0  0  0
  3 28  1  0  0  0  0
  4 29  1  0  0  0  0
  5 30  1  0  0  0  0
  6 31  1  0  0  0  0
  7 32  1  0  0  0  0
  8 33  1  0  0  0  0
 18 34  1  0  0  0  0
 18 35  1  0  0  0  0
 18 36  1  0  0  0  0
 19 37  1  0  0  0  0
 19 38  1  0  0  0  0
 19 39  1  0  0  0  0
 20 40  1  0  0  0  0
 20 41  1  0  0  0  0
 20 42  1  0  0  0  0
 22 43  1  0  0  0  0
M  END
> <idnumber>
Z391923968

> <heavy_atoms>
25

> <LogS>
-5.11

> <LogP>
4.072

> <rotating_bonds>
4

> <PSA>
68.29

> <hb_acceptors>
3

> <hb_donors>
1

> <Collection>
Legacy

> <link>
https://www.enaminestore.com/catalog/Z391923968

> <ROCS_ShapeQuery>
_x1140_x0812_0A_x1140_0A_x1097_0A_x0365_0A_x1097_0A_x0310_0A

> <ROCS_TanimotoCombo>
0.634 

> <ROCS_ShapeTanimoto>
0.278 

> <ROCS_ColorTanimoto>
0.356 

> <ROCS_RefTversky>
0.252 

> <ROCS_RefColorTversky>
0.495 

> <ROCS_RefTverskyCombo>
0.747 

> <ROCS_FitTversky>
1.588 

> <ROCS_FitColorTversky>
0.558 

> <ROCS_FitTverskyCombo>
2.147 

> <ROCS_ColorScore>
-3.939

> <ROCS_Overlap>
2590.688

> <ROCS_Rank>
292                 

$$$$
untitled-dbase-415500_69
  -OEChem-02092421083D

 37 39  0     0  0  0  0  0  0999 V2000
   11.2136   16.7776   24.5256 C   0  0  0  0  0  0  0  0  0  0  0  0
    6.8562   12.7115   26.1677 C   0  0  0  0  0  0  0  0  0  0  0  0
    5.9797   12.2346   27.1382 C   0  0  0  0  0  0  0  0  0  0  0  0
   10.8454   15.5915   23.8468 C   0  0  0  0  0  0  0  0  0  0  0  0
    8.4275   12.2705   24.3407 C   0  0  0  0  0  0  0  0  0  0  0  0
    6.4626    9.9773   26.4343 C   0  0  0  0  0  0  0  0  0  0  0  0
   12.1927   17.3674   23.7605 C   0  0  0  0  0  0  0  0  0  0  0  0
    7.5396   11.8177   25.3259 C   0  0  0  0  0  0  0  0  0  0  0  0
    9.0871   11.3624   23.5251 C   0  0  0  0  0  0  0  0  0  0  0  0
    7.3446   10.4266   25.4554 C   0  0  0  0  0  0  0  0  0  0  0  0
    5.7829   10.8657   27.2714 C   0  0  0  0  0  0  0  0  0  0  0  0
    8.8320   10.0212   23.7267 C   0  0  0  0  0  0  0  0  0  0  0  0
   11.6257   15.5412   22.7151 C   0  0  0  0  0  0  0  0  0  0  0  0
   10.0074   11.8376   22.5034 C   0  0  0  0  0  0  0  0  0  0  0  0
    9.5065    8.9881   22.8837 C   0  0  0  0  0  0  0  0  0  0  0  0
   11.7326   14.5544   21.5785 C   0  0  0  0  0  0  0  0  0  0  0  0
   12.0952   13.1464   22.0443 C   0  0  0  0  0  0  0  0  0  0  0  0
    7.9833    9.5430   24.6653 N   0  0  0  0  0  0  0  0  0  0  0  0
   11.1070   12.5863   22.9380 N   0  0  0  0  0  0  0  0  0  0  0  0
    9.7959   11.5955   21.3021 O   0  0  0  0  0  0  0  0  0  0  0  0
   12.4496   16.6201   22.6550 O   0  0  0  0  0  0  0  0  0  0  0  0
    4.9426   10.3968   28.2029 F   0  0  0  0  0  0  0  0  0  0  0  0
   10.8155   17.1552   25.4563 H   0  0  0  0  0  0  0  0  0  0  0  0
    7.0022   13.7851   26.0719 H   0  0  0  0  0  0  0  0  0  0  0  0
    5.4539   12.9285   27.7869 H   0  0  0  0  0  0  0  0  0  0  0  0
   10.1036   14.8656   24.1480 H   0  0  0  0  0  0  0  0  0  0  0  0
    8.6008   13.3374   24.2114 H   0  0  0  0  0  0  0  0  0  0  0  0
    6.2912    8.9097   26.5588 H   0  0  0  0  0  0  0  0  0  0  0  0
   12.7754   18.2714   23.8595 H   0  0  0  0  0  0  0  0  0  0  0  0
   10.4516    8.6802   23.3452 H   0  0  0  0  0  0  0  0  0  0  0  0
    8.8719    8.1021   22.7605 H   0  0  0  0  0  0  0  0  0  0  0  0
    9.7166    9.3733   21.8785 H   0  0  0  0  0  0  0  0  0  0  0  0
   12.4972   14.9125   20.8775 H   0  0  0  0  0  0  0  0  0  0  0  0
   10.7914   14.5349   21.0143 H   0  0  0  0  0  0  0  0  0  0  0  0
   12.1594   12.4737   21.1833 H   0  0  0  0  0  0  0  0  0  0  0  0
   13.0587   13.1284   22.5642 H   0  0  0  0  0  0  0  0  0  0  0  0
   11.1980   12.8082   23.9240 H   0  0  0  0  0  0  0  0  0  0  0  0
  1  4  1  0  0  0  0
  1  7  2  0  0  0  0
  2  3  2  0  0  0  0
  2  8  1  0  0  0  0
  3 11  1  0  0  0  0
  4 13  2  0  0  0  0
  5  8  2  0  0  0  0
  5  9  1  0  0  0  0
  6 10  1  0  0  0  0
  6 11  2  0  0  0  0
  7 21  1  0  0  0  0
  8 10  1  0  0  0  0
  9 12  2  0  0  0  0
  9 14  1  0  0  0  0
 10 18  2  0  0  0  0
 11 22  1  0  0  0  0
 12 15  1  0  0  0  0
 12 18  1  0  0  0  0
 13 16  1  0  0  0  0
 13 21  1  0  0  0  0
 14 19  1  0  0  0  0
 14 20  2  0  0  0  0
 16 17  1  0  0  0  0
 17 19  1  0  0  0  0
  1 23  1  0  0  0  0
  2 24  1  0  0  0  0
  3 25  1  0  0  0  0
  4 26  1  0  0  0  0
  5 27  1  0  0  0  0
  6 28  1  0  0  0  0
  7 29  1  0  0  0  0
 15 30  1  0  0  0  0
 15 31  1  0  0  0  0
 15 32  1  0  0  0  0
 16 33  1  0  0  0  0
 16 34  1  0  0  0  0
 17 35  1  0  0  0  0
 17 36  1  0  0  0  0
 19 37  1  0  0  0  0
M  END
> <idnumber>
Z199655768

> <heavy_atoms>
22

> <LogS>
-3.888

> <LogP>
3.127

> <rotating_bonds>
4

> <PSA>
55.13

> <hb_acceptors>
2

> <hb_donors>
1

> <Collection>
Legacy

> <link>
https://www.enaminestore.com/catalog/Z199655768

> <ROCS_ShapeQuery>
_x1140_x0812_0A_x1140_0A_x1097_0A_x0365_0A_x1097_0A_x0310_0A

> <ROCS_TanimotoCombo>
0.634 

> <ROCS_ShapeTanimoto>
0.280 

> <ROCS_ColorTanimoto>
0.353 

> <ROCS_RefTversky>
0.251 

> <ROCS_RefColorTversky>
0.493 

> <ROCS_RefTverskyCombo>
0.744 

> <ROCS_FitTversky>
1.721 

> <ROCS_FitColorTversky>
0.555 

> <ROCS_FitTverskyCombo>
2.276 

> <ROCS_ColorScore>
-3.918

> <ROCS_Overlap>
2576.254

> <ROCS_Rank>
293                 

$$$$
untitled-dbase-1182929_42
  -OEChem-02092421083D

 36 38  0     0  0  0  0  0  0999 V2000
    6.9185   12.3960   26.3956 C   0  0  0  0  0  0  0  0  0  0  0  0
    8.8322   12.5693   24.6197 C   0  0  0  0  0  0  0  0  0  0  0  0
   13.5973   15.5041   21.0573 C   0  0  0  0  0  0  0  0  0  0  0  0
   12.8735   12.9020   21.4455 C   0  0  0  0  0  0  0  0  0  0  0  0
    9.0769   10.4675   23.4999 C   0  0  0  0  0  0  0  0  0  0  0  0
    6.1160   11.3234   26.7198 C   0  0  0  0  0  0  0  0  0  0  0  0
    7.8013   11.9756   25.3659 C   0  0  0  0  0  0  0  0  0  0  0  0
   12.2745   13.8739   22.2307 C   0  0  0  0  0  0  0  0  0  0  0  0
    9.4791   11.7860   23.6656 C   0  0  0  0  0  0  0  0  0  0  0  0
   12.6488   15.1973   22.0266 C   0  0  0  0  0  0  0  0  0  0  0  0
   14.1373   14.4592   20.3248 C   0  0  0  0  0  0  0  0  0  0  0  0
    7.5009   10.6436   25.0963 C   0  0  0  0  0  0  0  0  0  0  0  0
   15.1575   14.7514   19.2758 C   0  0  0  0  0  0  0  0  0  0  0  0
   12.7580   16.5500   23.9795 C   0  0  0  0  0  0  0  0  0  0  0  0
   11.2548   13.4924   23.2645 C   0  0  0  0  0  0  0  0  0  0  0  0
   13.7986   13.1615   20.4945 N   0  0  0  0  0  0  0  0  0  0  0  0
    8.0928    9.8443   24.1888 N   0  0  0  0  0  0  0  0  0  0  0  0
    6.4781   10.2661   25.9261 N   0  0  0  0  0  0  0  0  0  0  0  0
   10.5196   12.3228   22.8862 N   0  0  0  0  0  0  0  0  0  0  0  0
   12.0975   16.2002   22.7645 O   0  0  0  0  0  0  0  0  0  0  0  0
    6.8711   13.3748   26.8527 H   0  0  0  0  0  0  0  0  0  0  0  0
    9.1131   13.6053   24.7834 H   0  0  0  0  0  0  0  0  0  0  0  0
   13.9035   16.5309   20.8849 H   0  0  0  0  0  0  0  0  0  0  0  0
   12.6209   11.8522   21.5587 H   0  0  0  0  0  0  0  0  0  0  0  0
    9.5646    9.8340   22.7623 H   0  0  0  0  0  0  0  0  0  0  0  0
    5.3204   11.2184   27.4439 H   0  0  0  0  0  0  0  0  0  0  0  0
   16.1657   14.7229   19.7062 H   0  0  0  0  0  0  0  0  0  0  0  0
   15.1070   14.0217   18.4577 H   0  0  0  0  0  0  0  0  0  0  0  0
   14.9968   15.7413   18.8297 H   0  0  0  0  0  0  0  0  0  0  0  0
   12.2154   17.3623   24.4693 H   0  0  0  0  0  0  0  0  0  0  0  0
   13.7827   16.8614   23.7617 H   0  0  0  0  0  0  0  0  0  0  0  0
   12.7764   15.6783   24.6379 H   0  0  0  0  0  0  0  0  0  0  0  0
   11.7375   13.2907   24.2270 H   0  0  0  0  0  0  0  0  0  0  0  0
   10.5356   14.3025   23.4248 H   0  0  0  0  0  0  0  0  0  0  0  0
    6.0550    9.3487   25.9497 H   0  0  0  0  0  0  0  0  0  0  0  0
   10.7405   11.8497   22.0283 H   0  0  0  0  0  0  0  0  0  0  0  0
  1  6  2  0  0  0  0
  1  7  1  0  0  0  0
  2  7  1  0  0  0  0
  2  9  2  0  0  0  0
  3 10  1  0  0  0  0
  3 11  2  0  0  0  0
  4  8  1  0  0  0  0
  4 16  2  0  0  0  0
  5  9  1  0  0  0  0
  5 17  2  0  0  0  0
  6 18  1  0  0  0  0
  7 12  2  0  0  0  0
  8 10  2  0  0  0  0
  8 15  1  0  0  0  0
  9 19  1  0  0  0  0
 10 20  1  0  0  0  0
 11 13  1  0  0  0  0
 11 16  1  0  0  0  0
 12 17  1  0  0  0  0
 12 18  1  0  0  0  0
 14 20  1  0  0  0  0
 15 19  1  0  0  0  0
  1 21  1  0  0  0  0
  2 22  1  0  0  0  0
  3 23  1  0  0  0  0
  4 24  1  0  0  0  0
  5 25  1  0  0  0  0
  6 26  1  0  0  0  0
 13 27  1  0  0  0  0
 13 28  1  0  0  0  0
 13 29  1  0  0  0  0
 14 30  1  0  0  0  0
 14 31  1  0  0  0  0
 14 32  1  0  0  0  0
 15 33  1  0  0  0  0
 15 34  1  0  0  0  0
 18 35  1  0  0  0  0
 19 36  1  0  0  0  0
M  END
> <idnumber>
Z8820654813

> <heavy_atoms>
20

> <LogS>
-2.651

> <LogP>
2.516

> <rotating_bonds>
4

> <PSA>
62.83

> <hb_acceptors>
4

> <hb_donors>
2

> <Collection>
Advanced

> <link>
https://www.enaminestore.com/catalog/Z8820654813

> <ROCS_ShapeQuery>
_x1140_x0812_0A_x1140_0A_x1097_0A_x0365_0A_x1097_0A_x0310_0A

> <ROCS_TanimotoCombo>
0.633 

> <ROCS_ShapeTanimoto>
0.241 

> <ROCS_ColorTanimoto>
0.393 

> <ROCS_RefTversky>
0.221 

> <ROCS_RefColorTversky>
0.564 

> <ROCS_RefTverskyCombo>
0.785 

> <ROCS_FitTversky>
1.602 

> <ROCS_FitColorTversky>
0.563 

> <ROCS_FitTverskyCombo>
2.165 

> <ROCS_ColorScore>
-4.516

> <ROCS_Overlap>
2267.241

> <ROCS_Rank>
294                 

$$$$
untitled-dbase-1008012_145
  -OEChem-02092421083D

 35 36  0     0  0  0  0  0  0999 V2000
    8.3624   12.6622   24.1428 C   0  0  0  0  0  0  0  0  0  0  0  0
    7.3750   12.0680   24.9209 C   0  0  0  0  0  0  0  0  0  0  0  0
   11.4448   14.2059   21.5759 C   0  0  0  0  0  0  0  0  0  0  0  0
   12.0764   15.4306   21.6512 C   0  0  0  0  0  0  0  0  0  0  0  0
    9.2620   10.5003   23.7261 C   0  0  0  0  0  0  0  0  0  0  0  0
    9.3276   11.8704   23.5306 C   0  0  0  0  0  0  0  0  0  0  0  0
    7.3967   10.6890   25.0540 C   0  0  0  0  0  0  0  0  0  0  0  0
   10.9914   13.6934   22.7742 C   0  0  0  0  0  0  0  0  0  0  0  0
   11.7699   15.5068   23.9023 C   0  0  0  0  0  0  0  0  0  0  0  0
   12.7233   15.4043   26.2189 C   0  0  0  0  0  0  0  0  0  0  0  0
    5.8063   11.2804   27.8669 C   0  0  0  0  0  0  0  0  0  0  0  0
   11.9497   16.2298   25.1938 C   0  0  0  0  0  0  0  0  0  0  0  0
    5.3726   10.8652   26.5023 C   0  0  0  0  0  0  0  0  0  0  0  0
    8.3180    9.8870   24.4747 N   0  0  0  0  0  0  0  0  0  0  0  0
   12.2568   16.1114   22.8019 N   0  0  0  0  0  0  0  0  0  0  0  0
   11.1376   14.3192   23.9605 N   0  0  0  0  0  0  0  0  0  0  0  0
   10.3379   12.4417   22.7398 N   0  0  0  0  0  0  0  0  0  0  0  0
    6.3845   10.0989   25.8514 N   0  0  0  0  0  0  0  0  0  0  0  0
    8.3707   13.7419   24.0197 H   0  0  0  0  0  0  0  0  0  0  0  0
    6.6183   12.6783   25.4027 H   0  0  0  0  0  0  0  0  0  0  0  0
   11.3198   13.6924   20.6310 H   0  0  0  0  0  0  0  0  0  0  0  0
   12.4659   15.9127   20.7611 H   0  0  0  0  0  0  0  0  0  0  0  0
    9.9874    9.8304   23.2742 H   0  0  0  0  0  0  0  0  0  0  0  0
   12.2273   14.4459   26.4064 H   0  0  0  0  0  0  0  0  0  0  0  0
   12.7979   15.9393   27.1709 H   0  0  0  0  0  0  0  0  0  0  0  0
   13.7391   15.1938   25.8676 H   0  0  0  0  0  0  0  0  0  0  0  0
    6.7195   11.8891   27.7925 H   0  0  0  0  0  0  0  0  0  0  0  0
    5.0091   11.8719   28.3408 H   0  0  0  0  0  0  0  0  0  0  0  0
    6.0102   10.3864   28.4745 H   0  0  0  0  0  0  0  0  0  0  0  0
   12.4756   17.1843   25.0301 H   0  0  0  0  0  0  0  0  0  0  0  0
   10.9713   16.5062   25.6192 H   0  0  0  0  0  0  0  0  0  0  0  0
    4.4595   10.2573   26.5852 H   0  0  0  0  0  0  0  0  0  0  0  0
    5.1618   11.7637   25.9037 H   0  0  0  0  0  0  0  0  0  0  0  0
   10.6673   11.8361   21.9905 H   0  0  0  0  0  0  0  0  0  0  0  0
    6.4096    9.1039   25.9423 H   0  0  0  0  0  0  0  0  0  0  0  0
  1  2  2  0  0  0  0
  1  6  1  0  0  0  0
  2  7  1  0  0  0  0
  3  4  2  0  0  0  0
  3  8  1  0  0  0  0
  4 15  1  0  0  0  0
  5  6  2  0  0  0  0
  5 14  1  0  0  0  0
  6 17  1  0  0  0  0
  7 14  2  0  0  0  0
  7 18  1  0  0  0  0
  8 16  2  0  0  0  0
  8 17  1  0  0  0  0
  9 12  1  0  0  0  0
  9 15  2  0  0  0  0
  9 16  1  0  0  0  0
 10 12  1  0  0  0  0
 11 13  1  0  0  0  0
 13 18  1  0  0  0  0
  1 19  1  0  0  0  0
  2 20  1  0  0  0  0
  3 21  1  0  0  0  0
  4 22  1  0  0  0  0
  5 23  1  0  0  0  0
 10 24  1  0  0  0  0
 10 25  1  0  0  0  0
 10 26  1  0  0  0  0
 11 27  1  0  0  0  0
 11 28  1  0  0  0  0
 11 29  1  0  0  0  0
 12 30  1  0  0  0  0
 12 31  1  0  0  0  0
 13 32  1  0  0  0  0
 13 33  1  0  0  0  0
 17 34  1  0  0  0  0
 18 35  1  0  0  0  0
M  END
> <idnumber>
Z3079948510

> <heavy_atoms>
18

> <LogS>
-2.104

> <LogP>
3.128

> <rotating_bonds>
5

> <PSA>
62.73

> <hb_acceptors>
5

> <hb_donors>
2

> <Collection>
HTS

> <link>
https://www.enaminestore.com/catalog/Z3079948510

> <ROCS_ShapeQuery>
_x1140_x0812_0A_x1140_0A_x1097_0A_x0365_0A_x1097_0A_x0310_0A

> <ROCS_TanimotoCombo>
0.633 

> <ROCS_ShapeTanimoto>
0.234 

> <ROCS_ColorTanimoto>
0.399 

> <ROCS_RefTversky>
0.214 

> <ROCS_RefColorTversky>
0.571 

> <ROCS_RefTverskyCombo>
0.784 

> <ROCS_FitTversky>
1.686 

> <ROCS_FitColorTversky>
0.570 

> <ROCS_FitTverskyCombo>
2.257 

> <ROCS_ColorScore>
-4.566

> <ROCS_Overlap>
2192.435

> <ROCS_Rank>
295                 

$$$$
untitled-dbase-885054_184
  -OEChem-02092421083D

 45 47  0     0  0  0  0  0  0999 V2000
    8.5719   12.5722   24.5073 C   0  0  0  0  0  0  0  0  0  0  0  0
    7.7766   10.5017   25.3660 C   0  0  0  0  0  0  0  0  0  0  0  0
    9.2135   11.8702   23.4930 C   0  0  0  0  0  0  0  0  0  0  0  0
    7.8377   11.8823   25.4657 C   0  0  0  0  0  0  0  0  0  0  0  0
    9.0910   10.4901   23.4817 C   0  0  0  0  0  0  0  0  0  0  0  0
    9.7483   13.8517   22.0262 C   0  0  0  0  0  0  0  0  0  0  0  0
   10.5770   18.1871   20.4759 C   0  0  0  0  0  0  0  0  0  0  0  0
    9.3039   17.6990   21.0942 C   0  0  0  0  0  0  0  0  0  0  0  0
   12.2741   14.2958   22.1360 C   0  0  0  0  0  0  0  0  0  0  0  0
   10.8001   15.6301   20.6577 C   0  0  0  0  0  0  0  0  0  0  0  0
   12.6087   15.2678   23.2590 C   0  0  0  0  0  0  0  0  0  0  0  0
   11.1778   17.1087   22.7536 C   0  0  0  0  0  0  0  0  0  0  0  0
   10.5988   16.9582   21.3621 C   0  0  0  0  0  0  0  0  0  0  0  0
   10.6683    7.6290   21.9513 C   0  0  0  0  0  0  0  0  0  0  0  0
   12.0328    9.4607   23.0164 C   0  0  0  0  0  0  0  0  0  0  0  0
   10.6666    8.7983   22.9241 C   0  0  0  0  0  0  0  0  0  0  0  0
    8.3865    9.7853   24.3953 N   0  0  0  0  0  0  0  0  0  0  0  0
   10.9220   14.5204   21.6055 N   0  0  0  0  0  0  0  0  0  0  0  0
    9.9652   12.5610   22.5100 N   0  0  0  0  0  0  0  0  0  0  0  0
    8.6437   14.3987   21.9820 O   0  0  0  0  0  0  0  0  0  0  0  0
   12.5212   16.6248   22.8232 O   0  0  0  0  0  0  0  0  0  0  0  0
    9.7080    9.7593   22.4994 O   0  0  0  0  0  0  0  0  0  0  0  0
    7.0323   12.7139   26.7312 Cl  0  0  0  0  0  0  0  0  0  0  0  0
    8.6452   13.6566   24.5493 H   0  0  0  0  0  0  0  0  0  0  0  0
    7.2193    9.9060   26.0828 H   0  0  0  0  0  0  0  0  0  0  0  0
   10.7030   18.0568   19.4077 H   0  0  0  0  0  0  0  0  0  0  0  0
   10.9992   19.1091   20.8581 H   0  0  0  0  0  0  0  0  0  0  0  0
    8.8678   18.2985   21.8843 H   0  0  0  0  0  0  0  0  0  0  0  0
    8.5709   17.2426   20.4389 H   0  0  0  0  0  0  0  0  0  0  0  0
   12.9877   14.3632   21.3070 H   0  0  0  0  0  0  0  0  0  0  0  0
   12.3331   13.2740   22.5281 H   0  0  0  0  0  0  0  0  0  0  0  0
    9.9397   15.4657   20.0187 H   0  0  0  0  0  0  0  0  0  0  0  0
   11.6990   15.6352   20.0507 H   0  0  0  0  0  0  0  0  0  0  0  0
   11.9899   15.1116   24.1457 H   0  0  0  0  0  0  0  0  0  0  0  0
   13.6476   15.1112   23.5577 H   0  0  0  0  0  0  0  0  0  0  0  0
   11.2175   18.1702   23.0379 H   0  0  0  0  0  0  0  0  0  0  0  0
   10.5504   16.6146   23.5121 H   0  0  0  0  0  0  0  0  0  0  0  0
   10.9687    7.9472   20.9484 H   0  0  0  0  0  0  0  0  0  0  0  0
   11.3585    6.8502   22.2929 H   0  0  0  0  0  0  0  0  0  0  0  0
    9.6773    7.1656   21.8898 H   0  0  0  0  0  0  0  0  0  0  0  0
   12.3658    9.8226   22.0389 H   0  0  0  0  0  0  0  0  0  0  0  0
   12.7750    8.7518   23.3987 H   0  0  0  0  0  0  0  0  0  0  0  0
   12.0152   10.3046   23.7149 H   0  0  0  0  0  0  0  0  0  0  0  0
   10.3626    8.4481   23.9159 H   0  0  0  0  0  0  0  0  0  0  0  0
   10.7849   12.0330   22.0981 H   0  0  0  0  0  0  0  0  0  0  0  0
  1  3  1  0  0  0  0
  1  4  2  0  0  0  0
  2  4  1  0  0  0  0
  2 17  2  0  0  0  0
  3  5  2  0  0  0  0
  3 19  1  0  0  0  0
  4 23  1  0  0  0  0
  5 17  1  0  0  0  0
  5 22  1  0  0  0  0
  6 18  1  0  0  0  0
  6 19  1  0  0  0  0
  6 20  2  0  0  0  0
  7  8  1  0  0  0  0
  7 13  1  0  0  0  0
  8 13  1  0  0  0  0
  9 11  1  0  0  0  0
  9 18  1  0  0  0  0
 10 13  1  0  0  0  0
 10 18  1  0  0  0  0
 11 21  1  0  0  0  0
 12 13  1  0  0  0  0
 12 21  1  0  0  0  0
 14 16  1  0  0  0  0
 15 16  1  0  0  0  0
 16 22  1  0  0  0  0
  1 24  1  0  0  0  0
  2 25  1  0  0  0  0
  7 26  1  0  0  0  0
  7 27  1  0  0  0  0
  8 28  1  0  0  0  0
  8 29  1  0  0  0  0
  9 30  1  0  0  0  0
  9 31  1  0  0  0  0
 10 32  1  0  0  0  0
 10 33  1  0  0  0  0
 11 34  1  0  0  0  0
 11 35  1  0  0  0  0
 12 36  1  0  0  0  0
 12 37  1  0  0  0  0
 14 38  1  0  0  0  0
 14 39  1  0  0  0  0
 14 40  1  0  0  0  0
 15 41  1  0  0  0  0
 15 42  1  0  0  0  0
 15 43  1  0  0  0  0
 16 44  1  0  0  0  0
 19 45  1  0  0  0  0
M  END
> <idnumber>
Z2295785521

> <heavy_atoms>
23

> <LogS>
-3.011

> <LogP>
3.405

> <rotating_bonds>
3

> <PSA>
63.69

> <hb_acceptors>
4

> <hb_donors>
1

> <Collection>
HTS

> <link>
https://www.enaminestore.com/catalog/Z2295785521

> <ROCS_ShapeQuery>
_x1140_x0812_0A_x1140_0A_x1097_0A_x0365_0A_x1097_0A_x0310_0A

> <ROCS_TanimotoCombo>
0.633 

> <ROCS_ShapeTanimoto>
0.246 

> <ROCS_ColorTanimoto>
0.387 

> <ROCS_RefTversky>
0.227 

> <ROCS_RefColorTversky>
0.558 

> <ROCS_RefTverskyCombo>
0.785 

> <ROCS_FitTversky>
1.549 

> <ROCS_FitColorTversky>
0.557 

> <ROCS_FitTverskyCombo>
2.107 

> <ROCS_ColorScore>
-4.464

> <ROCS_Overlap>
2327.769

> <ROCS_Rank>
296                 

$$$$
untitled-dbase-273594_74
  -OEChem-02092421083D

 31 32  0     0  0  0  0  0  0999 V2000
    8.9368   12.4863   24.6927 C   0  0  0  0  0  0  0  0  0  0  0  0
    9.7151   11.5321   24.0469 C   0  0  0  0  0  0  0  0  0  0  0  0
    7.3230   10.7958   25.1338 C   0  0  0  0  0  0  0  0  0  0  0  0
    7.7166   12.1193   25.2492 C   0  0  0  0  0  0  0  0  0  0  0  0
    9.5433   12.0466   20.1224 C   0  0  0  0  0  0  0  0  0  0  0  0
    9.8861   11.2305   19.0648 C   0  0  0  0  0  0  0  0  0  0  0  0
    9.2322   10.2349   23.9855 C   0  0  0  0  0  0  0  0  0  0  0  0
   10.5191   10.4383   21.2499 C   0  0  0  0  0  0  0  0  0  0  0  0
    8.8318   13.3379   20.0286 C   0  0  0  0  0  0  0  0  0  0  0  0
    9.6550   11.4026   17.6165 C   0  0  0  0  0  0  0  0  0  0  0  0
   11.0594    9.6335   22.3964 C   0  0  0  0  0  0  0  0  0  0  0  0
    6.8610   13.1169   25.9456 C   0  0  0  0  0  0  0  0  0  0  0  0
    8.0520    9.8407   24.5141 N   0  0  0  0  0  0  0  0  0  0  0  0
    9.9051   11.5938   21.3762 N   0  0  0  0  0  0  0  0  0  0  0  0
   10.0375    9.2741   23.3247 N   0  0  0  0  0  0  0  0  0  0  0  0
    7.3925   14.3768   25.9717 F   0  0  0  0  0  0  0  0  0  0  0  0
    5.6232   13.2683   25.3844 F   0  0  0  0  0  0  0  0  0  0  0  0
    6.6292   12.7943   27.2531 F   0  0  0  0  0  0  0  0  0  0  0  0
   10.6964    9.8377   19.6521 S   0  0  0  0  0  0  0  0  0  0  0  0
    9.2881   13.5125   24.7575 H   0  0  0  0  0  0  0  0  0  0  0  0
   10.6687   11.8100   23.6095 H   0  0  0  0  0  0  0  0  0  0  0  0
    6.3808   10.4503   25.5479 H   0  0  0  0  0  0  0  0  0  0  0  0
    7.7411   13.1944   20.0896 H   0  0  0  0  0  0  0  0  0  0  0  0
    9.1255   14.0303   20.8353 H   0  0  0  0  0  0  0  0  0  0  0  0
    9.0498   13.8611   19.0823 H   0  0  0  0  0  0  0  0  0  0  0  0
   10.4933   11.9379   17.1419 H   0  0  0  0  0  0  0  0  0  0  0  0
    9.5383   10.4354   17.0990 H   0  0  0  0  0  0  0  0  0  0  0  0
    8.7330   11.9722   17.4102 H   0  0  0  0  0  0  0  0  0  0  0  0
   11.5259    8.7107   22.0344 H   0  0  0  0  0  0  0  0  0  0  0  0
   11.8261   10.1930   22.9425 H   0  0  0  0  0  0  0  0  0  0  0  0
    9.8563    8.3148   23.5386 H   0  0  0  0  0  0  0  0  0  0  0  0
  1  2  2  0  0  0  0
  1  4  1  0  0  0  0
  2  7  1  0  0  0  0
  3  4  2  0  0  0  0
  3 13  1  0  0  0  0
  4 12  1  0  0  0  0
  5  6  2  0  0  0  0
  5  9  1  0  0  0  0
  5 14  1  0  0  0  0
  6 10  1  0  0  0  0
  6 19  1  0  0  0  0
  7 13  2  0  0  0  0
  7 15  1  0  0  0  0
  8 11  1  0  0  0  0
  8 14  2  0  0  0  0
  8 19  1  0  0  0  0
 11 15  1  0  0  0  0
 12 16  1  0  0  0  0
 12 17  1  0  0  0  0
 12 18  1  0  0  0  0
  1 20  1  0  0  0  0
  2 21  1  0  0  0  0
  3 22  1  0  0  0  0
  9 23  1  0  0  0  0
  9 24  1  0  0  0  0
  9 25  1  0  0  0  0
 10 26  1  0  0  0  0
 10 27  1  0  0  0  0
 10 28  1  0  0  0  0
 11 29  1  0  0  0  0
 11 30  1  0  0  0  0
 15 31  1  0  0  0  0
M  END
> <idnumber>
Z1828849095

> <heavy_atoms>
19

> <LogS>
-3.035

> <LogP>
2.968

> <rotating_bonds>
4

> <PSA>
37.81

> <hb_acceptors>
3

> <hb_donors>
1

> <Collection>
HTS

> <link>
https://www.enaminestore.com/catalog/Z1828849095

> <ROCS_ShapeQuery>
_x1140_x0812_0A_x1140_0A_x1097_0A_x0365_0A_x1097_0A_x0310_0A

> <ROCS_TanimotoCombo>
0.633 

> <ROCS_ShapeTanimoto>
0.220 

> <ROCS_ColorTanimoto>
0.413 

> <ROCS_RefTversky>
0.204 

> <ROCS_RefColorTversky>
0.484 

> <ROCS_RefTverskyCombo>
0.688 

> <ROCS_FitTversky>
1.566 

> <ROCS_FitColorTversky>
0.738 

> <ROCS_FitTverskyCombo>
2.304 

> <ROCS_ColorScore>
-3.800

> <ROCS_Overlap>
2091.521

> <ROCS_Rank>
297                 

$$$$
untitled-dbase-109285_4
  -OEChem-02092421083D

 35 36  0     0  0  0  0  0  0999 V2000
    7.4206   11.7139   25.4866 C   0  0  0  0  0  0  0  0  0  0  0  0
    8.3503   12.3318   24.6576 C   0  0  0  0  0  0  0  0  0  0  0  0
   12.5069   13.8021   21.9382 C   0  0  0  0  0  0  0  0  0  0  0  0
   13.4094   14.6724   21.3372 C   0  0  0  0  0  0  0  0  0  0  0  0
    7.3201   10.3331   25.4324 C   0  0  0  0  0  0  0  0  0  0  0  0
    9.1399   11.5608   23.8118 C   0  0  0  0  0  0  0  0  0  0  0  0
   11.5597   14.2969   22.8278 C   0  0  0  0  0  0  0  0  0  0  0  0
   13.3239   16.0179   21.6567 C   0  0  0  0  0  0  0  0  0  0  0  0
   11.5571   15.6592   23.0808 C   0  0  0  0  0  0  0  0  0  0  0  0
    8.9626   10.1868   23.8328 C   0  0  0  0  0  0  0  0  0  0  0  0
   10.1073   12.2178   22.9436 C   0  0  0  0  0  0  0  0  0  0  0  0
   14.2768   16.9805   21.0304 C   0  0  0  0  0  0  0  0  0  0  0  0
   10.5636   16.2510   24.0273 C   0  0  0  0  0  0  0  0  0  0  0  0
    9.6591    7.9725   22.9176 C   0  0  0  0  0  0  0  0  0  0  0  0
    8.0698    9.5508   24.6240 N   0  0  0  0  0  0  0  0  0  0  0  0
   12.4177   16.5356   22.5161 N   0  0  0  0  0  0  0  0  0  0  0  0
   10.6356   13.4165   23.4450 N   0  0  0  0  0  0  0  0  0  0  0  0
    9.7622    9.3940   22.9713 N   0  0  0  0  0  0  0  0  0  0  0  0
   10.4023   11.7560   21.8338 O   0  0  0  0  0  0  0  0  0  0  0  0
    6.7934   12.2952   26.1527 H   0  0  0  0  0  0  0  0  0  0  0  0
    8.4501   13.4138   24.6793 H   0  0  0  0  0  0  0  0  0  0  0  0
   12.5510   12.7413   21.7059 H   0  0  0  0  0  0  0  0  0  0  0  0
   14.1532   14.2992   20.6414 H   0  0  0  0  0  0  0  0  0  0  0  0
    6.6101    9.8032   26.0589 H   0  0  0  0  0  0  0  0  0  0  0  0
   13.8639   17.3695   20.0920 H   0  0  0  0  0  0  0  0  0  0  0  0
   14.4831   17.8269   21.6978 H   0  0  0  0  0  0  0  0  0  0  0  0
   15.2410   16.5024   20.8155 H   0  0  0  0  0  0  0  0  0  0  0  0
   10.9680   16.2577   25.0458 H   0  0  0  0  0  0  0  0  0  0  0  0
   10.3113   17.2798   23.7437 H   0  0  0  0  0  0  0  0  0  0  0  0
    9.6273   15.6798   24.0258 H   0  0  0  0  0  0  0  0  0  0  0  0
    8.8889    7.6332   23.6259 H   0  0  0  0  0  0  0  0  0  0  0  0
    9.3820    7.6634   21.8989 H   0  0  0  0  0  0  0  0  0  0  0  0
   10.6271    7.5244   23.1863 H   0  0  0  0  0  0  0  0  0  0  0  0
   10.3144   13.6893   24.3706 H   0  0  0  0  0  0  0  0  0  0  0  0
   10.4149    9.8815   22.3927 H   0  0  0  0  0  0  0  0  0  0  0  0
  1  2  2  0  0  0  0
  1  5  1  0  0  0  0
  2  6  1  0  0  0  0
  3  4  2  0  0  0  0
  3  7  1  0  0  0  0
  4  8  1  0  0  0  0
  5 15  2  0  0  0  0
  6 10  2  0  0  0  0
  6 11  1  0  0  0  0
  7  9  2  0  0  0  0
  7 17  1  0  0  0  0
  8 12  1  0  0  0  0
  8 16  2  0  0  0  0
  9 13  1  0  0  0  0
  9 16  1  0  0  0  0
 10 15  1  0  0  0  0
 10 18  1  0  0  0  0
 11 17  1  0  0  0  0
 11 19  2  0  0  0  0
 14 18  1  0  0  0  0
  1 20  1  0  0  0  0
  2 21  1  0  0  0  0
  3 22  1  0  0  0  0
  4 23  1  0  0  0  0
  5 24  1  0  0  0  0
 12 25  1  0  0  0  0
 12 26  1  0  0  0  0
 12 27  1  0  0  0  0
 13 28  1  0  0  0  0
 13 29  1  0  0  0  0
 13 30  1  0  0  0  0
 14 31  1  0  0  0  0
 14 32  1  0  0  0  0
 14 33  1  0  0  0  0
 17 34  1  0  0  0  0
 18 35  1  0  0  0  0
M  END
> <idnumber>
Z1375742387

> <heavy_atoms>
19

> <LogS>
-1.907

> <LogP>
2.08

> <rotating_bonds>
3

> <PSA>
66.91

> <hb_acceptors>
4

> <hb_donors>
2

> <Collection>
Advanced

> <link>
https://www.enaminestore.com/catalog/Z1375742387

> <ROCS_ShapeQuery>
_x1140_x0812_0A_x1140_0A_x1097_0A_x0365_0A_x1097_0A_x0310_0A

> <ROCS_TanimotoCombo>
0.633 

> <ROCS_ShapeTanimoto>
0.243 

> <ROCS_ColorTanimoto>
0.390 

> <ROCS_RefTversky>
0.221 

> <ROCS_RefColorTversky>
0.530 

> <ROCS_RefTverskyCombo>
0.751 

> <ROCS_FitTversky>
1.677 

> <ROCS_FitColorTversky>
0.597 

> <ROCS_FitTverskyCombo>
2.274 

> <ROCS_ColorScore>
-4.211

> <ROCS_Overlap>
2267.460

> <ROCS_Rank>
298                 

$$$$
untitled-dbase-63474_54
  -OEChem-02092421083D

 24 24  0     0  0  0  0  0  0999 V2000
    8.9041   12.3735   24.7360 C   0  0  0  0  0  0  0  0  0  0  0  0
    8.8099   10.3017   23.5717 C   0  0  0  0  0  0  0  0  0  0  0  0
    9.2739   11.6056   23.6374 C   0  0  0  0  0  0  0  0  0  0  0  0
    8.0930   11.8218   25.7214 C   0  0  0  0  0  0  0  0  0  0  0  0
    7.6817   10.5083   25.5624 C   0  0  0  0  0  0  0  0  0  0  0  0
   10.1402   12.1654   22.5681 C   0  0  0  0  0  0  0  0  0  0  0  0
   11.6301   15.3315   21.9175 C   0  0  0  0  0  0  0  0  0  0  0  0
   10.4346   17.0265   20.7803 C   0  0  0  0  0  0  0  0  0  0  0  0
   11.8830   13.8461   22.0260 C   0  0  0  0  0  0  0  0  0  0  0  0
    8.0205    9.7313   24.5093 N   0  0  0  0  0  0  0  0  0  0  0  0
   11.0029   13.1888   22.9487 N   0  0  0  0  0  0  0  0  0  0  0  0
   10.0430   11.7257   21.4255 O   0  0  0  0  0  0  0  0  0  0  0  0
   12.1928   16.1442   22.6438 O   0  0  0  0  0  0  0  0  0  0  0  0
   10.7283   15.6350   20.9439 O   0  0  0  0  0  0  0  0  0  0  0  0
    7.6436   12.7885   27.0732 Cl  0  0  0  0  0  0  0  0  0  0  0  0
    6.6762    9.6947   26.7001 Cl  0  0  0  0  0  0  0  0  0  0  0  0
    9.2507   13.4012   24.8181 H   0  0  0  0  0  0  0  0  0  0  0  0
    9.0643    9.6529   22.7389 H   0  0  0  0  0  0  0  0  0  0  0  0
    9.7041   17.1536   19.9776 H   0  0  0  0  0  0  0  0  0  0  0  0
   11.3532   17.5680   20.5405 H   0  0  0  0  0  0  0  0  0  0  0  0
   10.0185   17.4141   21.7132 H   0  0  0  0  0  0  0  0  0  0  0  0
   12.9063   13.6850   22.3750 H   0  0  0  0  0  0  0  0  0  0  0  0
   11.7345   13.3851   21.0463 H   0  0  0  0  0  0  0  0  0  0  0  0
   10.9762   13.5382   23.9063 H   0  0  0  0  0  0  0  0  0  0  0  0
  1  3  2  0  0  0  0
  1  4  1  0  0  0  0
  2  3  1  0  0  0  0
  2 10  2  0  0  0  0
  3  6  1  0  0  0  0
  4  5  2  0  0  0  0
  4 15  1  0  0  0  0
  5 10  1  0  0  0  0
  5 16  1  0  0  0  0
  6 11  1  0  0  0  0
  6 12  2  0  0  0  0
  7  9  1  0  0  0  0
  7 13  2  0  0  0  0
  7 14  1  0  0  0  0
  8 14  1  0  0  0  0
  9 11  1  0  0  0  0
  1 17  1  0  0  0  0
  2 18  1  0  0  0  0
  8 19  1  0  0  0  0
  8 20  1  0  0  0  0
  8 21  1  0  0  0  0
  9 22  1  0  0  0  0
  9 23  1  0  0  0  0
 11 24  1  0  0  0  0
M  END
> <idnumber>
Z32888161

> <heavy_atoms>
16

> <LogS>
-3.05

> <LogP>
1.523

> <rotating_bonds>
4

> <PSA>
68.29

> <hb_acceptors>
3

> <hb_donors>
1

> <Collection>
Functional

> <link>
https://www.enaminestore.com/catalog/Z32888161

> <ROCS_ShapeQuery>
_x1140_x0812_0A_x1140_0A_x1097_0A_x0365_0A_x1097_0A_x0310_0A

> <ROCS_TanimotoCombo>
0.633 

> <ROCS_ShapeTanimoto>
0.212 

> <ROCS_ColorTanimoto>
0.421 

> <ROCS_RefTversky>
0.195 

> <ROCS_RefColorTversky>
0.490 

> <ROCS_RefTverskyCombo>
0.686 

> <ROCS_FitTversky>
1.688 

> <ROCS_FitColorTversky>
0.747 

> <ROCS_FitTverskyCombo>
2.435 

> <ROCS_ColorScore>
-3.849

> <ROCS_Overlap>
2003.848

> <ROCS_Rank>
299                 

$$$$
untitled-dbase-505725_57
  -OEChem-02092421083D

 32 32  0     1  0  0  0  0  0999 V2000
    7.1920   10.1557   25.1078 C   0  0  0  0  0  0  0  0  0  0  0  0
   10.4160   11.6105   22.5196 C   0  0  0  0  0  0  0  0  0  0  0  0
    8.0988   11.7282   23.4028 C   0  0  0  0  0  0  0  0  0  0  0  0
    9.9031   11.7507   25.0016 C   0  0  0  0  0  0  0  0  0  0  0  0
    7.5072   11.5899   24.8001 C   0  0  2  0  0  0  0  0  0  0  0  0
    8.6089   12.1072   25.7378 C   0  0  2  0  0  0  0  0  0  0  0  0
    8.4926   13.6147   25.9609 C   0  0  0  0  0  0  0  0  0  0  0  0
   11.8814   11.5964   22.8737 C   0  0  0  0  0  0  0  0  0  0  0  0
   12.5996   12.7733   22.2358 C   0  0  0  0  0  0  0  0  0  0  0  0
   12.0126   14.1171   22.6188 C   0  0  0  0  0  0  0  0  0  0  0  0
    9.5422   11.6971   23.5895 N   0  0  0  0  0  0  0  0  0  0  0  0
    6.1519    9.9940   25.9923 N   0  0  0  0  0  0  0  0  0  0  0  0
    7.8086    9.2267   24.5920 O   0  0  0  0  0  0  0  0  0  0  0  0
   10.0591   11.5535   21.3415 O   0  0  0  0  0  0  0  0  0  0  0  0
   12.6446   15.1117   21.9558 F   0  0  0  0  0  0  0  0  0  0  0  0
   12.1416   14.3634   23.9388 F   0  0  0  0  0  0  0  0  0  0  0  0
   10.7012   14.1878   22.3061 F   0  0  0  0  0  0  0  0  0  0  0  0
    7.8262   10.8986   22.7367 H   0  0  0  0  0  0  0  0  0  0  0  0
    7.8036   12.6640   22.9122 H   0  0  0  0  0  0  0  0  0  0  0  0
   10.6742   12.5239   25.1179 H   0  0  0  0  0  0  0  0  0  0  0  0
   10.3187   10.7920   25.3339 H   0  0  0  0  0  0  0  0  0  0  0  0
    6.5915   12.1776   24.8979 H   0  0  0  0  0  0  0  0  0  0  0  0
    8.5734   11.6051   26.6954 H   0  0  0  0  0  0  0  0  0  0  0  0
    8.5264   14.1394   25.0050 H   0  0  0  0  0  0  0  0  0  0  0  0
    9.3157   13.9665   26.5844 H   0  0  0  0  0  0  0  0  0  0  0  0
    7.5499   13.8490   26.4575 H   0  0  0  0  0  0  0  0  0  0  0  0
   11.9374   11.6687   23.9605 H   0  0  0  0  0  0  0  0  0  0  0  0
   12.2988   10.6412   22.5577 H   0  0  0  0  0  0  0  0  0  0  0  0
   13.6647   12.7604   22.4950 H   0  0  0  0  0  0  0  0  0  0  0  0
   12.5318   12.6649   21.1471 H   0  0  0  0  0  0  0  0  0  0  0  0
    5.6911   10.8205   26.3585 H   0  0  0  0  0  0  0  0  0  0  0  0
    5.8266    9.0812   26.2937 H   0  0  0  0  0  0  0  0  0  0  0  0
  1  5  1  1  0  0  0
  1 12  1  0  0  0  0
  1 13  2  0  0  0  0
  2  8  1  0  0  0  0
  2 11  1  0  0  0  0
  2 14  2  0  0  0  0
  3  5  1  0  0  0  0
  3 11  1  0  0  0  0
  4  6  1  0  0  0  0
  4 11  1  0  0  0  0
  5  6  1  0  0  0  0
  6  7  1  6  0  0  0
  8  9  1  0  0  0  0
  9 10  1  0  0  0  0
 10 15  1  0  0  0  0
 10 16  1  0  0  0  0
 10 17  1  0  0  0  0
  3 18  1  0  0  0  0
  3 19  1  0  0  0  0
  4 20  1  0  0  0  0
  4 21  1  0  0  0  0
  5 22  1  0  0  0  0
  6 23  1  0  0  0  0
  7 24  1  0  0  0  0
  7 25  1  0  0  0  0
  7 26  1  0  0  0  0
  8 27  1  0  0  0  0
  8 28  1  0  0  0  0
  9 29  1  0  0  0  0
  9 30  1  0  0  0  0
 12 31  1  0  0  0  0
 12 32  1  0  0  0  0
M  END
> <idnumber>
Z2055164237

> <heavy_atoms>
17

> <LogS>
-2.21

> <LogP>
-0.438

> <rotating_bonds>
4

> <PSA>
63.4

> <hb_acceptors>
2

> <hb_donors>
1

> <Collection>
HTS

> <link>
https://www.enaminestore.com/catalog/Z2055164237

> <ROCS_ShapeQuery>
_x1140_x0812_0A_x1140_0A_x1097_0A_x0365_0A_x1097_0A_x0310_0A

> <ROCS_TanimotoCombo>
0.633 

> <ROCS_ShapeTanimoto>
0.224 

> <ROCS_ColorTanimoto>
0.409 

> <ROCS_RefTversky>
0.205 

> <ROCS_RefColorTversky>
0.447 

> <ROCS_RefTverskyCombo>
0.652 

> <ROCS_FitTversky>
1.699 

> <ROCS_FitColorTversky>
0.829 

> <ROCS_FitTverskyCombo>
2.529 

> <ROCS_ColorScore>
-3.483

> <ROCS_Overlap>
2102.737

> <ROCS_Rank>
300                 

$$$$
untitled-dbase-1139573_4
  -OEChem-02092421083D

 25 26  0     0  0  0  0  0  0999 V2000
    8.2387   12.5864   24.2288 C   0  0  0  0  0  0  0  0  0  0  0  0
    9.0588   11.7379   23.4935 C   0  0  0  0  0  0  0  0  0  0  0  0
    7.4592   12.0709   25.2583 C   0  0  0  0  0  0  0  0  0  0  0  0
    9.0634   10.3925   23.8246 C   0  0  0  0  0  0  0  0  0  0  0  0
    7.5351   10.7105   25.5103 C   0  0  0  0  0  0  0  0  0  0  0  0
    9.8835   12.2937   22.4065 C   0  0  0  0  0  0  0  0  0  0  0  0
   10.5876   14.6692   21.6228 C   0  0  0  0  0  0  0  0  0  0  0  0
   10.8564   14.2606   23.7095 C   0  0  0  0  0  0  0  0  0  0  0  0
   10.9448   15.5265   22.8466 C   0  0  0  0  0  0  0  0  0  0  0  0
    8.3200    9.8550   24.8176 N   0  0  0  0  0  0  0  0  0  0  0  0
   10.3028   13.5913   22.5482 N   0  0  0  0  0  0  0  0  0  0  0  0
    9.8978    9.5214   23.0803 N   0  0  0  0  0  0  0  0  0  0  0  0
   10.1288   11.5803   21.4370 O   0  0  0  0  0  0  0  0  0  0  0  0
   12.2291   16.1735   22.8133 O   0  0  0  0  0  0  0  0  0  0  0  0
    6.4504   13.1368   26.1586 Cl  0  0  0  0  0  0  0  0  0  0  0  0
    6.6285    9.9332   26.7514 Cl  0  0  0  0  0  0  0  0  0  0  0  0
    8.2107   13.6489   23.9970 H   0  0  0  0  0  0  0  0  0  0  0  0
    9.7171   15.0138   21.0587 H   0  0  0  0  0  0  0  0  0  0  0  0
   11.4159   14.4425   20.9455 H   0  0  0  0  0  0  0  0  0  0  0  0
   11.8117   13.8347   24.0290 H   0  0  0  0  0  0  0  0  0  0  0  0
   10.1651   14.3208   24.5538 H   0  0  0  0  0  0  0  0  0  0  0  0
   10.1614   16.2557   23.0897 H   0  0  0  0  0  0  0  0  0  0  0  0
   10.4177    9.8911   22.3147 H   0  0  0  0  0  0  0  0  0  0  0  0
    9.8728    8.5453   23.2795 H   0  0  0  0  0  0  0  0  0  0  0  0
   12.2978   16.6646   23.6424 H   0  0  0  0  0  0  0  0  0  0  0  0
  1  2  1  0  0  0  0
  1  3  2  0  0  0  0
  2  4  2  0  0  0  0
  2  6  1  0  0  0  0
  3  5  1  0  0  0  0
  3 15  1  0  0  0  0
  4 10  1  0  0  0  0
  4 12  1  0  0  0  0
  5 10  2  0  0  0  0
  5 16  1  0  0  0  0
  6 11  1  0  0  0  0
  6 13  2  0  0  0  0
  7  9  1  0  0  0  0
  7 11  1  0  0  0  0
  8  9  1  0  0  0  0
  8 11  1  0  0  0  0
  9 14  1  0  0  0  0
  1 17  1  0  0  0  0
  7 18  1  0  0  0  0
  7 19  1  0  0  0  0
  8 20  1  0  0  0  0
  8 21  1  0  0  0  0
  9 22  1  0  0  0  0
 12 23  1  0  0  0  0
 12 24  1  0  0  0  0
 14 25  1  0  0  0  0
M  END
> <idnumber>
Z6375138526

> <heavy_atoms>
16

> <LogS>
-3.507

> <LogP>
0.657

> <rotating_bonds>
1

> <PSA>
79.45

> <hb_acceptors>
4

> <hb_donors>
2

> <Collection>
Advanced

> <link>
https://www.enaminestore.com/catalog/Z6375138526

> <ROCS_ShapeQuery>
_x1140_x0812_0A_x1140_0A_x1097_0A_x0365_0A_x1097_0A_x0310_0A

> <ROCS_TanimotoCombo>
0.633 

> <ROCS_ShapeTanimoto>
0.251 

> <ROCS_ColorTanimoto>
0.382 

> <ROCS_RefTversky>
0.224 

> <ROCS_RefColorTversky>
0.553 

> <ROCS_RefTverskyCombo>
0.777 

> <ROCS_FitTversky>
1.912 

> <ROCS_FitColorTversky>
0.552 

> <ROCS_FitTverskyCombo>
2.464 

> <ROCS_ColorScore>
-4.423

> <ROCS_Overlap>
2298.985

> <ROCS_Rank>
301                 

$$$$
untitled-dbase-229028_101
  -OEChem-02092421083D

 39 40  0     0  0  0  0  0  0999 V2000
    9.0991   12.3911   25.0852 C   0  0  0  0  0  0  0  0  0  0  0  0
    7.2877   10.8589   24.9183 C   0  0  0  0  0  0  0  0  0  0  0  0
    7.7659   12.0893   25.3394 C   0  0  0  0  0  0  0  0  0  0  0  0
    9.9022   11.4663   24.4270 C   0  0  0  0  0  0  0  0  0  0  0  0
    9.3284   10.2637   24.0470 C   0  0  0  0  0  0  0  0  0  0  0  0
    8.6045   11.1071   21.3247 C   0  0  0  0  0  0  0  0  0  0  0  0
    7.5028   12.1463   21.2499 C   0  0  0  0  0  0  0  0  0  0  0  0
    6.8468   12.1854   19.8739 C   0  0  0  0  0  0  0  0  0  0  0  0
    5.7240   11.1647   19.7050 C   0  0  0  0  0  0  0  0  0  0  0  0
    6.1737    9.7080   19.7951 C   0  0  0  0  0  0  0  0  0  0  0  0
    6.8070    9.3545   21.1365 C   0  0  0  0  0  0  0  0  0  0  0  0
    9.2072    8.7182   21.1937 C   0  0  0  0  0  0  0  0  0  0  0  0
    9.5871    8.2547   22.5900 C   0  0  0  0  0  0  0  0  0  0  0  0
    6.8807   13.0569   26.0411 C   0  0  0  0  0  0  0  0  0  0  0  0
    8.0373    9.9350   24.2763 N   0  0  0  0  0  0  0  0  0  0  0  0
    8.2064    9.7768   21.2192 N   0  0  0  0  0  0  0  0  0  0  0  0
   10.1154    9.3275   23.3885 N   0  0  0  0  0  0  0  0  0  0  0  0
    9.7747   11.4720   21.4622 O   0  0  0  0  0  0  0  0  0  0  0  0
    7.5048   14.2228   26.3899 F   0  0  0  0  0  0  0  0  0  0  0  0
    5.7955   13.4448   25.3049 F   0  0  0  0  0  0  0  0  0  0  0  0
    6.3689   12.5575   27.2057 F   0  0  0  0  0  0  0  0  0  0  0  0
   11.5522   11.8559   24.1198 Cl  0  0  0  0  0  0  0  0  0  0  0  0
    9.5051   13.3487   25.4029 H   0  0  0  0  0  0  0  0  0  0  0  0
    6.2557   10.5681   25.0888 H   0  0  0  0  0  0  0  0  0  0  0  0
    6.7442   11.8586   21.9891 H   0  0  0  0  0  0  0  0  0  0  0  0
    7.8792   13.1259   21.5612 H   0  0  0  0  0  0  0  0  0  0  0  0
    6.4681   13.1914   19.6556 H   0  0  0  0  0  0  0  0  0  0  0  0
    7.6130   11.9649   19.1202 H   0  0  0  0  0  0  0  0  0  0  0  0
    4.9709   11.3431   20.4824 H   0  0  0  0  0  0  0  0  0  0  0  0
    5.2206   11.3321   18.7445 H   0  0  0  0  0  0  0  0  0  0  0  0
    5.3353    9.0351   19.5777 H   0  0  0  0  0  0  0  0  0  0  0  0
    6.9174    9.5373   19.0066 H   0  0  0  0  0  0  0  0  0  0  0  0
    6.2510    9.8506   21.9409 H   0  0  0  0  0  0  0  0  0  0  0  0
    6.7483    8.2776   21.3283 H   0  0  0  0  0  0  0  0  0  0  0  0
    8.7987    7.8962   20.5974 H   0  0  0  0  0  0  0  0  0  0  0  0
   10.0857    9.1193   20.6787 H   0  0  0  0  0  0  0  0  0  0  0  0
    8.7073    7.8679   23.1132 H   0  0  0  0  0  0  0  0  0  0  0  0
   10.3454    7.4658   22.5557 H   0  0  0  0  0  0  0  0  0  0  0  0
   11.1246    9.4095   23.4810 H   0  0  0  0  0  0  0  0  0  0  0  0
  1  3  2  0  0  0  0
  1  4  1  0  0  0  0
  2  3  1  0  0  0  0
  2 15  2  0  0  0  0
  3 14  1  0  0  0  0
  4  5  2  0  0  0  0
  4 22  1  0  0  0  0
  5 15  1  0  0  0  0
  5 17  1  0  0  0  0
  6  7  1  0  0  0  0
  6 16  1  0  0  0  0
  6 18  2  0  0  0  0
  7  8  1  0  0  0  0
  8  9  1  0  0  0  0
  9 10  1  0  0  0  0
 10 11  1  0  0  0  0
 11 16  1  0  0  0  0
 12 13  1  0  0  0  0
 12 16  1  0  0  0  0
 13 17  1  0  0  0  0
 14 19  1  0  0  0  0
 14 20  1  0  0  0  0
 14 21  1  0  0  0  0
  1 23  1  0  0  0  0
  2 24  1  0  0  0  0
  7 25  1  0  0  0  0
  7 26  1  0  0  0  0
  8 27  1  0  0  0  0
  8 28  1  0  0  0  0
  9 29  1  0  0  0  0
  9 30  1  0  0  0  0
 10 31  1  0  0  0  0
 10 32  1  0  0  0  0
 11 33  1  0  0  0  0
 11 34  1  0  0  0  0
 12 35  1  0  0  0  0
 12 36  1  0  0  0  0
 13 37  1  0  0  0  0
 13 38  1  0  0  0  0
 17 39  1  0  0  0  0
M  END
> <idnumber>
Z644923826

> <heavy_atoms>
22

> <LogS>
-3.7

> <LogP>
3.909

> <rotating_bonds>
5

> <PSA>
45.23

> <hb_acceptors>
3

> <hb_donors>
1

> <Collection>
HTS

> <link>
https://www.enaminestore.com/catalog/Z644923826

> <ROCS_ShapeQuery>
_x1140_x0812_0A_x1140_0A_x1097_0A_x0365_0A_x1097_0A_x0310_0A

> <ROCS_TanimotoCombo>
0.633 

> <ROCS_ShapeTanimoto>
0.228 

> <ROCS_ColorTanimoto>
0.405 

> <ROCS_RefTversky>
0.212 

> <ROCS_RefColorTversky>
0.477 

> <ROCS_RefTverskyCombo>
0.689 

> <ROCS_FitTversky>
1.497 

> <ROCS_FitColorTversky>
0.727 

> <ROCS_FitTverskyCombo>
2.224 

> <ROCS_ColorScore>
-3.744

> <ROCS_Overlap>
2178.725

> <ROCS_Rank>
302                 

$$$$
untitled-dbase-833206_49
  -OEChem-02092421083D

 40 41  0     0  0  0  0  0  0999 V2000
    8.8778   12.2938   25.0112 C   0  0  0  0  0  0  0  0  0  0  0  0
    9.6999   11.4861   24.2521 C   0  0  0  0  0  0  0  0  0  0  0  0
    9.2474   10.1987   24.0467 C   0  0  0  0  0  0  0  0  0  0  0  0
    7.3717   10.6100   25.2631 C   0  0  0  0  0  0  0  0  0  0  0  0
   10.1212   12.4508   21.4156 C   0  0  0  0  0  0  0  0  0  0  0  0
    7.8835   11.2711   17.3554 C   0  0  0  0  0  0  0  0  0  0  0  0
    9.3525   11.6031   17.1085 C   0  0  0  0  0  0  0  0  0  0  0  0
    7.1643   12.4044   18.0815 C   0  0  0  0  0  0  0  0  0  0  0  0
   10.0693   11.9843   18.4027 C   0  0  0  0  0  0  0  0  0  0  0  0
    7.8783   12.7859   19.3771 C   0  0  0  0  0  0  0  0  0  0  0  0
    9.3499   13.1302   19.1228 C   0  0  0  0  0  0  0  0  0  0  0  0
   10.5784   14.7656   20.5393 C   0  0  0  0  0  0  0  0  0  0  0  0
   10.9985   11.9943   23.6958 C   0  0  0  0  0  0  0  0  0  0  0  0
    7.7026   11.8869   25.5343 N   0  0  0  0  0  0  0  0  0  0  0  0
    8.0839    9.7255   24.5393 N   0  0  0  0  0  0  0  0  0  0  0  0
   10.7964   12.8656   22.5602 N   0  0  0  0  0  0  0  0  0  0  0  0
   10.0190   13.4181   20.3900 N   0  0  0  0  0  0  0  0  0  0  0  0
    9.6557   11.3124   21.3057 O   0  0  0  0  0  0  0  0  0  0  0  0
    9.9982    9.3234   23.3068 O   0  0  0  0  0  0  0  0  0  0  0  0
    6.1785   10.1616   25.7797 O   0  0  0  0  0  0  0  0  0  0  0  0
    9.1418   13.3238   25.2294 H   0  0  0  0  0  0  0  0  0  0  0  0
    7.3854   11.0704   16.4003 H   0  0  0  0  0  0  0  0  0  0  0  0
    7.8129   10.3534   17.9522 H   0  0  0  0  0  0  0  0  0  0  0  0
    9.8527   10.7426   16.6502 H   0  0  0  0  0  0  0  0  0  0  0  0
    9.4242   12.4327   16.3943 H   0  0  0  0  0  0  0  0  0  0  0  0
    7.1080   13.2812   17.4247 H   0  0  0  0  0  0  0  0  0  0  0  0
    6.1339   12.1045   18.3033 H   0  0  0  0  0  0  0  0  0  0  0  0
   10.1215   11.1042   19.0567 H   0  0  0  0  0  0  0  0  0  0  0  0
   11.1008   12.2744   18.1695 H   0  0  0  0  0  0  0  0  0  0  0  0
    7.3642   13.6413   19.8319 H   0  0  0  0  0  0  0  0  0  0  0  0
    7.8055   11.9511   20.0863 H   0  0  0  0  0  0  0  0  0  0  0  0
    9.4202   14.0393   18.5329 H   0  0  0  0  0  0  0  0  0  0  0  0
   11.6170   14.7741   20.1771 H   0  0  0  0  0  0  0  0  0  0  0  0
    9.9798   15.4781   19.9529 H   0  0  0  0  0  0  0  0  0  0  0  0
   10.5579   15.0555   21.6002 H   0  0  0  0  0  0  0  0  0  0  0  0
   11.5515   12.5552   24.4571 H   0  0  0  0  0  0  0  0  0  0  0  0
   11.6384   11.1664   23.3729 H   0  0  0  0  0  0  0  0  0  0  0  0
   11.1587   13.8108   22.5987 H   0  0  0  0  0  0  0  0  0  0  0  0
    9.5481    8.4686   23.2553 H   0  0  0  0  0  0  0  0  0  0  0  0
    5.7549   10.8733   26.2763 H   0  0  0  0  0  0  0  0  0  0  0  0
  1  2  1  0  0  0  0
  1 14  2  0  0  0  0
  2  3  2  0  0  0  0
  2 13  1  0  0  0  0
  3 15  1  0  0  0  0
  3 19  1  0  0  0  0
  4 14  1  0  0  0  0
  4 15  2  0  0  0  0
  4 20  1  0  0  0  0
  5 16  1  0  0  0  0
  5 17  1  0  0  0  0
  5 18  2  0  0  0  0
  6  7  1  0  0  0  0
  6  8  1  0  0  0  0
  7  9  1  0  0  0  0
  8 10  1  0  0  0  0
  9 11  1  0  0  0  0
 10 11  1  0  0  0  0
 11 17  1  0  0  0  0
 12 17  1  0  0  0  0
 13 16  1  0  0  0  0
  1 21  1  0  0  0  0
  6 22  1  0  0  0  0
  6 23  1  0  0  0  0
  7 24  1  0  0  0  0
  7 25  1  0  0  0  0
  8 26  1  0  0  0  0
  8 27  1  0  0  0  0
  9 28  1  0  0  0  0
  9 29  1  0  0  0  0
 10 30  1  0  0  0  0
 10 31  1  0  0  0  0
 11 32  1  0  0  0  0
 12 33  1  0  0  0  0
 12 34  1  0  0  0  0
 12 35  1  0  0  0  0
 13 36  1  0  0  0  0
 13 37  1  0  0  0  0
 16 38  1  0  0  0  0
 19 39  1  0  0  0  0
 20 40  1  0  0  0  0
M  END
> <idnumber>
Z1906266541

> <heavy_atoms>
20

> <LogS>
-2.291

> <LogP>
1.885

> <rotating_bonds>
3

> <PSA>
98.58

> <hb_acceptors>
5

> <hb_donors>
3

> <Collection>
Advanced

> <link>
https://www.enaminestore.com/catalog/Z1906266541

> <ROCS_ShapeQuery>
_x1140_x0812_0A_x1140_0A_x1097_0A_x0365_0A_x1097_0A_x0310_0A

> <ROCS_TanimotoCombo>
0.633 

> <ROCS_ShapeTanimoto>
0.223 

> <ROCS_ColorTanimoto>
0.410 

> <ROCS_RefTversky>
0.207 

> <ROCS_RefColorTversky>
0.647 

> <ROCS_RefTverskyCombo>
0.854 

> <ROCS_FitTversky>
1.542 

> <ROCS_FitColorTversky>
0.528 

> <ROCS_FitTverskyCombo>
2.070 

> <ROCS_ColorScore>
-5.244

> <ROCS_Overlap>
2120.939

> <ROCS_Rank>
303                 

$$$$
untitled-dbase-661538_135
  -OEChem-02092421083D

 34 35  0     0  0  0  0  0  0999 V2000
    7.1852   13.5129   26.0605 C   0  0  0  0  0  0  0  0  0  0  0  0
    6.5294   12.3789   26.5466 C   0  0  0  0  0  0  0  0  0  0  0  0
    8.1626   13.4101   25.0611 C   0  0  0  0  0  0  0  0  0  0  0  0
    6.8242   11.1039   26.0544 C   0  0  0  0  0  0  0  0  0  0  0  0
    8.4748   12.1376   24.5514 C   0  0  0  0  0  0  0  0  0  0  0  0
    9.3680   11.6259   23.5736 C   0  0  0  0  0  0  0  0  0  0  0  0
    7.7997   11.0334   25.0616 C   0  0  0  0  0  0  0  0  0  0  0  0
    9.1808   10.2631   23.5526 C   0  0  0  0  0  0  0  0  0  0  0  0
   11.3640   14.3779   23.5355 C   0  0  0  0  0  0  0  0  0  0  0  0
    9.7915    9.2341   22.7793 C   0  0  0  0  0  0  0  0  0  0  0  0
   10.4749   13.7083   22.7789 C   0  0  0  0  0  0  0  0  0  0  0  0
   11.5604   15.8574   23.4929 C   0  0  0  0  0  0  0  0  0  0  0  0
    8.9810    7.9959   22.4548 C   0  0  0  0  0  0  0  0  0  0  0  0
    9.6064   14.4769   21.8157 C   0  0  0  0  0  0  0  0  0  0  0  0
   10.7121   16.6587   24.4379 C   0  0  0  0  0  0  0  0  0  0  0  0
   10.2621   12.3576   22.7863 N   0  0  0  0  0  0  0  0  0  0  0  0
   10.9588    9.2437   22.3322 O   0  0  0  0  0  0  0  0  0  0  0  0
   12.3612   16.3990   22.7366 O   0  0  0  0  0  0  0  0  0  0  0  0
    8.2316    9.8937   24.4518 O   0  0  0  0  0  0  0  0  0  0  0  0
    9.8964   15.8692   25.1817 F   0  0  0  0  0  0  0  0  0  0  0  0
    9.9165   17.5411   23.7817 F   0  0  0  0  0  0  0  0  0  0  0  0
   11.4615   17.3798   25.3101 F   0  0  0  0  0  0  0  0  0  0  0  0
    6.9344   14.4909   26.4631 H   0  0  0  0  0  0  0  0  0  0  0  0
    5.7758   12.4893   27.3224 H   0  0  0  0  0  0  0  0  0  0  0  0
    8.6628   14.3014   24.6944 H   0  0  0  0  0  0  0  0  0  0  0  0
    6.3200   10.2200   26.4263 H   0  0  0  0  0  0  0  0  0  0  0  0
   12.0003   13.8436   24.2359 H   0  0  0  0  0  0  0  0  0  0  0  0
    8.4153    8.0795   21.5135 H   0  0  0  0  0  0  0  0  0  0  0  0
    8.2644    7.7341   23.2486 H   0  0  0  0  0  0  0  0  0  0  0  0
    9.5859    7.0820   22.3171 H   0  0  0  0  0  0  0  0  0  0  0  0
   10.0984   14.5551   20.8400 H   0  0  0  0  0  0  0  0  0  0  0  0
    9.4240   15.4890   22.1933 H   0  0  0  0  0  0  0  0  0  0  0  0
    8.6321   14.0022   21.6575 H   0  0  0  0  0  0  0  0  0  0  0  0
   10.8308   11.8395   22.1343 H   0  0  0  0  0  0  0  0  0  0  0  0
  1  2  1  0  0  0  0
  1  3  2  0  0  0  0
  2  4  2  0  0  0  0
  3  5  1  0  0  0  0
  4  7  1  0  0  0  0
  5  6  1  0  0  0  0
  5  7  2  0  0  0  0
  6  8  2  0  0  0  0
  6 16  1  0  0  0  0
  7 19  1  0  0  0  0
  8 10  1  0  0  0  0
  8 19  1  0  0  0  0
  9 11  2  0  0  0  0
  9 12  1  4  0  0  0
 10 13  1  0  0  0  0
 10 17  2  0  0  0  0
 11 14  1  0  0  0  0
 11 16  1  0  0  0  0
 12 15  1  0  0  0  0
 12 18  2  0  0  0  0
 15 20  1  0  0  0  0
 15 21  1  0  0  0  0
 15 22  1  0  0  0  0
  1 23  1  0  0  0  0
  2 24  1  0  0  0  0
  3 25  1  0  0  0  0
  4 26  1  0  0  0  0
  9 27  1  0  0  0  0
 13 28  1  0  0  0  0
 13 29  1  0  0  0  0
 13 30  1  0  0  0  0
 14 31  1  0  0  0  0
 14 32  1  0  0  0  0
 14 33  1  0  0  0  0
 16 34  1  0  0  0  0
M  END
> <idnumber>
Z234887950

> <heavy_atoms>
22

> <LogS>
-5.1

> <LogP>
3.966

> <rotating_bonds>
5

> <PSA>
59.31

> <hb_acceptors>
3

> <hb_donors>
1

> <Collection>
HTS

> <link>
https://www.enaminestore.com/catalog/Z234887950

> <ROCS_ShapeQuery>
_x1140_x0812_0A_x1140_0A_x1097_0A_x0365_0A_x1097_0A_x0310_0A

> <ROCS_TanimotoCombo>
0.633 

> <ROCS_ShapeTanimoto>
0.277 

> <ROCS_ColorTanimoto>
0.356 

> <ROCS_RefTversky>
0.248 

> <ROCS_RefColorTversky>
0.466 

> <ROCS_RefTverskyCombo>
0.714 

> <ROCS_FitTversky>
1.711 

> <ROCS_FitColorTversky>
0.601 

> <ROCS_FitTverskyCombo>
2.312 

> <ROCS_ColorScore>
-3.678

> <ROCS_Overlap>
2551.750

> <ROCS_Rank>
304                 

$$$$
untitled-dbase-536393_52
  -OEChem-02092421083D

 38 40  0     1  0  0  0  0  0999 V2000
   16.2347   13.2762   22.4414 C   0  0  0  0  0  0  0  0  0  0  0  0
   16.1219   14.6526   22.6282 C   0  0  0  0  0  0  0  0  0  0  0  0
   15.0879   12.4863   22.3504 C   0  0  0  0  0  0  0  0  0  0  0  0
   14.8626   15.2448   22.7250 C   0  0  0  0  0  0  0  0  0  0  0  0
   13.8202   13.0719   22.4464 C   0  0  0  0  0  0  0  0  0  0  0  0
   13.7114   14.4537   22.6340 C   0  0  0  0  0  0  0  0  0  0  0  0
   12.6154   12.2612   22.3532 C   0  0  0  0  0  0  0  0  0  0  0  0
   12.3767   15.0927   22.7383 C   0  0  0  0  0  0  0  0  0  0  0  0
   11.4363   12.8808   22.4530 C   0  0  0  0  0  0  0  0  0  0  0  0
   10.2015   12.0767   22.3610 C   0  0  0  0  0  0  0  0  0  0  0  0
    7.2807   10.3036   25.0611 C   0  0  0  0  0  0  0  0  0  0  0  0
    7.9192   11.9361   23.3046 C   0  0  0  0  0  0  0  0  0  0  0  0
    9.7283   12.2903   24.8569 C   0  0  0  0  0  0  0  0  0  0  0  0
    7.3794   11.7609   24.7182 C   0  0  2  0  0  0  0  0  0  0  0  0
    8.4079   12.4674   25.6124 C   0  0  2  0  0  0  0  0  0  0  0  0
    8.0667   13.9459   25.7971 C   0  0  0  0  0  0  0  0  0  0  0  0
    9.3578   12.1063   23.4559 N   0  0  0  0  0  0  0  0  0  0  0  0
    6.2828   10.0120   25.9607 N   0  0  0  0  0  0  0  0  0  0  0  0
   12.2570   16.3001   22.9034 O   0  0  0  0  0  0  0  0  0  0  0  0
    9.9921   11.4296   21.3352 O   0  0  0  0  0  0  0  0  0  0  0  0
    8.0227    9.4631   24.5588 O   0  0  0  0  0  0  0  0  0  0  0  0
   11.2913   14.2657   22.6422 O   0  0  0  0  0  0  0  0  0  0  0  0
   17.2164   12.8174   22.3664 H   0  0  0  0  0  0  0  0  0  0  0  0
   17.0160   15.2654   22.6986 H   0  0  0  0  0  0  0  0  0  0  0  0
   15.1961   11.4141   22.2045 H   0  0  0  0  0  0  0  0  0  0  0  0
   14.7991   16.3197   22.8706 H   0  0  0  0  0  0  0  0  0  0  0  0
   12.7067   11.1908   22.2072 H   0  0  0  0  0  0  0  0  0  0  0  0
    7.7488   11.0564   22.6690 H   0  0  0  0  0  0  0  0  0  0  0  0
    7.4872   12.8066   22.7951 H   0  0  0  0  0  0  0  0  0  0  0  0
   10.3673   13.1816   24.9188 H   0  0  0  0  0  0  0  0  0  0  0  0
   10.2948   11.4252   25.2232 H   0  0  0  0  0  0  0  0  0  0  0  0
    6.3871   12.2099   24.8137 H   0  0  0  0  0  0  0  0  0  0  0  0
    8.4683   11.9963   26.5847 H   0  0  0  0  0  0  0  0  0  0  0  0
    8.0011   14.4401   24.8268 H   0  0  0  0  0  0  0  0  0  0  0  0
    8.8385   14.4378   26.3908 H   0  0  0  0  0  0  0  0  0  0  0  0
    7.1094   14.0489   26.3099 H   0  0  0  0  0  0  0  0  0  0  0  0
    5.7085   10.7704   26.3138 H   0  0  0  0  0  0  0  0  0  0  0  0
    6.0974    9.0686   26.2858 H   0  0  0  0  0  0  0  0  0  0  0  0
  1  2  1  0  0  0  0
  1  3  2  0  0  0  0
  2  4  2  0  0  0  0
  3  5  1  0  0  0  0
  4  6  1  0  0  0  0
  5  6  2  0  0  0  0
  5  7  1  0  0  0  0
  6  8  1  0  0  0  0
  7  9  2  0  0  0  0
  8 19  2  0  0  0  0
  8 22  1  0  0  0  0
  9 10  1  0  0  0  0
  9 22  1  0  0  0  0
 10 17  1  0  0  0  0
 10 20  2  0  0  0  0
 11 14  1  1  0  0  0
 11 18  1  0  0  0  0
 11 21  2  0  0  0  0
 12 14  1  0  0  0  0
 12 17  1  0  0  0  0
 13 15  1  0  0  0  0
 13 17  1  0  0  0  0
 14 15  1  0  0  0  0
 15 16  1  6  0  0  0
  1 23  1  0  0  0  0
  2 24  1  0  0  0  0
  3 25  1  0  0  0  0
  4 26  1  0  0  0  0
  7 27  1  0  0  0  0
 12 28  1  0  0  0  0
 12 29  1  0  0  0  0
 13 30  1  0  0  0  0
 13 31  1  0  0  0  0
 14 32  1  0  0  0  0
 15 33  1  0  0  0  0
 16 34  1  0  0  0  0
 16 35  1  0  0  0  0
 16 36  1  0  0  0  0
 18 37  1  0  0  0  0
 18 38  1  0  0  0  0
M  END
> <idnumber>
Z2061495052

> <heavy_atoms>
22

> <LogS>
-4.272

> <LogP>
-0.002

> <rotating_bonds>
2

> <PSA>
89.7

> <hb_acceptors>
3

> <hb_donors>
1

> <Collection>
Advanced

> <link>
https://www.enaminestore.com/catalog/Z2061495052

> <ROCS_ShapeQuery>
_x1140_x0812_0A_x1140_0A_x1097_0A_x0365_0A_x1097_0A_x0310_0A

> <ROCS_TanimotoCombo>
0.633 

> <ROCS_ShapeTanimoto>
0.218 

> <ROCS_ColorTanimoto>
0.414 

> <ROCS_RefTversky>
0.205 

> <ROCS_RefColorTversky>
0.553 

> <ROCS_RefTverskyCombo>
0.758 

> <ROCS_FitTversky>
1.410 

> <ROCS_FitColorTversky>
0.623 

> <ROCS_FitTverskyCombo>
2.033 

> <ROCS_ColorScore>
-4.397

> <ROCS_Overlap>
2106.972

> <ROCS_Rank>
305                 

$$$$
untitled-dbase-812052_55
  -OEChem-02092421083D

 30 31  0     0  0  0  0  0  0999 V2000
    9.0409   12.1861   25.2514 C   0  0  0  0  0  0  0  0  0  0  0  0
    8.0551   11.5416   25.9904 C   0  0  0  0  0  0  0  0  0  0  0  0
   11.7770   14.4787   21.9133 C   0  0  0  0  0  0  0  0  0  0  0  0
    9.4928   11.6212   24.0639 C   0  0  0  0  0  0  0  0  0  0  0  0
   12.8205   15.3538   22.2613 C   0  0  0  0  0  0  0  0  0  0  0  0
   10.6505   15.2468   22.0440 C   0  0  0  0  0  0  0  0  0  0  0  0
    7.5577   10.3440   25.5025 C   0  0  0  0  0  0  0  0  0  0  0  0
    8.9311   10.4199   23.6624 C   0  0  0  0  0  0  0  0  0  0  0  0
   10.6653   12.2056   21.9124 C   0  0  0  0  0  0  0  0  0  0  0  0
   14.2655   15.0730   22.3020 C   0  0  0  0  0  0  0  0  0  0  0  0
    9.2168   14.9961   21.8470 C   0  0  0  0  0  0  0  0  0  0  0  0
   11.8693   13.0349   21.4943 C   0  0  0  0  0  0  0  0  0  0  0  0
   12.3751   16.5716   22.5832 N   0  0  0  0  0  0  0  0  0  0  0  0
    7.9717    9.7645   24.3535 N   0  0  0  0  0  0  0  0  0  0  0  0
   10.4795   12.2476   23.3057 N   0  0  0  0  0  0  0  0  0  0  0  0
    9.9764   11.5948   21.1015 O   0  0  0  0  0  0  0  0  0  0  0  0
   10.9944   16.4980   22.4433 O   0  0  0  0  0  0  0  0  0  0  0  0
    6.6053    9.7120   26.2058 F   0  0  0  0  0  0  0  0  0  0  0  0
    9.3509    9.8543   22.5187 F   0  0  0  0  0  0  0  0  0  0  0  0
    9.4500   13.1270   25.6099 H   0  0  0  0  0  0  0  0  0  0  0  0
    7.6883   11.9637   26.9189 H   0  0  0  0  0  0  0  0  0  0  0  0
   14.7428   15.2871   21.3303 H   0  0  0  0  0  0  0  0  0  0  0  0
   14.7862   15.6752   23.0678 H   0  0  0  0  0  0  0  0  0  0  0  0
   14.4786   14.0181   22.5516 H   0  0  0  0  0  0  0  0  0  0  0  0
    8.7377   14.6363   22.7754 H   0  0  0  0  0  0  0  0  0  0  0  0
    8.6710   15.9028   21.5252 H   0  0  0  0  0  0  0  0  0  0  0  0
    9.0256   14.2389   21.0634 H   0  0  0  0  0  0  0  0  0  0  0  0
   11.9765   12.9739   20.4038 H   0  0  0  0  0  0  0  0  0  0  0  0
   12.7737   12.5853   21.9235 H   0  0  0  0  0  0  0  0  0  0  0  0
   11.1580   12.8123   23.8315 H   0  0  0  0  0  0  0  0  0  0  0  0
  1  2  2  0  0  0  0
  1  4  1  0  0  0  0
  2  7  1  0  0  0  0
  3  5  1  0  0  0  0
  3  6  2  0  0  0  0
  3 12  1  0  0  0  0
  4  8  2  0  0  0  0
  4 15  1  0  0  0  0
  5 10  1  0  0  0  0
  5 13  2  0  0  0  0
  6 11  1  0  0  0  0
  6 17  1  0  0  0  0
  7 14  2  0  0  0  0
  7 18  1  0  0  0  0
  8 14  1  0  0  0  0
  8 19  1  0  0  0  0
  9 12  1  0  0  0  0
  9 15  1  0  0  0  0
  9 16  2  0  0  0  0
 13 17  1  0  0  0  0
  1 20  1  0  0  0  0
  2 21  1  0  0  0  0
 10 22  1  0  0  0  0
 10 23  1  0  0  0  0
 10 24  1  0  0  0  0
 11 25  1  0  0  0  0
 11 26  1  0  0  0  0
 11 27  1  0  0  0  0
 12 28  1  0  0  0  0
 12 29  1  0  0  0  0
 15 30  1  0  0  0  0
M  END
> <idnumber>
Z1836217778

> <heavy_atoms>
19

> <LogS>
-2.53

> <LogP>
0.289

> <rotating_bonds>
3

> <PSA>
68.02

> <hb_acceptors>
3

> <hb_donors>
1

> <Collection>
HTS

> <link>
https://www.enaminestore.com/catalog/Z1836217778

> <ROCS_ShapeQuery>
_x1140_x0812_0A_x1140_0A_x1097_0A_x0365_0A_x1097_0A_x0310_0A

> <ROCS_TanimotoCombo>
0.633 

> <ROCS_ShapeTanimoto>
0.229 

> <ROCS_ColorTanimoto>
0.404 

> <ROCS_RefTversky>
0.211 

> <ROCS_RefColorTversky>
0.510 

> <ROCS_RefTverskyCombo>
0.720 

> <ROCS_FitTversky>
1.597 

> <ROCS_FitColorTversky>
0.660 

> <ROCS_FitTverskyCombo>
2.257 

> <ROCS_ColorScore>
-4.026

> <ROCS_Overlap>
2164.826

> <ROCS_Rank>
306                 

$$$$
untitled-dbase-163245_128
  -OEChem-02092421083D

 46 48  0     0  0  0  0  0  0999 V2000
   10.3765    5.9068   21.7784 C   0  0  0  0  0  0  0  0  0  0  0  0
    7.5688   12.1079   25.1659 C   0  0  0  0  0  0  0  0  0  0  0  0
    8.4924   12.5301   24.2161 C   0  0  0  0  0  0  0  0  0  0  0  0
   10.6141    7.2338   22.1363 C   0  0  0  0  0  0  0  0  0  0  0  0
    9.1611    5.3039   22.1025 C   0  0  0  0  0  0  0  0  0  0  0  0
    8.4209    7.3551   23.1425 C   0  0  0  0  0  0  0  0  0  0  0  0
    7.4624   10.7477   25.4072 C   0  0  0  0  0  0  0  0  0  0  0  0
    9.2703   11.5925   23.5461 C   0  0  0  0  0  0  0  0  0  0  0  0
    9.6363    7.9580   22.8184 C   0  0  0  0  0  0  0  0  0  0  0  0
    8.1833    6.0280   22.7846 C   0  0  0  0  0  0  0  0  0  0  0  0
    9.0879   10.2553   23.8601 C   0  0  0  0  0  0  0  0  0  0  0  0
   10.2389   12.0480   22.5415 C   0  0  0  0  0  0  0  0  0  0  0  0
   11.4239   16.4487   22.5971 C   0  0  0  0  0  0  0  0  0  0  0  0
   10.7578   15.5008   21.6032 C   0  0  0  0  0  0  0  0  0  0  0  0
   11.9723   15.8607   23.8992 C   0  0  0  0  0  0  0  0  0  0  0  0
   11.6528   14.4274   20.9869 C   0  0  0  0  0  0  0  0  0  0  0  0
   11.0747   14.8303   24.5897 C   0  0  0  0  0  0  0  0  0  0  0  0
   12.2189   13.3770   21.9421 C   0  0  0  0  0  0  0  0  0  0  0  0
   11.4760   13.3749   24.3284 C   0  0  0  0  0  0  0  0  0  0  0  0
    8.2008    9.8071   24.7765 N   0  0  0  0  0  0  0  0  0  0  0  0
   11.2596   12.9187   22.9473 N   0  0  0  0  0  0  0  0  0  0  0  0
    9.8756    9.2930   23.1794 N   0  0  0  0  0  0  0  0  0  0  0  0
   10.0737   11.6271   21.3971 O   0  0  0  0  0  0  0  0  0  0  0  0
    7.0155    5.4495   23.0943 F   0  0  0  0  0  0  0  0  0  0  0  0
   11.1375    5.3430   21.2466 H   0  0  0  0  0  0  0  0  0  0  0  0
    6.9507   12.8211   25.6991 H   0  0  0  0  0  0  0  0  0  0  0  0
    8.5965   13.5915   24.0066 H   0  0  0  0  0  0  0  0  0  0  0  0
   11.5649    7.6935   21.8794 H   0  0  0  0  0  0  0  0  0  0  0  0
    8.9759    4.2709   21.8235 H   0  0  0  0  0  0  0  0  0  0  0  0
    7.6518    7.9095   23.6743 H   0  0  0  0  0  0  0  0  0  0  0  0
    6.7569   10.3671   26.1384 H   0  0  0  0  0  0  0  0  0  0  0  0
   12.2067   17.0504   22.0826 H   0  0  0  0  0  0  0  0  0  0  0  0
   10.6595   17.2121   22.8662 H   0  0  0  0  0  0  0  0  0  0  0  0
    9.9315   14.9920   22.1122 H   0  0  0  0  0  0  0  0  0  0  0  0
   10.3036   16.0955   20.8037 H   0  0  0  0  0  0  0  0  0  0  0  0
   12.9165   15.3432   23.6577 H   0  0  0  0  0  0  0  0  0  0  0  0
   12.2578   16.6555   24.6075 H   0  0  0  0  0  0  0  0  0  0  0  0
   11.1470   13.9513   20.1291 H   0  0  0  0  0  0  0  0  0  0  0  0
   12.5137   14.9458   20.5248 H   0  0  0  0  0  0  0  0  0  0  0  0
   11.0469   15.0256   25.6593 H   0  0  0  0  0  0  0  0  0  0  0  0
   10.0606   14.9667   24.2161 H   0  0  0  0  0  0  0  0  0  0  0  0
   12.5037   12.4973   21.3682 H   0  0  0  0  0  0  0  0  0  0  0  0
   13.1139   13.7736   22.4083 H   0  0  0  0  0  0  0  0  0  0  0  0
   12.5536   13.2828   24.5347 H   0  0  0  0  0  0  0  0  0  0  0  0
   10.9840   12.6893   25.0317 H   0  0  0  0  0  0  0  0  0  0  0  0
   10.7845    9.6439   22.9028 H   0  0  0  0  0  0  0  0  0  0  0  0
  1  4  1  0  0  0  0
  1  5  2  0  0  0  0
  2  3  2  0  0  0  0
  2  7  1  0  0  0  0
  3  8  1  0  0  0  0
  4  9  2  0  0  0  0
  5 10  1  0  0  0  0
  6  9  1  0  0  0  0
  6 10  2  0  0  0  0
  7 20  2  0  0  0  0
  8 11  2  0  0  0  0
  8 12  1  0  0  0  0
  9 22  1  0  0  0  0
 10 24  1  0  0  0  0
 11 20  1  0  0  0  0
 11 22  1  0  0  0  0
 12 21  1  0  0  0  0
 12 23  2  0  0  0  0
 13 14  1  0  0  0  0
 13 15  1  0  0  0  0
 14 16  1  0  0  0  0
 15 17  1  0  0  0  0
 16 18  1  0  0  0  0
 17 19  1  0  0  0  0
 18 21  1  0  0  0  0
 19 21  1  0  0  0  0
  1 25  1  0  0  0  0
  2 26  1  0  0  0  0
  3 27  1  0  0  0  0
  4 28  1  0  0  0  0
  5 29  1  0  0  0  0
  6 30  1  0  0  0  0
  7 31  1  0  0  0  0
 13 32  1  0  0  0  0
 13 33  1  0  0  0  0
 14 34  1  0  0  0  0
 14 35  1  0  0  0  0
 15 36  1  0  0  0  0
 15 37  1  0  0  0  0
 16 38  1  0  0  0  0
 16 39  1  0  0  0  0
 17 40  1  0  0  0  0
 17 41  1  0  0  0  0
 18 42  1  0  0  0  0
 18 43  1  0  0  0  0
 19 44  1  0  0  0  0
 19 45  1  0  0  0  0
 22 46  1  0  0  0  0
M  END
> <idnumber>
Z455156654

> <heavy_atoms>
24

> <LogS>
-4.83

> <LogP>
4.533

> <rotating_bonds>
3

> <PSA>
45.23

> <hb_acceptors>
3

> <hb_donors>
1

> <Collection>
Legacy

> <link>
https://www.enaminestore.com/catalog/Z455156654

> <ROCS_ShapeQuery>
_x1140_x0812_0A_x1140_0A_x1097_0A_x0365_0A_x1097_0A_x0310_0A

> <ROCS_TanimotoCombo>
0.633 

> <ROCS_ShapeTanimoto>
0.246 

> <ROCS_ColorTanimoto>
0.387 

> <ROCS_RefTversky>
0.227 

> <ROCS_RefColorTversky>
0.462 

> <ROCS_RefTverskyCombo>
0.689 

> <ROCS_FitTversky>
1.502 

> <ROCS_FitColorTversky>
0.704 

> <ROCS_FitTverskyCombo>
2.206 

> <ROCS_ColorScore>
-3.624

> <ROCS_Overlap>
2335.568

> <ROCS_Rank>
307                 

$$$$
untitled-dbase-739842_196
  -OEChem-02092421083D

 34 36  0     0  0  0  0  0  0999 V2000
   13.1769    7.9230   22.2776 C   0  0  0  0  0  0  0  0  0  0  0  0
    7.4170   12.0141   25.0926 C   0  0  0  0  0  0  0  0  0  0  0  0
    8.2807   12.4286   24.0848 C   0  0  0  0  0  0  0  0  0  0  0  0
   11.7923    8.0409   22.3984 C   0  0  0  0  0  0  0  0  0  0  0  0
   14.0117    8.8751   22.8628 C   0  0  0  0  0  0  0  0  0  0  0  0
   12.0772   10.0630   23.6896 C   0  0  0  0  0  0  0  0  0  0  0  0
    7.4103   10.6700   25.4288 C   0  0  0  0  0  0  0  0  0  0  0  0
    9.0997   11.4994   23.4530 C   0  0  0  0  0  0  0  0  0  0  0  0
   11.2424    9.1109   23.1044 C   0  0  0  0  0  0  0  0  0  0  0  0
   13.4618    9.9451   23.5688 C   0  0  0  0  0  0  0  0  0  0  0  0
    9.0178   10.1784   23.8628 C   0  0  0  0  0  0  0  0  0  0  0  0
    9.9972   11.9427   22.3951 C   0  0  0  0  0  0  0  0  0  0  0  0
   12.3224   14.8978   21.8750 C   0  0  0  0  0  0  0  0  0  0  0  0
   13.3003   13.8085   22.2094 C   0  0  0  0  0  0  0  0  0  0  0  0
   11.8994   13.4587   21.7958 C   0  0  0  0  0  0  0  0  0  0  0  0
    8.1913    9.7381   24.8378 N   0  0  0  0  0  0  0  0  0  0  0  0
    9.8425    9.2307   23.2258 N   0  0  0  0  0  0  0  0  0  0  0  0
   10.9546   12.9031   22.7378 N   0  0  0  0  0  0  0  0  0  0  0  0
    9.8846   11.4894   21.2435 O   0  0  0  0  0  0  0  0  0  0  0  0
   14.2635   10.8584   24.1321 F   0  0  0  0  0  0  0  0  0  0  0  0
   13.6053    7.0894   21.7286 H   0  0  0  0  0  0  0  0  0  0  0  0
    6.7684   12.7207   25.5976 H   0  0  0  0  0  0  0  0  0  0  0  0
    8.3063   13.4773   23.8005 H   0  0  0  0  0  0  0  0  0  0  0  0
   11.1512    7.2937   21.9380 H   0  0  0  0  0  0  0  0  0  0  0  0
   15.0896    8.7831   22.7692 H   0  0  0  0  0  0  0  0  0  0  0  0
   11.6599   10.9013   24.2415 H   0  0  0  0  0  0  0  0  0  0  0  0
    6.7547   10.2960   26.2083 H   0  0  0  0  0  0  0  0  0  0  0  0
   11.9473   15.5037   22.6907 H   0  0  0  0  0  0  0  0  0  0  0  0
   12.4623   15.4346   20.9445 H   0  0  0  0  0  0  0  0  0  0  0  0
   14.0979   13.6124   21.5037 H   0  0  0  0  0  0  0  0  0  0  0  0
   13.5785   13.6840   23.2488 H   0  0  0  0  0  0  0  0  0  0  0  0
   11.7751   13.0432   20.8015 H   0  0  0  0  0  0  0  0  0  0  0  0
    9.3289    8.4864   22.7632 H   0  0  0  0  0  0  0  0  0  0  0  0
   10.9612   13.2852   23.6779 H   0  0  0  0  0  0  0  0  0  0  0  0
  1  4  1  0  0  0  0
  1  5  2  0  0  0  0
  2  3  2  0  0  0  0
  2  7  1  0  0  0  0
  3  8  1  0  0  0  0
  4  9  2  0  0  0  0
  5 10  1  0  0  0  0
  6  9  1  0  0  0  0
  6 10  2  0  0  0  0
  7 16  2  0  0  0  0
  8 11  2  0  0  0  0
  8 12  1  0  0  0  0
  9 17  1  0  0  0  0
 10 20  1  0  0  0  0
 11 16  1  0  0  0  0
 11 17  1  0  0  0  0
 12 18  1  0  0  0  0
 12 19  2  0  0  0  0
 13 14  1  0  0  0  0
 13 15  1  0  0  0  0
 14 15  1  0  0  0  0
 15 18  1  0  0  0  0
  1 21  1  0  0  0  0
  2 22  1  0  0  0  0
  3 23  1  0  0  0  0
  4 24  1  0  0  0  0
  5 25  1  0  0  0  0
  6 26  1  0  0  0  0
  7 27  1  0  0  0  0
 13 28  1  0  0  0  0
 13 29  1  0  0  0  0
 14 30  1  0  0  0  0
 14 31  1  0  0  0  0
 15 32  1  0  0  0  0
 17 33  1  0  0  0  0
 18 34  1  0  0  0  0
M  END
> <idnumber>
Z454412446

> <heavy_atoms>
20

> <LogS>
-3.61

> <LogP>
3.776

> <rotating_bonds>
4

> <PSA>
54.02

> <hb_acceptors>
3

> <hb_donors>
2

> <Collection>
HTS

> <link>
https://www.enaminestore.com/catalog/Z454412446

> <ROCS_ShapeQuery>
_x1140_x0812_0A_x1140_0A_x1097_0A_x0365_0A_x1097_0A_x0310_0A

> <ROCS_TanimotoCombo>
0.632 

> <ROCS_ShapeTanimoto>
0.240 

> <ROCS_ColorTanimoto>
0.393 

> <ROCS_RefTversky>
0.220 

> <ROCS_RefColorTversky>
0.500 

> <ROCS_RefTverskyCombo>
0.719 

> <ROCS_FitTversky>
1.615 

> <ROCS_FitColorTversky>
0.647 

> <ROCS_FitTverskyCombo>
2.262 

> <ROCS_ColorScore>
-3.948

> <ROCS_Overlap>
2255.209

> <ROCS_Rank>
308                 

$$$$
untitled-dbase-675770_14
  -OEChem-02092421083D

 29 30  0     0  0  0  0  0  0999 V2000
   12.3512   15.5325   22.1902 C   0  0  0  0  0  0  0  0  0  0  0  0
    9.0833   12.4542   24.3655 C   0  0  0  0  0  0  0  0  0  0  0  0
    8.3521   12.1750   25.5147 C   0  0  0  0  0  0  0  0  0  0  0  0
   13.3456   14.5465   20.0897 C   0  0  0  0  0  0  0  0  0  0  0  0
   13.3327   13.3736   19.3674 C   0  0  0  0  0  0  0  0  0  0  0  0
   12.5288   14.4668   21.2544 C   0  0  0  0  0  0  0  0  0  0  0  0
    9.2679   11.4633   23.4078 C   0  0  0  0  0  0  0  0  0  0  0  0
    7.8305   10.8994   25.6576 C   0  0  0  0  0  0  0  0  0  0  0  0
    8.7055   10.2194   23.6451 C   0  0  0  0  0  0  0  0  0  0  0  0
   11.9224   13.2360   21.3778 C   0  0  0  0  0  0  0  0  0  0  0  0
   10.0330   11.7535   22.2049 C   0  0  0  0  0  0  0  0  0  0  0  0
    8.8699    9.1145   22.6524 C   0  0  0  0  0  0  0  0  0  0  0  0
    7.0405   10.5639   26.8786 C   0  0  0  0  0  0  0  0  0  0  0  0
   12.2071   16.3977   22.9501 N   0  0  0  0  0  0  0  0  0  0  0  0
    7.9889    9.9108   24.7491 N   0  0  0  0  0  0  0  0  0  0  0  0
   11.0412   12.7173   22.3598 N   0  0  0  0  0  0  0  0  0  0  0  0
    9.7772   11.2069   21.1233 O   0  0  0  0  0  0  0  0  0  0  0  0
    6.9191   11.6049   27.7540 F   0  0  0  0  0  0  0  0  0  0  0  0
    5.7603   10.1724   26.6098 F   0  0  0  0  0  0  0  0  0  0  0  0
    7.5933    9.5435   27.5964 F   0  0  0  0  0  0  0  0  0  0  0  0
   12.3387   12.1830   20.0932 S   0  0  0  0  0  0  0  0  0  0  0  0
    9.5041   13.4469   24.2274 H   0  0  0  0  0  0  0  0  0  0  0  0
    8.2010   12.9392   26.2696 H   0  0  0  0  0  0  0  0  0  0  0  0
   13.9182   15.4157   19.7902 H   0  0  0  0  0  0  0  0  0  0  0  0
   13.8603   13.1592   18.4486 H   0  0  0  0  0  0  0  0  0  0  0  0
    9.7730    8.5355   22.8759 H   0  0  0  0  0  0  0  0  0  0  0  0
    8.0071    8.4378   22.6674 H   0  0  0  0  0  0  0  0  0  0  0  0
    8.9498    9.5085   21.6319 H   0  0  0  0  0  0  0  0  0  0  0  0
   11.1543   13.0924   23.2983 H   0  0  0  0  0  0  0  0  0  0  0  0
  1  6  1  0  0  0  0
  1 14  3  0  0  0  0
  2  3  2  0  0  0  0
  2  7  1  0  0  0  0
  3  8  1  0  0  0  0
  4  5  2  0  0  0  0
  4  6  1  0  0  0  0
  5 21  1  0  0  0  0
  6 10  2  0  0  0  0
  7  9  2  0  0  0  0
  7 11  1  0  0  0  0
  8 13  1  0  0  0  0
  8 15  2  0  0  0  0
  9 12  1  0  0  0  0
  9 15  1  0  0  0  0
 10 16  1  0  0  0  0
 10 21  1  0  0  0  0
 11 16  1  0  0  0  0
 11 17  2  0  0  0  0
 13 18  1  0  0  0  0
 13 19  1  0  0  0  0
 13 20  1  0  0  0  0
  2 22  1  0  0  0  0
  3 23  1  0  0  0  0
  4 24  1  0  0  0  0
  5 25  1  0  0  0  0
 12 26  1  0  0  0  0
 12 27  1  0  0  0  0
 12 28  1  0  0  0  0
 16 29  1  0  0  0  0
M  END
> <idnumber>
Z339626466

> <heavy_atoms>
21

> <LogS>
-4.36

> <LogP>
1.589

> <rotating_bonds>
3

> <PSA>
65.78

> <hb_acceptors>
3

> <hb_donors>
1

> <Collection>
Legacy

> <link>
https://www.enaminestore.com/catalog/Z339626466

> <ROCS_ShapeQuery>
_x1140_x0812_0A_x1140_0A_x1097_0A_x0365_0A_x1097_0A_x0310_0A

> <ROCS_TanimotoCombo>
0.632 

> <ROCS_ShapeTanimoto>
0.233 

> <ROCS_ColorTanimoto>
0.399 

> <ROCS_RefTversky>
0.215 

> <ROCS_RefColorTversky>
0.506 

> <ROCS_RefTverskyCombo>
0.721 

> <ROCS_FitTversky>
1.543 

> <ROCS_FitColorTversky>
0.655 

> <ROCS_FitTverskyCombo>
2.198 

> <ROCS_ColorScore>
-3.996

> <ROCS_Overlap>
2210.362

> <ROCS_Rank>
309                 

$$$$
untitled-dbase-1139679_3
  -OEChem-02092421083D

 34 35  0     1  0  0  0  0  0999 V2000
    8.6279   12.5464   24.3916 C   0  0  0  0  0  0  0  0  0  0  0  0
    7.7549   12.2218   25.4299 C   0  0  0  0  0  0  0  0  0  0  0  0
    9.2671   11.5342   23.6756 C   0  0  0  0  0  0  0  0  0  0  0  0
    7.5210   10.8850   25.7522 C   0  0  0  0  0  0  0  0  0  0  0  0
    8.1602    9.8728   25.0362 C   0  0  0  0  0  0  0  0  0  0  0  0
    9.0332   10.1974   23.9979 C   0  0  0  0  0  0  0  0  0  0  0  0
   12.5789   15.4462   22.4752 C   0  0  0  0  0  0  0  0  0  0  0  0
   10.1903   11.9170   22.5764 C   0  0  0  0  0  0  0  0  0  0  0  0
   11.8945   14.5563   21.4788 C   0  0  0  0  0  0  0  0  0  0  0  0
   13.5919   13.3995   22.6366 C   0  0  0  0  0  0  0  0  0  0  0  0
   12.2472   13.1732   21.9830 C   0  0  1  0  0  0  0  0  0  0  0  0
    7.9046    8.4403   25.3873 C   0  0  0  0  0  0  0  0  0  0  0  0
    6.5815   10.5652   26.8687 C   0  0  0  0  0  0  0  0  0  0  0  0
    9.6807    9.1700   23.2717 N   0  0  0  0  0  0  0  0  0  0  0  0
   11.2745   12.7000   22.9416 N   0  0  0  0  0  0  0  0  0  0  0  0
   12.3450   16.6327   22.6452 O   0  0  0  0  0  0  0  0  0  0  0  0
    9.9438   11.5496   21.4306 O   0  0  0  0  0  0  0  0  0  0  0  0
   13.5412   14.7403   23.1427 O   0  0  0  0  0  0  0  0  0  0  0  0
    6.0439   11.6706   27.4623 F   0  0  0  0  0  0  0  0  0  0  0  0
    5.5120    9.8109   26.4811 F   0  0  0  0  0  0  0  0  0  0  0  0
    7.1822    9.8638   27.8726 F   0  0  0  0  0  0  0  0  0  0  0  0
    8.8023   13.5919   24.1502 H   0  0  0  0  0  0  0  0  0  0  0  0
    7.2617   13.0175   25.9819 H   0  0  0  0  0  0  0  0  0  0  0  0
   10.8169   14.7391   21.4582 H   0  0  0  0  0  0  0  0  0  0  0  0
   12.3260   14.7421   20.4903 H   0  0  0  0  0  0  0  0  0  0  0  0
   13.7987   12.7025   23.4549 H   0  0  0  0  0  0  0  0  0  0  0  0
   14.4124   13.3392   21.9131 H   0  0  0  0  0  0  0  0  0  0  0  0
   12.2908   12.4244   21.1864 H   0  0  0  0  0  0  0  0  0  0  0  0
    7.0572    8.0565   24.8097 H   0  0  0  0  0  0  0  0  0  0  0  0
    8.7838    7.8211   25.1768 H   0  0  0  0  0  0  0  0  0  0  0  0
    7.6819    8.3311   26.4548 H   0  0  0  0  0  0  0  0  0  0  0  0
   10.2649    9.4170   22.5015 H   0  0  0  0  0  0  0  0  0  0  0  0
    9.4660    8.2191   23.4843 H   0  0  0  0  0  0  0  0  0  0  0  0
   11.3779   13.0171   23.9005 H   0  0  0  0  0  0  0  0  0  0  0  0
  1  2  2  0  0  0  0
  1  3  1  0  0  0  0
  2  4  1  0  0  0  0
  3  6  2  0  0  0  0
  3  8  1  0  0  0  0
  4  5  2  0  0  0  0
  4 13  1  0  0  0  0
  5  6  1  0  0  0  0
  5 12  1  0  0  0  0
  6 14  1  0  0  0  0
  7  9  1  0  0  0  0
  7 16  2  0  0  0  0
  7 18  1  0  0  0  0
  8 15  1  0  0  0  0
  8 17  2  0  0  0  0
  9 11  1  0  0  0  0
 10 11  1  0  0  0  0
 10 18  1  0  0  0  0
 11 15  1  6  0  0  0
 13 19  1  0  0  0  0
 13 20  1  0  0  0  0
 13 21  1  0  0  0  0
  1 22  1  0  0  0  0
  2 23  1  0  0  0  0
  9 24  1  0  0  0  0
  9 25  1  0  0  0  0
 10 26  1  0  0  0  0
 10 27  1  0  0  0  0
 11 28  1  0  0  0  0
 12 29  1  0  0  0  0
 12 30  1  0  0  0  0
 12 31  1  0  0  0  0
 14 32  1  0  0  0  0
 14 33  1  0  0  0  0
 15 34  1  0  0  0  0
M  END
> <idnumber>
Z6375311936

> <heavy_atoms>
21

> <LogS>
-3.681

> <LogP>
2.08

> <rotating_bonds>
3

> <PSA>
81.42

> <hb_acceptors>
3

> <hb_donors>
2

> <Collection>
Advanced

> <link>
https://www.enaminestore.com/catalog/Z6375311936

> <ROCS_ShapeQuery>
_x1140_x0812_0A_x1140_0A_x1097_0A_x0365_0A_x1097_0A_x0310_0A

> <ROCS_TanimotoCombo>
0.632 

> <ROCS_ShapeTanimoto>
0.264 

> <ROCS_ColorTanimoto>
0.368 

> <ROCS_RefTversky>
0.238 

> <ROCS_RefColorTversky>
0.508 

> <ROCS_RefTverskyCombo>
0.746 

> <ROCS_FitTversky>
1.694 

> <ROCS_FitColorTversky>
0.573 

> <ROCS_FitTverskyCombo>
2.266 

> <ROCS_ColorScore>
-4.036

> <ROCS_Overlap>
2447.947

> <ROCS_Rank>
310                 

$$$$
untitled-dbase-1136282_100
  -OEChem-02092421083D

 37 39  0     0  0  0  0  0  0999 V2000
    6.5738   12.5454   25.8681 C   0  0  0  0  0  0  0  0  0  0  0  0
   12.0201   15.0580   24.1071 C   0  0  0  0  0  0  0  0  0  0  0  0
    8.7466    9.9212   23.5974 C   0  0  0  0  0  0  0  0  0  0  0  0
    5.9171   11.5882   26.6112 C   0  0  0  0  0  0  0  0  0  0  0  0
    7.4314   11.8699   24.9601 C   0  0  0  0  0  0  0  0  0  0  0  0
    9.0098   11.2443   23.2691 C   0  0  0  0  0  0  0  0  0  0  0  0
    8.3412   12.2525   23.9612 C   0  0  0  0  0  0  0  0  0  0  0  0
   11.8511   16.4532   24.0874 C   0  0  0  0  0  0  0  0  0  0  0  0
   12.6975   14.7955   22.9460 C   0  0  0  0  0  0  0  0  0  0  0  0
    7.2641   10.5067   25.1859 C   0  0  0  0  0  0  0  0  0  0  0  0
    9.9709   11.5432   22.2176 C   0  0  0  0  0  0  0  0  0  0  0  0
    8.5997   13.6888   23.6349 C   0  0  0  0  0  0  0  0  0  0  0  0
   11.1837   17.2952   25.0931 C   0  0  0  0  0  0  0  0  0  0  0  0
   13.2159   13.5335   22.3014 C   0  0  0  0  0  0  0  0  0  0  0  0
   12.1150   12.7057   21.6427 C   0  0  0  0  0  0  0  0  0  0  0  0
    7.8828    9.4950   24.5481 N   0  0  0  0  0  0  0  0  0  0  0  0
   12.3830   17.0133   22.9973 N   0  0  0  0  0  0  0  0  0  0  0  0
    6.3436   10.3557   26.1893 N   0  0  0  0  0  0  0  0  0  0  0  0
   11.0865   12.3074   22.5766 N   0  0  0  0  0  0  0  0  0  0  0  0
    9.7779   11.1449   21.0558 O   0  0  0  0  0  0  0  0  0  0  0  0
   12.9200   15.9545   22.2749 O   0  0  0  0  0  0  0  0  0  0  0  0
    6.4462   13.6141   25.9729 H   0  0  0  0  0  0  0  0  0  0  0  0
   11.6973   14.3475   24.8540 H   0  0  0  0  0  0  0  0  0  0  0  0
    9.2536    9.1136   23.0739 H   0  0  0  0  0  0  0  0  0  0  0  0
    5.1856   11.6750   27.4022 H   0  0  0  0  0  0  0  0  0  0  0  0
    9.4208   14.0741   24.2494 H   0  0  0  0  0  0  0  0  0  0  0  0
    8.8642   13.8119   22.5782 H   0  0  0  0  0  0  0  0  0  0  0  0
    7.7083   14.3009   23.8160 H   0  0  0  0  0  0  0  0  0  0  0  0
   11.8948   17.6403   25.8638 H   0  0  0  0  0  0  0  0  0  0  0  0
   10.7189   18.1923   24.6456 H   0  0  0  0  0  0  0  0  0  0  0  0
   10.3673   16.7601   25.6112 H   0  0  0  0  0  0  0  0  0  0  0  0
   13.7132   12.9288   23.0703 H   0  0  0  0  0  0  0  0  0  0  0  0
   13.9913   13.7838   21.5661 H   0  0  0  0  0  0  0  0  0  0  0  0
   11.6221   13.2943   20.8625 H   0  0  0  0  0  0  0  0  0  0  0  0
   12.5141   11.7957   21.1828 H   0  0  0  0  0  0  0  0  0  0  0  0
    6.0272    9.4704   26.5600 H   0  0  0  0  0  0  0  0  0  0  0  0
   11.1628   12.6599   23.5251 H   0  0  0  0  0  0  0  0  0  0  0  0
  1  4  2  0  0  0  0
  1  5  1  0  0  0  0
  2  8  1  0  0  0  0
  2  9  2  0  0  0  0
  3  6  1  0  0  0  0
  3 16  2  0  0  0  0
  4 18  1  0  0  0  0
  5  7  1  0  0  0  0
  5 10  2  0  0  0  0
  6  7  2  0  0  0  0
  6 11  1  0  0  0  0
  7 12  1  0  0  0  0
  8 13  1  0  0  0  0
  8 17  2  0  0  0  0
  9 14  1  0  0  0  0
  9 21  1  0  0  0  0
 10 16  1  0  0  0  0
 10 18  1  0  0  0  0
 11 19  1  0  0  0  0
 11 20  2  0  0  0  0
 14 15  1  0  0  0  0
 15 19  1  0  0  0  0
 17 21  1  0  0  0  0
  1 22  1  0  0  0  0
  2 23  1  0  0  0  0
  3 24  1  0  0  0  0
  4 25  1  0  0  0  0
 12 26  1  0  0  0  0
 12 27  1  0  0  0  0
 12 28  1  0  0  0  0
 13 29  1  0  0  0  0
 13 30  1  0  0  0  0
 13 31  1  0  0  0  0
 14 32  1  0  0  0  0
 14 33  1  0  0  0  0
 15 34  1  0  0  0  0
 15 35  1  0  0  0  0
 18 36  1  0  0  0  0
 19 37  1  0  0  0  0
M  END
> <idnumber>
Z6226804623

> <heavy_atoms>
21

> <LogS>
-3.338

> <LogP>
0.912

> <rotating_bonds>
4

> <PSA>
83.81

> <hb_acceptors>
3

> <hb_donors>
2

> <Collection>
Advanced

> <link>
https://www.enaminestore.com/catalog/Z6226804623

> <ROCS_ShapeQuery>
_x1140_x0812_0A_x1140_0A_x1097_0A_x0365_0A_x1097_0A_x0310_0A

> <ROCS_TanimotoCombo>
0.632 

> <ROCS_ShapeTanimoto>
0.263 

> <ROCS_ColorTanimoto>
0.369 

> <ROCS_RefTversky>
0.238 

> <ROCS_RefColorTversky>
0.540 

> <ROCS_RefTverskyCombo>
0.778 

> <ROCS_FitTversky>
1.677 

> <ROCS_FitColorTversky>
0.539 

> <ROCS_FitTverskyCombo>
2.216 

> <ROCS_ColorScore>
-4.320

> <ROCS_Overlap>
2442.097

> <ROCS_Rank>
311                 

$$$$
untitled-dbase-1091506_28
  -OEChem-02092421083D

 32 34  0     0  0  0  0  0  0999 V2000
   10.9986   14.3342   21.0890 C   0  0  0  0  0  0  0  0  0  0  0  0
    7.1361   10.1958   25.2299 C   0  0  0  0  0  0  0  0  0  0  0  0
   11.9215   15.0337   23.1663 C   0  0  0  0  0  0  0  0  0  0  0  0
   12.0053   16.4698   21.3750 C   0  0  0  0  0  0  0  0  0  0  0  0
    8.2796   11.9180   24.4807 C   0  0  0  0  0  0  0  0  0  0  0  0
    7.1551   11.6032   25.2037 C   0  0  0  0  0  0  0  0  0  0  0  0
   11.2781   14.0577   22.4227 C   0  0  0  0  0  0  0  0  0  0  0  0
   11.3659   15.5610   20.5474 C   0  0  0  0  0  0  0  0  0  0  0  0
   10.2736   11.7525   22.3853 C   0  0  0  0  0  0  0  0  0  0  0  0
   11.3116   10.0130   23.9573 C   0  0  0  0  0  0  0  0  0  0  0  0
   10.5671    9.2593   22.9036 C   0  0  0  0  0  0  0  0  0  0  0  0
   10.0686   10.6105   23.3488 C   0  0  0  0  0  0  0  0  0  0  0  0
    6.1893   12.5307   25.8135 C   0  0  0  0  0  0  0  0  0  0  0  0
   12.2937   16.2370   22.6751 N   0  0  0  0  0  0  0  0  0  0  0  0
    8.1666    9.6540   24.5754 N   0  0  0  0  0  0  0  0  0  0  0  0
    8.8437   10.7265   24.1311 N   0  0  0  0  0  0  0  0  0  0  0  0
   10.9223   12.8378   22.9928 N   0  0  0  0  0  0  0  0  0  0  0  0
    9.8942   11.6684   21.2217 O   0  0  0  0  0  0  0  0  0  0  0  0
   11.1097   15.8541   19.2676 F   0  0  0  0  0  0  0  0  0  0  0  0
    5.1570   11.9171   26.4814 F   0  0  0  0  0  0  0  0  0  0  0  0
    6.7326   13.3843   26.7432 F   0  0  0  0  0  0  0  0  0  0  0  0
    5.5742   13.3537   24.9031 F   0  0  0  0  0  0  0  0  0  0  0  0
   10.4956   13.6018   20.4633 H   0  0  0  0  0  0  0  0  0  0  0  0
    6.4154    9.5396   25.6967 H   0  0  0  0  0  0  0  0  0  0  0  0
   12.1665   14.8764   24.2125 H   0  0  0  0  0  0  0  0  0  0  0  0
   12.3121   17.4408   21.0007 H   0  0  0  0  0  0  0  0  0  0  0  0
    8.7138   12.8664   24.1938 H   0  0  0  0  0  0  0  0  0  0  0  0
   11.2462    9.6501   24.9767 H   0  0  0  0  0  0  0  0  0  0  0  0
   12.2829   10.4171   23.6968 H   0  0  0  0  0  0  0  0  0  0  0  0
   11.0360    9.1555   21.9321 H   0  0  0  0  0  0  0  0  0  0  0  0
   10.0005    8.3885   23.2127 H   0  0  0  0  0  0  0  0  0  0  0  0
   11.1624   12.7077   23.9835 H   0  0  0  0  0  0  0  0  0  0  0  0
  1  7  1  0  0  0  0
  1  8  2  0  0  0  0
  2  6  1  0  0  0  0
  2 15  2  0  0  0  0
  3  7  2  0  0  0  0
  3 14  1  0  0  0  0
  4  8  1  0  0  0  0
  4 14  2  0  0  0  0
  5  6  2  0  0  0  0
  5 16  1  0  0  0  0
  6 13  1  0  0  0  0
  7 17  1  0  0  0  0
  8 19  1  0  0  0  0
  9 12  1  0  0  0  0
  9 17  1  0  0  0  0
  9 18  2  0  0  0  0
 10 11  1  0  0  0  0
 10 12  1  0  0  0  0
 11 12  1  0  0  0  0
 12 16  1  0  0  0  0
 13 20  1  0  0  0  0
 13 21  1  0  0  0  0
 13 22  1  0  0  0  0
 15 16  1  0  0  0  0
  1 23  1  0  0  0  0
  2 24  1  0  0  0  0
  3 25  1  0  0  0  0
  4 26  1  0  0  0  0
  5 27  1  0  0  0  0
 10 28  1  0  0  0  0
 10 29  1  0  0  0  0
 11 30  1  0  0  0  0
 11 31  1  0  0  0  0
 17 32  1  0  0  0  0
M  END
> <idnumber>
Z4507278303

> <heavy_atoms>
22

> <LogS>
-2.529

> <LogP>
2.108

> <rotating_bonds>
4

> <PSA>
59.81

> <hb_acceptors>
3

> <hb_donors>
1

> <Collection>
Advanced

> <link>
https://www.enaminestore.com/catalog/Z4507278303

> <ROCS_ShapeQuery>
_x1140_x0812_0A_x1140_0A_x1097_0A_x0365_0A_x1097_0A_x0310_0A

> <ROCS_TanimotoCombo>
0.632 

> <ROCS_ShapeTanimoto>
0.281 

> <ROCS_ColorTanimoto>
0.351 

> <ROCS_RefTversky>
0.252 

> <ROCS_RefColorTversky>
0.460 

> <ROCS_RefTverskyCombo>
0.712 

> <ROCS_FitTversky>
1.718 

> <ROCS_FitColorTversky>
0.596 

> <ROCS_FitTverskyCombo>
2.314 

> <ROCS_ColorScore>
-3.637

> <ROCS_Overlap>
2585.330

> <ROCS_Rank>
312                 

$$$$
untitled-dbase-1028041_45
  -OEChem-02092421083D

 31 33  0     0  0  0  0  0  0999 V2000
    8.5974   12.5875   24.0018 C   0  0  0  0  0  0  0  0  0  0  0  0
   11.0100   14.5814   24.0854 C   0  0  0  0  0  0  0  0  0  0  0  0
    9.1958   10.2941   23.6281 C   0  0  0  0  0  0  0  0  0  0  0  0
    7.6207   12.1060   24.8824 C   0  0  0  0  0  0  0  0  0  0  0  0
    9.4016   11.6438   23.3626 C   0  0  0  0  0  0  0  0  0  0  0  0
   11.7056   15.7922   24.2459 C   0  0  0  0  0  0  0  0  0  0  0  0
    6.6178   12.6310   25.7215 C   0  0  0  0  0  0  0  0  0  0  0  0
   10.9809   14.3999   22.7281 C   0  0  0  0  0  0  0  0  0  0  0  0
    7.5222   10.7343   25.0561 C   0  0  0  0  0  0  0  0  0  0  0  0
   12.0355   16.4830   25.5027 C   0  0  0  0  0  0  0  0  0  0  0  0
    6.2701   14.0469   25.9334 C   0  0  0  0  0  0  0  0  0  0  0  0
   10.4112   13.3373   21.8334 C   0  0  0  0  0  0  0  0  0  0  0  0
    8.2664    9.7803   24.4698 N   0  0  0  0  0  0  0  0  0  0  0  0
    5.9383   11.6818   26.3735 N   0  0  0  0  0  0  0  0  0  0  0  0
   12.0794   16.3212   23.0775 N   0  0  0  0  0  0  0  0  0  0  0  0
    6.5101   10.5403   25.9491 N   0  0  0  0  0  0  0  0  0  0  0  0
   10.4052   12.0520   22.4646 N   0  0  0  0  0  0  0  0  0  0  0  0
   11.6160   15.4317   22.1155 O   0  0  0  0  0  0  0  0  0  0  0  0
    8.7225   13.6510   23.8244 H   0  0  0  0  0  0  0  0  0  0  0  0
   10.5910   13.9358   24.8433 H   0  0  0  0  0  0  0  0  0  0  0  0
    9.8114    9.5402   23.1426 H   0  0  0  0  0  0  0  0  0  0  0  0
   13.0130   16.1549   25.8968 H   0  0  0  0  0  0  0  0  0  0  0  0
   12.0798   17.5801   25.3778 H   0  0  0  0  0  0  0  0  0  0  0  0
   11.2822   16.3002   26.2905 H   0  0  0  0  0  0  0  0  0  0  0  0
    5.5015   14.3818   25.2162 H   0  0  0  0  0  0  0  0  0  0  0  0
    5.8800   14.2324   26.9499 H   0  0  0  0  0  0  0  0  0  0  0  0
    7.1444   14.7121   25.8192 H   0  0  0  0  0  0  0  0  0  0  0  0
    9.3804   13.5803   21.5533 H   0  0  0  0  0  0  0  0  0  0  0  0
   10.9887   13.2525   20.9069 H   0  0  0  0  0  0  0  0  0  0  0  0
    6.1594    9.6627   26.3118 H   0  0  0  0  0  0  0  0  0  0  0  0
   11.1403   11.3961   22.2710 H   0  0  0  0  0  0  0  0  0  0  0  0
  1  4  1  0  0  0  0
  1  5  2  0  0  0  0
  2  6  1  0  0  0  0
  2  8  2  0  0  0  0
  3  5  1  0  0  0  0
  3 13  2  0  0  0  0
  4  7  1  0  0  0  0
  4  9  2  0  0  0  0
  5 17  1  0  0  0  0
  6 10  1  0  0  0  0
  6 15  2  0  0  0  0
  7 11  1  0  0  0  0
  7 14  2  0  0  0  0
  8 12  1  0  0  0  0
  8 18  1  0  0  0  0
  9 13  1  0  0  0  0
  9 16  1  0  0  0  0
 12 17  1  0  0  0  0
 14 16  1  0  0  0  0
 15 18  1  0  0  0  0
  1 19  1  0  0  0  0
  2 20  1  0  0  0  0
  3 21  1  0  0  0  0
 10 22  1  0  0  0  0
 10 23  1  0  0  0  0
 10 24  1  0  0  0  0
 11 25  1  0  0  0  0
 11 26  1  0  0  0  0
 11 27  1  0  0  0  0
 12 28  1  0  0  0  0
 12 29  1  0  0  0  0
 16 30  1  0  0  0  0
 17 31  1  0  0  0  0
M  END
> <idnumber>
Z3366034340

> <heavy_atoms>
18

> <LogS>
-2.09

> <LogP>
1.402

> <rotating_bonds>
3

> <PSA>
79.63

> <hb_acceptors>
4

> <hb_donors>
2

> <Collection>
Advanced

> <link>
https://www.enaminestore.com/catalog/Z3366034340

> <ROCS_ShapeQuery>
_x1140_x0812_0A_x1140_0A_x1097_0A_x0365_0A_x1097_0A_x0310_0A

> <ROCS_TanimotoCombo>
0.632 

> <ROCS_ShapeTanimoto>
0.258 

> <ROCS_ColorTanimoto>
0.374 

> <ROCS_RefTversky>
0.232 

> <ROCS_RefColorTversky>
0.545 

> <ROCS_RefTverskyCombo>
0.777 

> <ROCS_FitTversky>
1.782 

> <ROCS_FitColorTversky>
0.544 

> <ROCS_FitTverskyCombo>
2.326 

> <ROCS_ColorScore>
-4.361

> <ROCS_Overlap>
2378.816

> <ROCS_Rank>
313                 

$$$$
untitled-dbase-296525_12
  -OEChem-02092421083D

 35 37  0     0  0  0  0  0  0999 V2000
    8.3719   12.6515   24.1256 C   0  0  0  0  0  0  0  0  0  0  0  0
    7.3823   12.0713   24.9114 C   0  0  0  0  0  0  0  0  0  0  0  0
    9.2536   10.4795   23.7239 C   0  0  0  0  0  0  0  0  0  0  0  0
   10.9951   15.9040   23.2090 C   0  0  0  0  0  0  0  0  0  0  0  0
   12.3267   13.7765   22.3000 C   0  0  0  0  0  0  0  0  0  0  0  0
   13.2723   12.8409   21.7738 C   0  0  0  0  0  0  0  0  0  0  0  0
    9.3291   11.8474   23.5171 C   0  0  0  0  0  0  0  0  0  0  0  0
   14.4813   13.4276   21.4689 C   0  0  0  0  0  0  0  0  0  0  0  0
    7.3938   10.6934   25.0557 C   0  0  0  0  0  0  0  0  0  0  0  0
   11.0052   13.6503   22.7398 C   0  0  0  0  0  0  0  0  0  0  0  0
   12.8770   15.0499   22.3688 C   0  0  0  0  0  0  0  0  0  0  0  0
   13.0021   11.3943   21.5708 C   0  0  0  0  0  0  0  0  0  0  0  0
   15.7025   12.8045   20.9103 C   0  0  0  0  0  0  0  0  0  0  0  0
    5.7902   10.8034   26.9641 C   0  0  0  0  0  0  0  0  0  0  0  0
    8.3072    9.8796   24.4803 N   0  0  0  0  0  0  0  0  0  0  0  0
   10.3356   14.7291   23.1989 N   0  0  0  0  0  0  0  0  0  0  0  0
   12.2562   16.1587   22.8167 N   0  0  0  0  0  0  0  0  0  0  0  0
   10.3455   12.4067   22.7155 N   0  0  0  0  0  0  0  0  0  0  0  0
    6.3795   10.1176   25.8608 N   0  0  0  0  0  0  0  0  0  0  0  0
   14.4867   15.1033   21.8118 S   0  0  0  0  0  0  0  0  0  0  0  0
    8.3881   13.7301   23.9937 H   0  0  0  0  0  0  0  0  0  0  0  0
    6.6317   12.6913   25.3904 H   0  0  0  0  0  0  0  0  0  0  0  0
    9.9725    9.8004   23.2754 H   0  0  0  0  0  0  0  0  0  0  0  0
   10.4357   16.7548   23.5820 H   0  0  0  0  0  0  0  0  0  0  0  0
   12.5961   11.2130   20.5659 H   0  0  0  0  0  0  0  0  0  0  0  0
   13.9155   10.7924   21.6856 H   0  0  0  0  0  0  0  0  0  0  0  0
   12.2803   11.0107   22.3069 H   0  0  0  0  0  0  0  0  0  0  0  0
   15.6913   12.8354   19.8100 H   0  0  0  0  0  0  0  0  0  0  0  0
   16.6165   13.3146   21.2542 H   0  0  0  0  0  0  0  0  0  0  0  0
   15.8025   11.7514   21.2187 H   0  0  0  0  0  0  0  0  0  0  0  0
    6.2443   11.8005   27.0615 H   0  0  0  0  0  0  0  0  0  0  0  0
    4.7084   10.9083   26.7950 H   0  0  0  0  0  0  0  0  0  0  0  0
    5.9632   10.2301   27.8868 H   0  0  0  0  0  0  0  0  0  0  0  0
   10.6635   11.7890   21.9731 H   0  0  0  0  0  0  0  0  0  0  0  0
    6.0886    9.1921   25.6203 H   0  0  0  0  0  0  0  0  0  0  0  0
  1  2  2  0  0  0  0
  1  7  1  0  0  0  0
  2  9  1  0  0  0  0
  3  7  2  0  0  0  0
  3 15  1  0  0  0  0
  4 16  2  0  0  0  0
  4 17  1  0  0  0  0
  5  6  1  0  0  0  0
  5 10  2  0  0  0  0
  5 11  1  0  0  0  0
  6  8  2  0  0  0  0
  6 12  1  0  0  0  0
  7 18  1  0  0  0  0
  8 13  1  0  0  0  0
  8 20  1  0  0  0  0
  9 15  2  0  0  0  0
  9 19  1  0  0  0  0
 10 16  1  0  0  0  0
 10 18  1  0  0  0  0
 11 17  2  0  0  0  0
 11 20  1  0  0  0  0
 14 19  1  0  0  0  0
  1 21  1  0  0  0  0
  2 22  1  0  0  0  0
  3 23  1  0  0  0  0
  4 24  1  0  0  0  0
 12 25  1  0  0  0  0
 12 26  1  0  0  0  0
 12 27  1  0  0  0  0
 13 28  1  0  0  0  0
 13 29  1  0  0  0  0
 13 30  1  0  0  0  0
 14 31  1  0  0  0  0
 14 32  1  0  0  0  0
 14 33  1  0  0  0  0
 18 34  1  0  0  0  0
 19 35  1  0  0  0  0
M  END
> <idnumber>
Z729056044

> <heavy_atoms>
20

> <LogS>
-4.464

> <LogP>
3.724

> <rotating_bonds>
3

> <PSA>
62.73

> <hb_acceptors>
5

> <hb_donors>
2

> <Collection>
Legacy

> <link>
https://www.enaminestore.com/catalog/Z729056044

> <ROCS_ShapeQuery>
_x1140_x0812_0A_x1140_0A_x1097_0A_x0365_0A_x1097_0A_x0310_0A

> <ROCS_TanimotoCombo>
0.632 

> <ROCS_ShapeTanimoto>
0.227 

> <ROCS_ColorTanimoto>
0.405 

> <ROCS_RefTversky>
0.211 

> <ROCS_RefColorTversky>
0.577 

> <ROCS_RefTverskyCombo>
0.787 

> <ROCS_FitTversky>
1.546 

> <ROCS_FitColorTversky>
0.575 

> <ROCS_FitTverskyCombo>
2.121 

> <ROCS_ColorScore>
-4.615

> <ROCS_Overlap>
2161.251

> <ROCS_Rank>
314                 

$$$$
untitled-dbase-225119_98
  -OEChem-02092421083D

 31 31  0     0  0  0  0  0  0999 V2000
    8.0262   11.9537   25.5263 C   0  0  0  0  0  0  0  0  0  0  0  0
    8.7203   12.4040   24.4089 C   0  0  0  0  0  0  0  0  0  0  0  0
    7.7045   10.6075   25.5909 C   0  0  0  0  0  0  0  0  0  0  0  0
    9.0666   11.5071   23.4044 C   0  0  0  0  0  0  0  0  0  0  0  0
    8.6985   10.1809   23.5641 C   0  0  0  0  0  0  0  0  0  0  0  0
    9.7944   12.0055   22.2446 C   0  0  0  0  0  0  0  0  0  0  0  0
   11.4021   14.5212   21.0600 C   0  0  0  0  0  0  0  0  0  0  0  0
   11.4018    9.3122   23.7881 C   0  0  0  0  0  0  0  0  0  0  0  0
   11.5303    7.8635   21.7326 C   0  0  0  0  0  0  0  0  0  0  0  0
   11.8686   13.1580   21.4429 C   0  0  0  0  0  0  0  0  0  0  0  0
   10.9146    9.1091   22.3585 C   0  0  0  0  0  0  0  0  0  0  0  0
    8.0239    9.7063   24.6352 N   0  0  0  0  0  0  0  0  0  0  0  0
   11.0389   12.5965   22.4846 N   0  0  0  0  0  0  0  0  0  0  0  0
    9.3015   11.9169   21.1076 O   0  0  0  0  0  0  0  0  0  0  0  0
    9.0954    8.9710   22.3421 S   0  0  0  0  0  0  0  0  0  0  0  0
    7.7456   12.6346   26.3214 H   0  0  0  0  0  0  0  0  0  0  0  0
    8.9850   13.4556   24.3341 H   0  0  0  0  0  0  0  0  0  0  0  0
    7.1629   10.2065   26.4413 H   0  0  0  0  0  0  0  0  0  0  0  0
   11.4395   15.1824   21.9383 H   0  0  0  0  0  0  0  0  0  0  0  0
   12.0540   14.9234   20.2705 H   0  0  0  0  0  0  0  0  0  0  0  0
   10.3684   14.4639   20.6881 H   0  0  0  0  0  0  0  0  0  0  0  0
   11.1404    8.4458   24.4060 H   0  0  0  0  0  0  0  0  0  0  0  0
   12.4913    9.4225   23.8262 H   0  0  0  0  0  0  0  0  0  0  0  0
   10.9497   10.1959   24.2526 H   0  0  0  0  0  0  0  0  0  0  0  0
   11.2709    6.9749   22.3188 H   0  0  0  0  0  0  0  0  0  0  0  0
   12.6237    7.9291   21.7068 H   0  0  0  0  0  0  0  0  0  0  0  0
   11.1711    7.6995   20.7102 H   0  0  0  0  0  0  0  0  0  0  0  0
   11.8282   12.5035   20.5598 H   0  0  0  0  0  0  0  0  0  0  0  0
   12.9053   13.2218   21.8049 H   0  0  0  0  0  0  0  0  0  0  0  0
   11.1853    9.9845   21.7586 H   0  0  0  0  0  0  0  0  0  0  0  0
   11.3650   12.6992   23.4401 H   0  0  0  0  0  0  0  0  0  0  0  0
  1  2  2  0  0  0  0
  1  3  1  0  0  0  0
  2  4  1  0  0  0  0
  3 12  2  0  0  0  0
  4  5  2  0  0  0  0
  4  6  1  0  0  0  0
  5 12  1  0  0  0  0
  5 15  1  0  0  0  0
  6 13  1  0  0  0  0
  6 14  2  0  0  0  0
  7 10  1  0  0  0  0
  8 11  1  0  0  0  0
  9 11  1  0  0  0  0
 10 13  1  0  0  0  0
 11 15  1  0  0  0  0
  1 16  1  0  0  0  0
  2 17  1  0  0  0  0
  3 18  1  0  0  0  0
  7 19  1  0  0  0  0
  7 20  1  0  0  0  0
  7 21  1  0  0  0  0
  8 22  1  0  0  0  0
  8 23  1  0  0  0  0
  8 24  1  0  0  0  0
  9 25  1  0  0  0  0
  9 26  1  0  0  0  0
  9 27  1  0  0  0  0
 10 28  1  0  0  0  0
 10 29  1  0  0  0  0
 11 30  1  0  0  0  0
 13 31  1  0  0  0  0
M  END
> <idnumber>
Z432808988

> <heavy_atoms>
15

> <LogS>
-3.27

> <LogP>
1.921

> <rotating_bonds>
4

> <PSA>
41.99

> <hb_acceptors>
2

> <hb_donors>
1

> <Collection>
Legacy

> <link>
https://www.enaminestore.com/catalog/Z432808988

> <ROCS_ShapeQuery>
_x1140_x0812_0A_x1140_0A_x1097_0A_x0365_0A_x1097_0A_x0310_0A

> <ROCS_TanimotoCombo>
0.632 

> <ROCS_ShapeTanimoto>
0.222 

> <ROCS_ColorTanimoto>
0.410 

> <ROCS_RefTversky>
0.202 

> <ROCS_RefColorTversky>
0.481 

> <ROCS_RefTverskyCombo>
0.683 

> <ROCS_FitTversky>
1.837 

> <ROCS_FitColorTversky>
0.734 

> <ROCS_FitTverskyCombo>
2.570 

> <ROCS_ColorScore>
-3.778

> <ROCS_Overlap>
2070.396

> <ROCS_Rank>
315                 

$$$$
untitled-dbase-414861_118
  -OEChem-02092421083D

 37 38  0     0  0  0  0  0  0999 V2000
   11.8823   15.3651   22.3245 C   0  0  0  0  0  0  0  0  0  0  0  0
    7.8209   12.2023   25.6204 C   0  0  0  0  0  0  0  0  0  0  0  0
    7.6977   10.8351   25.8673 C   0  0  0  0  0  0  0  0  0  0  0  0
   13.4495    9.8218   23.1306 C   0  0  0  0  0  0  0  0  0  0  0  0
    8.5956   12.6508   24.5505 C   0  0  0  0  0  0  0  0  0  0  0  0
   13.8313    8.7925   22.2702 C   0  0  0  0  0  0  0  0  0  0  0  0
    8.3492    9.9162   25.0446 C   0  0  0  0  0  0  0  0  0  0  0  0
   12.1001   10.0243   23.4203 C   0  0  0  0  0  0  0  0  0  0  0  0
    9.2471   11.7320   23.7278 C   0  0  0  0  0  0  0  0  0  0  0  0
   12.8638    7.9657   21.6994 C   0  0  0  0  0  0  0  0  0  0  0  0
   11.5144    8.1681   21.9891 C   0  0  0  0  0  0  0  0  0  0  0  0
    9.1239   10.3647   23.9748 C   0  0  0  0  0  0  0  0  0  0  0  0
   11.1326    9.1974   22.8495 C   0  0  0  0  0  0  0  0  0  0  0  0
   10.0494   12.2325   22.6186 C   0  0  0  0  0  0  0  0  0  0  0  0
   13.2999    6.8710   20.7814 C   0  0  0  0  0  0  0  0  0  0  0  0
   10.4795    7.2787   21.3743 C   0  0  0  0  0  0  0  0  0  0  0  0
   11.3891   14.0608   21.8825 C   0  0  0  0  0  0  0  0  0  0  0  0
   12.2739   16.3998   22.6742 N   0  0  0  0  0  0  0  0  0  0  0  0
    9.7770    9.4176   23.1548 N   0  0  0  0  0  0  0  0  0  0  0  0
   10.2281   11.6239   21.5573 O   0  0  0  0  0  0  0  0  0  0  0  0
   10.5790   13.4611   22.8992 O   0  0  0  0  0  0  0  0  0  0  0  0
    7.3133   12.9181   26.2603 H   0  0  0  0  0  0  0  0  0  0  0  0
    7.0950   10.4861   26.7008 H   0  0  0  0  0  0  0  0  0  0  0  0
   14.2029   10.4654   23.5754 H   0  0  0  0  0  0  0  0  0  0  0  0
    8.6843   13.7190   24.3701 H   0  0  0  0  0  0  0  0  0  0  0  0
   14.8853    8.6432   22.0509 H   0  0  0  0  0  0  0  0  0  0  0  0
    8.2455    8.8533   25.2471 H   0  0  0  0  0  0  0  0  0  0  0  0
   11.8149   10.8295   24.0927 H   0  0  0  0  0  0  0  0  0  0  0  0
   13.4863    5.9517   21.3485 H   0  0  0  0  0  0  0  0  0  0  0  0
   12.5369    6.6642   20.0209 H   0  0  0  0  0  0  0  0  0  0  0  0
   14.2178    7.1446   20.2467 H   0  0  0  0  0  0  0  0  0  0  0  0
   10.2946    6.4137   22.0199 H   0  0  0  0  0  0  0  0  0  0  0  0
    9.5360    7.8164   21.2272 H   0  0  0  0  0  0  0  0  0  0  0  0
   10.8029    6.9211   20.3901 H   0  0  0  0  0  0  0  0  0  0  0  0
   10.7754   14.1660   20.9830 H   0  0  0  0  0  0  0  0  0  0  0  0
   12.2146   13.3812   21.6504 H   0  0  0  0  0  0  0  0  0  0  0  0
    9.1414    8.7719   22.6977 H   0  0  0  0  0  0  0  0  0  0  0  0
  1 17  1  0  0  0  0
  1 18  3  0  0  0  0
  2  3  1  0  0  0  0
  2  5  2  0  0  0  0
  3  7  2  0  0  0  0
  4  6  2  0  0  0  0
  4  8  1  0  0  0  0
  5  9  1  0  0  0  0
  6 10  1  0  0  0  0
  7 12  1  0  0  0  0
  8 13  2  0  0  0  0
  9 12  2  0  0  0  0
  9 14  1  0  0  0  0
 10 11  2  0  0  0  0
 10 15  1  0  0  0  0
 11 13  1  0  0  0  0
 11 16  1  0  0  0  0
 12 19  1  0  0  0  0
 13 19  1  0  0  0  0
 14 20  2  0  0  0  0
 14 21  1  0  0  0  0
 17 21  1  0  0  0  0
  2 22  1  0  0  0  0
  3 23  1  0  0  0  0
  4 24  1  0  0  0  0
  5 25  1  0  0  0  0
  6 26  1  0  0  0  0
  7 27  1  0  0  0  0
  8 28  1  0  0  0  0
 15 29  1  0  0  0  0
 15 30  1  0  0  0  0
 15 31  1  0  0  0  0
 16 32  1  0  0  0  0
 16 33  1  0  0  0  0
 16 34  1  0  0  0  0
 17 35  1  0  0  0  0
 17 36  1  0  0  0  0
 19 37  1  0  0  0  0
M  END
> <idnumber>
Z53794110

> <heavy_atoms>
21

> <LogS>
-4.733

> <LogP>
4.571

> <rotating_bonds>
5

> <PSA>
62.12

> <hb_acceptors>
3

> <hb_donors>
1

> <Collection>
Legacy

> <link>
https://www.enaminestore.com/catalog/Z53794110

> <ROCS_ShapeQuery>
_x1140_x0812_0A_x1140_0A_x1097_0A_x0365_0A_x1097_0A_x0310_0A

> <ROCS_TanimotoCombo>
0.632 

> <ROCS_ShapeTanimoto>
0.235 

> <ROCS_ColorTanimoto>
0.397 

> <ROCS_RefTversky>
0.217 

> <ROCS_RefColorTversky>
0.470 

> <ROCS_RefTverskyCombo>
0.687 

> <ROCS_FitTversky>
1.561 

> <ROCS_FitColorTversky>
0.717 

> <ROCS_FitTverskyCombo>
2.278 

> <ROCS_ColorScore>
-3.693

> <ROCS_Overlap>
2226.932

> <ROCS_Rank>
316                 

$$$$
untitled-dbase-679498_128
  -OEChem-02092421083D

 40 42  0     1  0  0  0  0  0999 V2000
    5.5002   12.3881   27.0618 C   0  0  0  0  0  0  0  0  0  0  0  0
    4.9366   12.8300   25.8678 C   0  0  0  0  0  0  0  0  0  0  0  0
    6.8330   11.9789   27.0940 C   0  0  0  0  0  0  0  0  0  0  0  0
    5.7067   12.8678   24.7058 C   0  0  0  0  0  0  0  0  0  0  0  0
   10.8901   15.1368   23.9481 C   0  0  0  0  0  0  0  0  0  0  0  0
    7.6121   12.0010   25.9286 C   0  0  0  0  0  0  0  0  0  0  0  0
    7.0497   12.4650   24.7280 C   0  0  0  0  0  0  0  0  0  0  0  0
   11.9022   16.1062   24.0560 C   0  0  0  0  0  0  0  0  0  0  0  0
   10.7933   14.9156   22.5998 C   0  0  0  0  0  0  0  0  0  0  0  0
    9.2013    9.8463   24.1442 C   0  0  0  0  0  0  0  0  0  0  0  0
    9.0605   11.5849   25.9902 C   0  0  0  0  0  0  0  0  0  0  0  0
    7.8530   12.5012   23.4523 C   0  0  0  0  0  0  0  0  0  0  0  0
    9.6479   11.1926   24.6272 C   0  0  2  0  0  0  0  0  0  0  0  0
   12.4304   16.7259   25.2818 C   0  0  0  0  0  0  0  0  0  0  0  0
    9.9366   14.0247   21.7542 C   0  0  0  0  0  0  0  0  0  0  0  0
   12.3953   16.4592   22.8656 N   0  0  0  0  0  0  0  0  0  0  0  0
    9.3148   12.2581   23.6351 N   0  0  1  0  0  0  0  0  0  0  0  0
   10.1432    9.1873   23.3900 N   0  0  0  0  0  0  0  0  0  0  0  0
    8.0968    9.3861   24.4229 O   0  0  0  0  0  0  0  0  0  0  0  0
    9.7038   11.4784   21.2162 O   0  0  0  0  0  0  0  0  0  0  0  0
   11.6683   12.2603   22.5999 O   0  0  0  0  0  0  0  0  0  0  0  0
   11.6866   15.6991   21.9431 O   0  0  0  0  0  0  0  0  0  0  0  0
   10.2746   12.3470   22.2224 S   0  0  0  0  0  0  0  0  0  0  0  0
    4.9025   12.3632   27.9682 H   0  0  0  0  0  0  0  0  0  0  0  0
    3.8982   13.1468   25.8416 H   0  0  0  0  0  0  0  0  0  0  0  0
    7.2617   11.6410   28.0342 H   0  0  0  0  0  0  0  0  0  0  0  0
    5.2545   13.2151   23.7800 H   0  0  0  0  0  0  0  0  0  0  0  0
   10.3152   14.6680   24.7333 H   0  0  0  0  0  0  0  0  0  0  0  0
    9.6294   12.4307   26.3974 H   0  0  0  0  0  0  0  0  0  0  0  0
    9.1702   10.7430   26.6853 H   0  0  0  0  0  0  0  0  0  0  0  0
    7.4505   11.7493   22.7628 H   0  0  0  0  0  0  0  0  0  0  0  0
    7.7368   13.4928   22.9983 H   0  0  0  0  0  0  0  0  0  0  0  0
   10.7471   11.1448   24.7341 H   0  0  0  0  0  0  0  0  0  0  0  0
   13.2801   16.1505   25.6888 H   0  0  0  0  0  0  0  0  0  0  0  0
   12.7821   17.7593   25.1098 H   0  0  0  0  0  0  0  0  0  0  0  0
   11.6665   16.7966   26.0773 H   0  0  0  0  0  0  0  0  0  0  0  0
   10.1593   14.1327   20.6889 H   0  0  0  0  0  0  0  0  0  0  0  0
    8.8705   14.2136   21.9094 H   0  0  0  0  0  0  0  0  0  0  0  0
   11.0356    9.6398   23.2213 H   0  0  0  0  0  0  0  0  0  0  0  0
    9.9817    8.2663   22.9953 H   0  0  0  0  0  0  0  0  0  0  0  0
  1  2  1  0  0  0  0
  1  3  2  0  0  0  0
  2  4  2  0  0  0  0
  3  6  1  0  0  0  0
  4  7  1  0  0  0  0
  5  8  1  0  0  0  0
  5  9  2  0  0  0  0
  6  7  2  0  0  0  0
  6 11  1  0  0  0  0
  7 12  1  0  0  0  0
  8 14  1  0  0  0  0
  8 16  2  0  0  0  0
  9 15  1  0  0  0  0
  9 22  1  0  0  0  0
 10 13  1  1  0  0  0
 10 18  1  0  0  0  0
 10 19  2  0  0  0  0
 11 13  1  0  0  0  0
 12 17  1  0  0  0  0
 13 17  1  0  0  0  0
 15 23  1  0  0  0  0
 16 22  1  0  0  0  0
 17 23  1  0  0  0  0
 20 23  2  0  0  0  0
 21 23  2  0  0  0  0
  1 24  1  0  0  0  0
  2 25  1  0  0  0  0
  3 26  1  0  0  0  0
  4 27  1  0  0  0  0
  5 28  1  0  0  0  0
 11 29  1  0  0  0  0
 11 30  1  0  0  0  0
 12 31  1  0  0  0  0
 12 32  1  0  0  0  0
 13 33  1  0  0  0  0
 14 34  1  0  0  0  0
 14 35  1  0  0  0  0
 14 36  1  0  0  0  0
 15 37  1  0  0  0  0
 15 38  1  0  0  0  0
 18 39  1  0  0  0  0
 18 40  1  0  0  0  0
M  END
> <idnumber>
Z1171495162

> <heavy_atoms>
23

> <LogS>
-2.347

> <LogP>
0.288

> <rotating_bonds>
3

> <PSA>
106.5

> <hb_acceptors>
4

> <hb_donors>
1

> <Collection>
HTS

> <link>
https://www.enaminestore.com/catalog/Z1171495162

> <ROCS_ShapeQuery>
_x1140_x0812_0A_x1140_0A_x1097_0A_x0365_0A_x1097_0A_x0310_0A

> <ROCS_TanimotoCombo>
0.632 

> <ROCS_ShapeTanimoto>
0.260 

> <ROCS_ColorTanimoto>
0.372 

> <ROCS_RefTversky>
0.237 

> <ROCS_RefColorTversky>
0.542 

> <ROCS_RefTverskyCombo>
0.779 

> <ROCS_FitTversky>
1.610 

> <ROCS_FitColorTversky>
0.542 

> <ROCS_FitTverskyCombo>
2.152 

> <ROCS_ColorScore>
-4.340

> <ROCS_Overlap>
2429.840

> <ROCS_Rank>
317                 

$$$$
untitled-dbase-1030022_35
  -OEChem-02092421083D

 36 37  0     0  0  0  0  0  0999 V2000
   11.3072   16.0796   23.5918 C   0  0  0  0  0  0  0  0  0  0  0  0
   12.8143   15.6396   21.9145 C   0  0  0  0  0  0  0  0  0  0  0  0
    8.7293   11.6395   23.4153 C   0  0  0  0  0  0  0  0  0  0  0  0
   11.1727   14.0017   22.4424 C   0  0  0  0  0  0  0  0  0  0  0  0
   10.6815   14.8547   23.4244 C   0  0  0  0  0  0  0  0  0  0  0  0
   12.2593   14.3941   21.6686 C   0  0  0  0  0  0  0  0  0  0  0  0
    8.8424   10.2369   23.4558 C   0  0  0  0  0  0  0  0  0  0  0  0
    8.1617   11.9732   24.6207 C   0  0  0  0  0  0  0  0  0  0  0  0
   10.8023    8.8472   22.7387 C   0  0  0  0  0  0  0  0  0  0  0  0
    7.4075   10.6232   26.6005 C   0  0  0  0  0  0  0  0  0  0  0  0
    6.4826   13.6324   24.9090 C   0  0  0  0  0  0  0  0  0  0  0  0
    9.1352   12.5678   22.3073 C   0  0  0  0  0  0  0  0  0  0  0  0
    9.3876    9.3441   22.4179 C   0  0  0  0  0  0  0  0  0  0  0  0
   12.3648   16.4955   22.8595 N   0  0  0  0  0  0  0  0  0  0  0  0
    8.3838    9.7154   24.5968 N   0  0  0  0  0  0  0  0  0  0  0  0
    7.9770   10.7960   25.2843 N   0  0  0  0  0  0  0  0  0  0  0  0
   10.5520   12.7475   22.2522 N   0  0  0  0  0  0  0  0  0  0  0  0
    7.8172   13.1382   25.1499 O   0  0  0  0  0  0  0  0  0  0  0  0
    9.6376   14.5139   24.1904 F   0  0  0  0  0  0  0  0  0  0  0  0
   12.9246   13.3957   20.4347 Cl  0  0  0  0  0  0  0  0  0  0  0  0
   10.9630   16.7804   24.3450 H   0  0  0  0  0  0  0  0  0  0  0  0
   13.6628   16.0060   21.3444 H   0  0  0  0  0  0  0  0  0  0  0  0
   11.4823    9.6909   22.8980 H   0  0  0  0  0  0  0  0  0  0  0  0
   11.2044    8.2368   21.9241 H   0  0  0  0  0  0  0  0  0  0  0  0
   10.8018    8.2393   23.6498 H   0  0  0  0  0  0  0  0  0  0  0  0
    6.3280   10.4940   26.4867 H   0  0  0  0  0  0  0  0  0  0  0  0
    7.8498    9.7433   27.0760 H   0  0  0  0  0  0  0  0  0  0  0  0
    7.6260   11.5062   27.2076 H   0  0  0  0  0  0  0  0  0  0  0  0
    6.3544   14.5960   25.4081 H   0  0  0  0  0  0  0  0  0  0  0  0
    5.7526   12.9132   25.2891 H   0  0  0  0  0  0  0  0  0  0  0  0
    6.3395   13.7599   23.8334 H   0  0  0  0  0  0  0  0  0  0  0  0
    8.8067   12.1784   21.3375 H   0  0  0  0  0  0  0  0  0  0  0  0
    8.6773   13.5545   22.4337 H   0  0  0  0  0  0  0  0  0  0  0  0
    8.7361    8.4608   22.2649 H   0  0  0  0  0  0  0  0  0  0  0  0
    9.4116    9.8448   21.4294 H   0  0  0  0  0  0  0  0  0  0  0  0
   11.1540   11.9670   22.0740 H   0  0  0  0  0  0  0  0  0  0  0  0
  1  5  2  0  0  0  0
  1 14  1  0  0  0  0
  2  6  1  0  0  0  0
  2 14  2  0  0  0  0
  3  7  1  0  0  0  0
  3  8  2  0  0  0  0
  3 12  1  0  0  0  0
  4  5  1  0  0  0  0
  4  6  2  0  0  0  0
  4 17  1  0  0  0  0
  5 19  1  0  0  0  0
  6 20  1  0  0  0  0
  7 13  1  0  0  0  0
  7 15  2  0  0  0  0
  8 16  1  0  0  0  0
  8 18  1  0  0  0  0
  9 13  1  0  0  0  0
 10 16  1  0  0  0  0
 11 18  1  0  0  0  0
 12 17  1  0  0  0  0
 15 16  1  0  0  0  0
  1 21  1  0  0  0  0
  2 22  1  0  0  0  0
  9 23  1  0  0  0  0
  9 24  1  0  0  0  0
  9 25  1  0  0  0  0
 10 26  1  0  0  0  0
 10 27  1  0  0  0  0
 10 28  1  0  0  0  0
 11 29  1  0  0  0  0
 11 30  1  0  0  0  0
 11 31  1  0  0  0  0
 12 32  1  0  0  0  0
 12 33  1  0  0  0  0
 13 34  1  0  0  0  0
 13 35  1  0  0  0  0
 17 36  1  0  0  0  0
M  END
> <idnumber>
Z3391545488

> <heavy_atoms>
20

> <LogS>
-2.131

> <LogP>
2.656

> <rotating_bonds>
5

> <PSA>
51.97

> <hb_acceptors>
4

> <hb_donors>
1

> <Collection>
Advanced

> <link>
https://www.enaminestore.com/catalog/Z3391545488

> <ROCS_ShapeQuery>
_x1140_x0812_0A_x1140_0A_x1097_0A_x0365_0A_x1097_0A_x0310_0A

> <ROCS_TanimotoCombo>
0.632 

> <ROCS_ShapeTanimoto>
0.252 

> <ROCS_ColorTanimoto>
0.380 

> <ROCS_RefTversky>
0.228 

> <ROCS_RefColorTversky>
0.519 

> <ROCS_RefTverskyCombo>
0.748 

> <ROCS_FitTversky>
1.695 

> <ROCS_FitColorTversky>
0.586 

> <ROCS_FitTverskyCombo>
2.281 

> <ROCS_ColorScore>
-4.128

> <ROCS_Overlap>
2344.848

> <ROCS_Rank>
318                 

$$$$
untitled-dbase-697604_19
  -OEChem-02092421083D

 35 36  0     0  0  0  0  0  0999 V2000
    9.0874   12.3453   25.2337 C   0  0  0  0  0  0  0  0  0  0  0  0
    5.1119   11.3037   26.0498 C   0  0  0  0  0  0  0  0  0  0  0  0
    5.6091   12.5068   26.5352 C   0  0  0  0  0  0  0  0  0  0  0  0
    9.8786   11.4848   24.4863 C   0  0  0  0  0  0  0  0  0  0  0  0
    7.7556   12.0124   25.5158 C   0  0  0  0  0  0  0  0  0  0  0  0
    5.9345   10.4591   25.3003 C   0  0  0  0  0  0  0  0  0  0  0  0
    7.2575   10.7894   25.0196 C   0  0  0  0  0  0  0  0  0  0  0  0
    6.9284   12.8621   26.2697 C   0  0  0  0  0  0  0  0  0  0  0  0
    9.3031   10.3110   24.0440 C   0  0  0  0  0  0  0  0  0  0  0  0
   10.9622   10.9600   21.6109 C   0  0  0  0  0  0  0  0  0  0  0  0
    5.3530    9.1731   24.8000 C   0  0  0  0  0  0  0  0  0  0  0  0
   11.8734   12.5009   19.8566 C   0  0  0  0  0  0  0  0  0  0  0  0
   13.3982   10.9631   21.0333 C   0  0  0  0  0  0  0  0  0  0  0  0
   11.3005    9.8719   22.6147 C   0  0  0  0  0  0  0  0  0  0  0  0
    8.0229    9.9524   24.2941 N   0  0  0  0  0  0  0  0  0  0  0  0
   10.1161    9.4370   23.2804 N   0  0  0  0  0  0  0  0  0  0  0  0
   12.0366   11.4548   20.8632 N   0  0  0  0  0  0  0  0  0  0  0  0
    9.8028   11.3622   21.4824 O   0  0  0  0  0  0  0  0  0  0  0  0
    7.4646   14.3800   26.9149 Cl  0  0  0  0  0  0  0  0  0  0  0  0
    9.5410   13.2690   25.5814 H   0  0  0  0  0  0  0  0  0  0  0  0
    4.0819   11.0270   26.2593 H   0  0  0  0  0  0  0  0  0  0  0  0
    4.9571   13.1537   27.1163 H   0  0  0  0  0  0  0  0  0  0  0  0
   10.9100   11.7393   24.2656 H   0  0  0  0  0  0  0  0  0  0  0  0
    4.9056    9.3221   23.8119 H   0  0  0  0  0  0  0  0  0  0  0  0
    6.1227    8.3970   24.7255 H   0  0  0  0  0  0  0  0  0  0  0  0
    4.5826    8.7987   25.4834 H   0  0  0  0  0  0  0  0  0  0  0  0
   12.0030   13.4867   20.3272 H   0  0  0  0  0  0  0  0  0  0  0  0
   12.6273   12.3700   19.0664 H   0  0  0  0  0  0  0  0  0  0  0  0
   10.8669   12.4336   19.4180 H   0  0  0  0  0  0  0  0  0  0  0  0
   13.5706   10.1163   20.3526 H   0  0  0  0  0  0  0  0  0  0  0  0
   14.1105   11.7692   20.8033 H   0  0  0  0  0  0  0  0  0  0  0  0
   13.5415   10.6328   22.0728 H   0  0  0  0  0  0  0  0  0  0  0  0
   11.7304    9.0056   22.1053 H   0  0  0  0  0  0  0  0  0  0  0  0
   11.9845   10.2552   23.3762 H   0  0  0  0  0  0  0  0  0  0  0  0
    9.8198    8.4840   23.2247 H   0  0  0  0  0  0  0  0  0  0  0  0
  1  4  2  0  0  0  0
  1  5  1  0  0  0  0
  2  3  1  0  0  0  0
  2  6  2  0  0  0  0
  3  8  2  0  0  0  0
  4  9  1  0  0  0  0
  5  7  2  0  0  0  0
  5  8  1  0  0  0  0
  6  7  1  0  0  0  0
  6 11  1  0  0  0  0
  7 15  1  0  0  0  0
  8 19  1  0  0  0  0
  9 15  2  0  0  0  0
  9 16  1  0  0  0  0
 10 14  1  0  0  0  0
 10 17  1  0  0  0  0
 10 18  2  0  0  0  0
 12 17  1  0  0  0  0
 13 17  1  0  0  0  0
 14 16  1  0  0  0  0
  1 20  1  0  0  0  0
  2 21  1  0  0  0  0
  3 22  1  0  0  0  0
  4 23  1  0  0  0  0
 11 24  1  0  0  0  0
 11 25  1  0  0  0  0
 11 26  1  0  0  0  0
 12 27  1  0  0  0  0
 12 28  1  0  0  0  0
 12 29  1  0  0  0  0
 13 30  1  0  0  0  0
 13 31  1  0  0  0  0
 13 32  1  0  0  0  0
 14 33  1  0  0  0  0
 14 34  1  0  0  0  0
 16 35  1  0  0  0  0
M  END
> <idnumber>
Z1618121407

> <heavy_atoms>
19

> <LogS>
-3.801

> <LogP>
3.136

> <rotating_bonds>
3

> <PSA>
45.23

> <hb_acceptors>
3

> <hb_donors>
1

> <Collection>
HTS

> <link>
https://www.enaminestore.com/catalog/Z1618121407

> <ROCS_ShapeQuery>
_x1140_x0812_0A_x1140_0A_x1097_0A_x0365_0A_x1097_0A_x0310_0A

> <ROCS_TanimotoCombo>
0.632 

> <ROCS_ShapeTanimoto>
0.232 

> <ROCS_ColorTanimoto>
0.400 

> <ROCS_RefTversky>
0.213 

> <ROCS_RefColorTversky>
0.473 

> <ROCS_RefTverskyCombo>
0.686 

> <ROCS_FitTversky>
1.634 

> <ROCS_FitColorTversky>
0.720 

> <ROCS_FitTverskyCombo>
2.354 

> <ROCS_ColorScore>
-3.713

> <ROCS_Overlap>
2185.815

> <ROCS_Rank>
319                 

$$$$
untitled-dbase-36940_9
  -OEChem-02092421083D

 23 23  0     0  0  0  0  0  0999 V2000
   11.8540   15.2381   22.3431 C   0  0  0  0  0  0  0  0  0  0  0  0
    8.4071   12.1163   24.5260 C   0  0  0  0  0  0  0  0  0  0  0  0
    7.8228   11.0714   25.2668 C   0  0  0  0  0  0  0  0  0  0  0  0
    9.0953   11.4816   23.5210 C   0  0  0  0  0  0  0  0  0  0  0  0
    9.8760   12.0576   22.4723 C   0  0  0  0  0  0  0  0  0  0  0  0
   10.5861    8.3705   23.5733 C   0  0  0  0  0  0  0  0  0  0  0  0
   11.3271   14.0032   21.7649 C   0  0  0  0  0  0  0  0  0  0  0  0
    9.4088    9.0646   22.9101 C   0  0  0  0  0  0  0  0  0  0  0  0
   12.2743   16.2188   22.7991 N   0  0  0  0  0  0  0  0  0  0  0  0
    8.1142    9.8646   24.7743 N   0  0  0  0  0  0  0  0  0  0  0  0
    8.8891   10.1471   23.7132 N   0  0  0  0  0  0  0  0  0  0  0  0
   10.5228   13.2859   22.7279 N   0  0  0  0  0  0  0  0  0  0  0  0
    9.9733   11.5062   21.3469 O   0  0  0  0  0  0  0  0  0  0  0  0
    8.3348   13.1801   24.7010 H   0  0  0  0  0  0  0  0  0  0  0  0
    7.1964   11.1389   26.1447 H   0  0  0  0  0  0  0  0  0  0  0  0
   11.4071    9.0718   23.7562 H   0  0  0  0  0  0  0  0  0  0  0  0
   10.9611    7.5654   22.9339 H   0  0  0  0  0  0  0  0  0  0  0  0
   10.2977    7.9359   24.5361 H   0  0  0  0  0  0  0  0  0  0  0  0
   10.6955   14.2126   20.8969 H   0  0  0  0  0  0  0  0  0  0  0  0
   12.1367   13.3387   21.4500 H   0  0  0  0  0  0  0  0  0  0  0  0
    8.5928    8.3552   22.7312 H   0  0  0  0  0  0  0  0  0  0  0  0
    9.7010    9.4762   21.9374 H   0  0  0  0  0  0  0  0  0  0  0  0
   10.3702   13.7329   23.6261 H   0  0  0  0  0  0  0  0  0  0  0  0
  1  7  1  0  0  0  0
  1  9  3  0  0  0  0
  2  3  1  0  0  0  0
  2  4  2  0  0  0  0
  3 10  2  0  0  0  0
  4  5  1  0  0  0  0
  4 11  1  0  0  0  0
  5 12  1  0  0  0  0
  5 13  2  0  0  0  0
  6  8  1  0  0  0  0
  7 12  1  0  0  0  0
  8 11  1  0  0  0  0
 10 11  1  0  0  0  0
  2 14  1  0  0  0  0
  3 15  1  0  0  0  0
  6 16  1  0  0  0  0
  6 17  1  0  0  0  0
  6 18  1  0  0  0  0
  7 19  1  0  0  0  0
  7 20  1  0  0  0  0
  8 21  1  0  0  0  0
  8 22  1  0  0  0  0
 12 23  1  0  0  0  0
M  END
> <idnumber>
Z1732504440

> <heavy_atoms>
13

> <LogS>
-0.733

> <LogP>
-0.702

> <rotating_bonds>
3

> <PSA>
70.71

> <hb_acceptors>
3

> <hb_donors>
1

> <Collection>
Functional

> <link>
https://www.enaminestore.com/catalog/Z1732504440

> <ROCS_ShapeQuery>
_x1140_x0812_0A_x1140_0A_x1097_0A_x0365_0A_x1097_0A_x0310_0A

> <ROCS_TanimotoCombo>
0.632 

> <ROCS_ShapeTanimoto>
0.213 

> <ROCS_ColorTanimoto>
0.419 

> <ROCS_RefTversky>
0.194 

> <ROCS_RefColorTversky>
0.489 

> <ROCS_RefTverskyCombo>
0.683 

> <ROCS_FitTversky>
1.846 

> <ROCS_FitColorTversky>
0.745 

> <ROCS_FitTverskyCombo>
2.592 

> <ROCS_ColorScore>
-3.838

> <ROCS_Overlap>
1987.068

> <ROCS_Rank>
320                 

$$$$
untitled-dbase-265168_43
  -OEChem-02092421083D

 26 27  0     0  0  0  0  0  0999 V2000
    7.7996   12.0435   25.3800 C   0  0  0  0  0  0  0  0  0  0  0  0
    8.7438   12.4264   24.4338 C   0  0  0  0  0  0  0  0  0  0  0  0
   13.9432   15.1891   22.1876 C   0  0  0  0  0  0  0  0  0  0  0  0
    7.5027   10.6946   25.4909 C   0  0  0  0  0  0  0  0  0  0  0  0
   13.6307   16.5144   22.3819 C   0  0  0  0  0  0  0  0  0  0  0  0
   11.7714   15.4090   22.6475 C   0  0  0  0  0  0  0  0  0  0  0  0
    9.3536   11.4624   23.6387 C   0  0  0  0  0  0  0  0  0  0  0  0
   12.7357   14.4712   22.3599 C   0  0  0  0  0  0  0  0  0  0  0  0
    8.9873   10.1396   23.8277 C   0  0  0  0  0  0  0  0  0  0  0  0
   10.3416   11.8557   22.6461 C   0  0  0  0  0  0  0  0  0  0  0  0
   12.5438   12.9861   22.2514 C   0  0  0  0  0  0  0  0  0  0  0  0
    8.0743    9.7294   24.7365 N   0  0  0  0  0  0  0  0  0  0  0  0
   11.4851   12.5131   23.1141 N   0  0  0  0  0  0  0  0  0  0  0  0
   10.1490   11.6268   21.4390 O   0  0  0  0  0  0  0  0  0  0  0  0
   12.3088   16.6570   22.6629 O   0  0  0  0  0  0  0  0  0  0  0  0
    9.5644    9.1578   23.0644 O   0  0  0  0  0  0  0  0  0  0  0  0
    7.3121   12.7770   26.0119 H   0  0  0  0  0  0  0  0  0  0  0  0
    8.9964   13.4777   24.3244 H   0  0  0  0  0  0  0  0  0  0  0  0
   14.9208   14.7937   21.9512 H   0  0  0  0  0  0  0  0  0  0  0  0
    6.7739   10.3435   26.2140 H   0  0  0  0  0  0  0  0  0  0  0  0
   14.2044   17.4293   22.3568 H   0  0  0  0  0  0  0  0  0  0  0  0
   10.7126   15.3554   22.8559 H   0  0  0  0  0  0  0  0  0  0  0  0
   12.2927   12.7033   21.2232 H   0  0  0  0  0  0  0  0  0  0  0  0
   13.4601   12.4506   22.5214 H   0  0  0  0  0  0  0  0  0  0  0  0
   11.5629   12.7309   24.1022 H   0  0  0  0  0  0  0  0  0  0  0  0
   10.1982    9.5525   22.4497 H   0  0  0  0  0  0  0  0  0  0  0  0
  1  2  2  0  0  0  0
  1  4  1  0  0  0  0
  2  7  1  0  0  0  0
  3  5  2  0  0  0  0
  3  8  1  0  0  0  0
  4 12  2  0  0  0  0
  5 15  1  0  0  0  0
  6  8  2  0  0  0  0
  6 15  1  0  0  0  0
  7  9  2  0  0  0  0
  7 10  1  0  0  0  0
  8 11  1  0  0  0  0
  9 12  1  0  0  0  0
  9 16  1  0  0  0  0
 10 13  1  0  0  0  0
 10 14  2  0  0  0  0
 11 13  1  0  0  0  0
  1 17  1  0  0  0  0
  2 18  1  0  0  0  0
  3 19  1  0  0  0  0
  4 20  1  0  0  0  0
  5 21  1  0  0  0  0
  6 22  1  0  0  0  0
 11 23  1  0  0  0  0
 11 24  1  0  0  0  0
 13 25  1  0  0  0  0
 16 26  1  0  0  0  0
M  END
> <idnumber>
Z649741402

> <heavy_atoms>
16

> <LogS>
-1.446

> <LogP>
2.541

> <rotating_bonds>
3

> <PSA>
75.36

> <hb_acceptors>
3

> <hb_donors>
2

> <Collection>
Legacy

> <link>
https://www.enaminestore.com/catalog/Z649741402

> <ROCS_ShapeQuery>
_x1140_x0812_0A_x1140_0A_x1097_0A_x0365_0A_x1097_0A_x0310_0A

> <ROCS_TanimotoCombo>
0.631 

> <ROCS_ShapeTanimoto>
0.228 

> <ROCS_ColorTanimoto>
0.404 

> <ROCS_RefTversky>
0.208 

> <ROCS_RefColorTversky>
0.576 

> <ROCS_RefTverskyCombo>
0.783 

> <ROCS_FitTversky>
1.734 

> <ROCS_FitColorTversky>
0.575 

> <ROCS_FitTverskyCombo>
2.309 

> <ROCS_ColorScore>
-4.606

> <ROCS_Overlap>
2130.142

> <ROCS_Rank>
321                 

$$$$
untitled-dbase-296551_8
  -OEChem-02092421083D

 29 31  0     0  0  0  0  0  0999 V2000
    8.3552   12.6506   24.1159 C   0  0  0  0  0  0  0  0  0  0  0  0
    7.3686   12.0664   24.9025 C   0  0  0  0  0  0  0  0  0  0  0  0
   11.4618   13.7956   20.1855 C   0  0  0  0  0  0  0  0  0  0  0  0
    9.2584   10.4843   23.7314 C   0  0  0  0  0  0  0  0  0  0  0  0
   12.0686   14.6989   19.3401 C   0  0  0  0  0  0  0  0  0  0  0  0
   11.7586   15.5061   23.8752 C   0  0  0  0  0  0  0  0  0  0  0  0
   11.4687   14.2306   21.5482 C   0  0  0  0  0  0  0  0  0  0  0  0
    9.3218   11.8515   23.5156 C   0  0  0  0  0  0  0  0  0  0  0  0
    7.3925   10.6895   25.0560 C   0  0  0  0  0  0  0  0  0  0  0  0
   10.9833   13.6647   22.7314 C   0  0  0  0  0  0  0  0  0  0  0  0
   12.0923   15.4657   21.6697 C   0  0  0  0  0  0  0  0  0  0  0  0
    5.0796   10.6788   25.9919 C   0  0  0  0  0  0  0  0  0  0  0  0
    8.3153    9.8806   24.4888 N   0  0  0  0  0  0  0  0  0  0  0  0
   11.1324   14.3134   23.9062 N   0  0  0  0  0  0  0  0  0  0  0  0
   12.2678   16.1560   22.8134 N   0  0  0  0  0  0  0  0  0  0  0  0
   10.3354   12.4150   22.7134 N   0  0  0  0  0  0  0  0  0  0  0  0
    6.3811   10.1096   25.8618 N   0  0  0  0  0  0  0  0  0  0  0  0
   12.6482   16.0731   20.1777 S   0  0  0  0  0  0  0  0  0  0  0  0
    8.3617   13.7284   23.9769 H   0  0  0  0  0  0  0  0  0  0  0  0
    6.6108   12.6825   25.3751 H   0  0  0  0  0  0  0  0  0  0  0  0
   11.0330   12.8640   19.8377 H   0  0  0  0  0  0  0  0  0  0  0  0
    9.9850    9.8091   23.2895 H   0  0  0  0  0  0  0  0  0  0  0  0
   12.1980   14.6159   18.2702 H   0  0  0  0  0  0  0  0  0  0  0  0
   11.8656   16.0067   24.8312 H   0  0  0  0  0  0  0  0  0  0  0  0
    5.0165   11.5936   25.3845 H   0  0  0  0  0  0  0  0  0  0  0  0
    4.3269    9.9556   25.6447 H   0  0  0  0  0  0  0  0  0  0  0  0
    4.8914   10.9257   27.0472 H   0  0  0  0  0  0  0  0  0  0  0  0
   10.6614   11.7953   21.9761 H   0  0  0  0  0  0  0  0  0  0  0  0
    6.6219    9.2692   26.3463 H   0  0  0  0  0  0  0  0  0  0  0  0
  1  2  2  0  0  0  0
  1  8  1  0  0  0  0
  2  9  1  0  0  0  0
  3  5  2  0  0  0  0
  3  7  1  0  0  0  0
  4  8  2  0  0  0  0
  4 13  1  0  0  0  0
  5 18  1  0  0  0  0
  6 14  2  0  0  0  0
  6 15  1  0  0  0  0
  7 10  2  0  0  0  0
  7 11  1  0  0  0  0
  8 16  1  0  0  0  0
  9 13  2  0  0  0  0
  9 17  1  0  0  0  0
 10 14  1  0  0  0  0
 10 16  1  0  0  0  0
 11 15  2  0  0  0  0
 11 18  1  0  0  0  0
 12 17  1  0  0  0  0
  1 19  1  0  0  0  0
  2 20  1  0  0  0  0
  3 21  1  0  0  0  0
  4 22  1  0  0  0  0
  5 23  1  0  0  0  0
  6 24  1  0  0  0  0
 12 25  1  0  0  0  0
 12 26  1  0  0  0  0
 12 27  1  0  0  0  0
 16 28  1  0  0  0  0
 17 29  1  0  0  0  0
M  END
> <idnumber>
Z729056054

> <heavy_atoms>
18

> <LogS>
-3.751

> <LogP>
2.776

> <rotating_bonds>
3

> <PSA>
62.73

> <hb_acceptors>
5

> <hb_donors>
2

> <Collection>
HTS

> <link>
https://www.enaminestore.com/catalog/Z729056054

> <ROCS_ShapeQuery>
_x1140_x0812_0A_x1140_0A_x1097_0A_x0365_0A_x1097_0A_x0310_0A

> <ROCS_TanimotoCombo>
0.631 

> <ROCS_ShapeTanimoto>
0.228 

> <ROCS_ColorTanimoto>
0.404 

> <ROCS_RefTversky>
0.209 

> <ROCS_RefColorTversky>
0.576 

> <ROCS_RefTverskyCombo>
0.785 

> <ROCS_FitTversky>
1.631 

> <ROCS_FitColorTversky>
0.574 

> <ROCS_FitTverskyCombo>
2.205 

> <ROCS_ColorScore>
-4.606

> <ROCS_Overlap>
2149.680

> <ROCS_Rank>
322                 

$$$$
untitled-dbase-505936_19
  -OEChem-02092421083D

 31 31  0     0  0  0  0  0  0999 V2000
    8.8828   12.4166   24.6813 C   0  0  0  0  0  0  0  0  0  0  0  0
    8.0824   11.8815   25.6845 C   0  0  0  0  0  0  0  0  0  0  0  0
    8.8256   10.3080   23.5827 C   0  0  0  0  0  0  0  0  0  0  0  0
    9.2659   11.6215   23.6069 C   0  0  0  0  0  0  0  0  0  0  0  0
    7.6949   10.5564   25.5671 C   0  0  0  0  0  0  0  0  0  0  0  0
   10.1198   12.1628   22.5184 C   0  0  0  0  0  0  0  0  0  0  0  0
   12.6202   14.9582   22.6045 C   0  0  0  0  0  0  0  0  0  0  0  0
    6.8370    9.9488   26.6265 C   0  0  0  0  0  0  0  0  0  0  0  0
   14.7412   15.5278   23.8124 C   0  0  0  0  0  0  0  0  0  0  0  0
   14.3738   13.2215   23.0248 C   0  0  0  0  0  0  0  0  0  0  0  0
   11.8310   13.8566   21.9192 C   0  0  0  0  0  0  0  0  0  0  0  0
    8.0472    9.7529   24.5385 N   0  0  0  0  0  0  0  0  0  0  0  0
   10.9645   13.2128   22.8647 N   0  0  0  0  0  0  0  0  0  0  0  0
   13.8631   14.5829   23.1266 N   0  0  0  0  0  0  0  0  0  0  0  0
   10.0281   11.6857   21.3903 O   0  0  0  0  0  0  0  0  0  0  0  0
   12.1698   16.1044   22.6800 O   0  0  0  0  0  0  0  0  0  0  0  0
    9.2020   13.4533   24.7460 H   0  0  0  0  0  0  0  0  0  0  0  0
    7.7753   12.4908   26.5277 H   0  0  0  0  0  0  0  0  0  0  0  0
    9.0923    9.6382   22.7704 H   0  0  0  0  0  0  0  0  0  0  0  0
    5.7767   10.0853   26.3827 H   0  0  0  0  0  0  0  0  0  0  0  0
    7.0354    8.8746   26.7310 H   0  0  0  0  0  0  0  0  0  0  0  0
    7.0315   10.4052   27.6055 H   0  0  0  0  0  0  0  0  0  0  0  0
   14.5111   15.5287   24.8880 H   0  0  0  0  0  0  0  0  0  0  0  0
   15.7893   15.2297   23.6620 H   0  0  0  0  0  0  0  0  0  0  0  0
   14.5847   16.5369   23.4033 H   0  0  0  0  0  0  0  0  0  0  0  0
   14.9533   13.1152   22.0958 H   0  0  0  0  0  0  0  0  0  0  0  0
   15.0218   13.0076   23.8875 H   0  0  0  0  0  0  0  0  0  0  0  0
   13.5316   12.5139   23.0144 H   0  0  0  0  0  0  0  0  0  0  0  0
   11.2039   14.2749   21.1277 H   0  0  0  0  0  0  0  0  0  0  0  0
   12.5065   13.0956   21.5202 H   0  0  0  0  0  0  0  0  0  0  0  0
   10.9337   13.5917   23.8106 H   0  0  0  0  0  0  0  0  0  0  0  0
  1  2  2  0  0  0  0
  1  4  1  0  0  0  0
  2  5  1  0  0  0  0
  3  4  2  0  0  0  0
  3 12  1  0  0  0  0
  4  6  1  0  0  0  0
  5  8  1  0  0  0  0
  5 12  2  0  0  0  0
  6 13  1  0  0  0  0
  6 15  2  0  0  0  0
  7 11  1  0  0  0  0
  7 14  1  0  0  0  0
  7 16  2  0  0  0  0
  9 14  1  0  0  0  0
 10 14  1  0  0  0  0
 11 13  1  0  0  0  0
  1 17  1  0  0  0  0
  2 18  1  0  0  0  0
  3 19  1  0  0  0  0
  8 20  1  0  0  0  0
  8 21  1  0  0  0  0
  8 22  1  0  0  0  0
  9 23  1  0  0  0  0
  9 24  1  0  0  0  0
  9 25  1  0  0  0  0
 10 26  1  0  0  0  0
 10 27  1  0  0  0  0
 10 28  1  0  0  0  0
 11 29  1  0  0  0  0
 11 30  1  0  0  0  0
 13 31  1  0  0  0  0
M  END
> <idnumber>
Z242283828

> <heavy_atoms>
16

> <LogS>
-1.008

> <LogP>
0.182

> <rotating_bonds>
3

> <PSA>
62.3

> <hb_acceptors>
3

> <hb_donors>
1

> <Collection>
HTS

> <link>
https://www.enaminestore.com/catalog/Z242283828

> <ROCS_ShapeQuery>
_x1140_x0812_0A_x1140_0A_x1097_0A_x0365_0A_x1097_0A_x0310_0A

> <ROCS_TanimotoCombo>
0.631 

> <ROCS_ShapeTanimoto>
0.208 

> <ROCS_ColorTanimoto>
0.424 

> <ROCS_RefTversky>
0.192 

> <ROCS_RefColorTversky>
0.493 

> <ROCS_RefTverskyCombo>
0.685 

> <ROCS_FitTversky>
1.645 

> <ROCS_FitColorTversky>
0.751 

> <ROCS_FitTverskyCombo>
2.397 

> <ROCS_ColorScore>
-3.868

> <ROCS_Overlap>
1970.355

> <ROCS_Rank>
323                 

$$$$
untitled-dbase-463286_33
  -OEChem-02092421083D

 31 32  0     0  0  0  0  0  0999 V2000
   11.8728   15.3222   22.3526 C   0  0  0  0  0  0  0  0  0  0  0  0
    5.3188    8.8032   28.5834 C   0  0  0  0  0  0  0  0  0  0  0  0
    4.9769   10.0731   28.1187 C   0  0  0  0  0  0  0  0  0  0  0  0
    6.4169    8.1347   28.0421 C   0  0  0  0  0  0  0  0  0  0  0  0
    5.7330   10.6746   27.1126 C   0  0  0  0  0  0  0  0  0  0  0  0
    7.1730    8.7362   27.0360 C   0  0  0  0  0  0  0  0  0  0  0  0
    8.5089   12.5406   24.4283 C   0  0  0  0  0  0  0  0  0  0  0  0
    7.7402   12.0085   25.4576 C   0  0  0  0  0  0  0  0  0  0  0  0
    6.8311   10.0061   26.5712 C   0  0  0  0  0  0  0  0  0  0  0  0
    9.1204   11.6904   23.5138 C   0  0  0  0  0  0  0  0  0  0  0  0
    7.6152   10.6304   25.5279 C   0  0  0  0  0  0  0  0  0  0  0  0
    8.9338   10.3265   23.6712 C   0  0  0  0  0  0  0  0  0  0  0  0
    9.9232   12.2458   22.4349 C   0  0  0  0  0  0  0  0  0  0  0  0
    9.5645    9.3635   22.7187 C   0  0  0  0  0  0  0  0  0  0  0  0
   11.3227   14.0764   21.8185 C   0  0  0  0  0  0  0  0  0  0  0  0
   12.3094   16.3105   22.7754 N   0  0  0  0  0  0  0  0  0  0  0  0
    8.1943    9.7726   24.6581 N   0  0  0  0  0  0  0  0  0  0  0  0
   10.0634   11.7181   21.3241 O   0  0  0  0  0  0  0  0  0  0  0  0
   10.5056   13.4287   22.7995 O   0  0  0  0  0  0  0  0  0  0  0  0
    4.7309    8.3358   29.3679 H   0  0  0  0  0  0  0  0  0  0  0  0
    4.1229   10.5944   28.5412 H   0  0  0  0  0  0  0  0  0  0  0  0
    6.6846    7.1465   28.4044 H   0  0  0  0  0  0  0  0  0  0  0  0
    5.4538   11.6651   26.7612 H   0  0  0  0  0  0  0  0  0  0  0  0
    8.0267    8.2032   26.6240 H   0  0  0  0  0  0  0  0  0  0  0  0
    8.6249   13.6185   24.3494 H   0  0  0  0  0  0  0  0  0  0  0  0
    7.2587   12.6653   26.1748 H   0  0  0  0  0  0  0  0  0  0  0  0
   10.5595    9.0739   23.0755 H   0  0  0  0  0  0  0  0  0  0  0  0
    8.9547    8.4585   22.6092 H   0  0  0  0  0  0  0  0  0  0  0  0
    9.6653    9.8041   21.7193 H   0  0  0  0  0  0  0  0  0  0  0  0
   10.7000   14.2754   20.9414 H   0  0  0  0  0  0  0  0  0  0  0  0
   12.1177   13.3869   21.5188 H   0  0  0  0  0  0  0  0  0  0  0  0
  1 15  1  0  0  0  0
  1 16  3  0  0  0  0
  2  3  1  0  0  0  0
  2  4  2  0  0  0  0
  3  5  2  0  0  0  0
  4  6  1  0  0  0  0
  5  9  1  0  0  0  0
  6  9  2  0  0  0  0
  7  8  2  0  0  0  0
  7 10  1  0  0  0  0
  8 11  1  0  0  0  0
  9 11  1  0  0  0  0
 10 12  2  0  0  0  0
 10 13  1  0  0  0  0
 11 17  2  0  0  0  0
 12 14  1  0  0  0  0
 12 17  1  0  0  0  0
 13 18  2  0  0  0  0
 13 19  1  0  0  0  0
 15 19  1  0  0  0  0
  2 20  1  0  0  0  0
  3 21  1  0  0  0  0
  4 22  1  0  0  0  0
  5 23  1  0  0  0  0
  6 24  1  0  0  0  0
  7 25  1  0  0  0  0
  8 26  1  0  0  0  0
 14 27  1  0  0  0  0
 14 28  1  0  0  0  0
 14 29  1  0  0  0  0
 15 30  1  0  0  0  0
 15 31  1  0  0  0  0
M  END
> <idnumber>
Z168123244

> <heavy_atoms>
19

> <LogS>
-3.535

> <LogP>
2.347

> <rotating_bonds>
4

> <PSA>
62.98

> <hb_acceptors>
3

> <hb_donors>
0

> <Collection>
Legacy

> <link>
https://www.enaminestore.com/catalog/Z168123244

> <ROCS_ShapeQuery>
_x1140_x0812_0A_x1140_0A_x1097_0A_x0365_0A_x1097_0A_x0310_0A

> <ROCS_TanimotoCombo>
0.631 

> <ROCS_ShapeTanimoto>
0.243 

> <ROCS_ColorTanimoto>
0.388 

> <ROCS_RefTversky>
0.221 

> <ROCS_RefColorTversky>
0.463 

> <ROCS_RefTverskyCombo>
0.684 

> <ROCS_FitTversky>
1.683 

> <ROCS_FitColorTversky>
0.706 

> <ROCS_FitTverskyCombo>
2.390 

> <ROCS_ColorScore>
-3.636

> <ROCS_Overlap>
2270.366

> <ROCS_Rank>
324                 

$$$$
untitled-dbase-310575_148
  -OEChem-02092421083D

 31 32  0     0  0  0  0  0  0999 V2000
    8.0647   11.8352   25.5848 C   0  0  0  0  0  0  0  0  0  0  0  0
    8.8559   12.2631   24.5245 C   0  0  0  0  0  0  0  0  0  0  0  0
   11.7558   15.8999   21.1026 C   0  0  0  0  0  0  0  0  0  0  0  0
   12.7083   15.2679   23.2188 C   0  0  0  0  0  0  0  0  0  0  0  0
    7.6579   10.5107   25.5972 C   0  0  0  0  0  0  0  0  0  0  0  0
   12.0436   17.2158   21.4272 C   0  0  0  0  0  0  0  0  0  0  0  0
   12.9536   16.6121   23.4485 C   0  0  0  0  0  0  0  0  0  0  0  0
    9.2111   11.3661   23.5232 C   0  0  0  0  0  0  0  0  0  0  0  0
   12.0977   14.9134   22.0209 C   0  0  0  0  0  0  0  0  0  0  0  0
    8.7532   10.0626   23.6280 C   0  0  0  0  0  0  0  0  0  0  0  0
   10.0415   11.8408   22.4239 C   0  0  0  0  0  0  0  0  0  0  0  0
   10.9589    8.8653   22.5260 C   0  0  0  0  0  0  0  0  0  0  0  0
   11.8080   13.4711   21.7207 C   0  0  0  0  0  0  0  0  0  0  0  0
   12.6359   17.5987   22.5805 N   0  0  0  0  0  0  0  0  0  0  0  0
    7.9829    9.6102   24.6427 N   0  0  0  0  0  0  0  0  0  0  0  0
   10.9356   12.8777   22.7084 N   0  0  0  0  0  0  0  0  0  0  0  0
    9.9269   11.3453   21.2903 O   0  0  0  0  0  0  0  0  0  0  0  0
    9.1594    8.8376   22.3885 S   0  0  0  0  0  0  0  0  0  0  0  0
    7.7753   12.5166   26.3763 H   0  0  0  0  0  0  0  0  0  0  0  0
    9.1886   13.2974   24.4914 H   0  0  0  0  0  0  0  0  0  0  0  0
   11.2777   15.6562   20.1599 H   0  0  0  0  0  0  0  0  0  0  0  0
   12.9869   14.5216   23.9547 H   0  0  0  0  0  0  0  0  0  0  0  0
    7.0390   10.1277   26.4018 H   0  0  0  0  0  0  0  0  0  0  0  0
   11.7959   18.0228   20.7454 H   0  0  0  0  0  0  0  0  0  0  0  0
   13.4278   16.9405   24.3674 H   0  0  0  0  0  0  0  0  0  0  0  0
   11.3966    8.1554   21.8200 H   0  0  0  0  0  0  0  0  0  0  0  0
   11.2578    8.5894   23.5403 H   0  0  0  0  0  0  0  0  0  0  0  0
   11.3328    9.8675   22.3033 H   0  0  0  0  0  0  0  0  0  0  0  0
   11.3272   13.3696   20.7416 H   0  0  0  0  0  0  0  0  0  0  0  0
   12.7310   12.8826   21.6924 H   0  0  0  0  0  0  0  0  0  0  0  0
   10.9429   13.2879   23.6366 H   0  0  0  0  0  0  0  0  0  0  0  0
  1  2  2  0  0  0  0
  1  5  1  0  0  0  0
  2  8  1  0  0  0  0
  3  6  2  0  0  0  0
  3  9  1  0  0  0  0
  4  7  1  0  0  0  0
  4  9  2  0  0  0  0
  5 15  2  0  0  0  0
  6 14  1  0  0  0  0
  7 14  2  0  0  0  0
  8 10  2  0  0  0  0
  8 11  1  0  0  0  0
  9 13  1  0  0  0  0
 10 15  1  0  0  0  0
 10 18  1  0  0  0  0
 11 16  1  0  0  0  0
 11 17  2  0  0  0  0
 12 18  1  0  0  0  0
 13 16  1  0  0  0  0
  1 19  1  0  0  0  0
  2 20  1  0  0  0  0
  3 21  1  0  0  0  0
  4 22  1  0  0  0  0
  5 23  1  0  0  0  0
  6 24  1  0  0  0  0
  7 25  1  0  0  0  0
 12 26  1  0  0  0  0
 12 27  1  0  0  0  0
 12 28  1  0  0  0  0
 13 29  1  0  0  0  0
 13 30  1  0  0  0  0
 16 31  1  0  0  0  0
M  END
> <idnumber>
Z30168860

> <heavy_atoms>
18

> <LogS>
-2.43

> <LogP>
1.025

> <rotating_bonds>
4

> <PSA>
54.88

> <hb_acceptors>
3

> <hb_donors>
1

> <Collection>
Functional

> <link>
https://www.enaminestore.com/catalog/Z30168860

> <ROCS_ShapeQuery>
_x1140_x0812_0A_x1140_0A_x1097_0A_x0365_0A_x1097_0A_x0310_0A

> <ROCS_TanimotoCombo>
0.631 

> <ROCS_ShapeTanimoto>
0.224 

> <ROCS_ColorTanimoto>
0.407 

> <ROCS_RefTversky>
0.206 

> <ROCS_RefColorTversky>
0.546 

> <ROCS_RefTverskyCombo>
0.752 

> <ROCS_FitTversky>
1.647 

> <ROCS_FitColorTversky>
0.615 

> <ROCS_FitTverskyCombo>
2.262 

> <ROCS_ColorScore>
-4.338

> <ROCS_Overlap>
2116.593

> <ROCS_Rank>
325                 

$$$$
untitled-dbase-1034661_10
  -OEChem-02092421083D

 30 32  0     0  0  0  0  0  0999 V2000
   11.8996   12.4965   21.2542 C   0  0  0  0  0  0  0  0  0  0  0  0
   10.8637   11.8785   21.9546 C   0  0  0  0  0  0  0  0  0  0  0  0
   12.4354   13.6980   21.7179 C   0  0  0  0  0  0  0  0  0  0  0  0
    6.2652   12.2704   26.0868 C   0  0  0  0  0  0  0  0  0  0  0  0
    8.3780   12.5810   24.5750 C   0  0  0  0  0  0  0  0  0  0  0  0
   10.8994   13.6635   23.5824 C   0  0  0  0  0  0  0  0  0  0  0  0
    9.1483   10.4410   23.8275 C   0  0  0  0  0  0  0  0  0  0  0  0
    5.6147   11.1140   26.4597 C   0  0  0  0  0  0  0  0  0  0  0  0
    7.3578   11.9002   25.2588 C   0  0  0  0  0  0  0  0  0  0  0  0
   10.3636   12.4619   23.1187 C   0  0  0  0  0  0  0  0  0  0  0  0
    9.2904   11.8221   23.8443 C   0  0  0  0  0  0  0  0  0  0  0  0
   11.9353   14.2815   22.8819 C   0  0  0  0  0  0  0  0  0  0  0  0
    7.3332   10.5124   25.1557 C   0  0  0  0  0  0  0  0  0  0  0  0
   12.4933   15.5351   23.3639 C   0  0  0  0  0  0  0  0  0  0  0  0
   13.1095   15.5390   24.7327 C   0  0  0  0  0  0  0  0  0  0  0  0
    8.1875    9.7332   24.4657 N   0  0  0  0  0  0  0  0  0  0  0  0
    6.2711   10.0541   25.8897 N   0  0  0  0  0  0  0  0  0  0  0  0
   12.4945   16.5957   22.7355 O   0  0  0  0  0  0  0  0  0  0  0  0
   12.2890   12.0422   20.3477 H   0  0  0  0  0  0  0  0  0  0  0  0
   10.4566   10.9421   21.5803 H   0  0  0  0  0  0  0  0  0  0  0  0
   13.2421   14.1707   21.1636 H   0  0  0  0  0  0  0  0  0  0  0  0
    5.9816   13.2716   26.3814 H   0  0  0  0  0  0  0  0  0  0  0  0
    8.4467   13.6640   24.6196 H   0  0  0  0  0  0  0  0  0  0  0  0
   10.5110   14.1217   24.4899 H   0  0  0  0  0  0  0  0  0  0  0  0
    9.8439    9.8207   23.2658 H   0  0  0  0  0  0  0  0  0  0  0  0
    4.7441   10.9517   27.0797 H   0  0  0  0  0  0  0  0  0  0  0  0
   14.1842   15.2974   24.7396 H   0  0  0  0  0  0  0  0  0  0  0  0
   12.6119   14.8510   25.4336 H   0  0  0  0  0  0  0  0  0  0  0  0
   13.0588   16.5239   25.2303 H   0  0  0  0  0  0  0  0  0  0  0  0
    6.0119    9.0831   25.9953 H   0  0  0  0  0  0  0  0  0  0  0  0
  1  2  1  0  0  0  0
  1  3  2  0  0  0  0
  2 10  2  0  0  0  0
  3 12  1  0  0  0  0
  4  8  2  0  0  0  0
  4  9  1  0  0  0  0
  5  9  1  0  0  0  0
  5 11  2  0  0  0  0
  6 10  1  0  0  0  0
  6 12  2  0  0  0  0
  7 11  1  0  0  0  0
  7 16  2  0  0  0  0
  8 17  1  0  0  0  0
  9 13  2  0  0  0  0
 10 11  1  0  0  0  0
 12 14  1  0  0  0  0
 13 16  1  0  0  0  0
 13 17  1  0  0  0  0
 14 15  1  0  0  0  0
 14 18  2  0  0  0  0
  1 19  1  0  0  0  0
  2 20  1  0  0  0  0
  3 21  1  0  0  0  0
  4 22  1  0  0  0  0
  5 23  1  0  0  0  0
  6 24  1  0  0  0  0
  7 25  1  0  0  0  0
  8 26  1  0  0  0  0
 15 27  1  0  0  0  0
 15 28  1  0  0  0  0
 15 29  1  0  0  0  0
 17 30  1  0  0  0  0
M  END
> <idnumber>
Z3481543870

> <heavy_atoms>
18

> <LogS>
-4.787

> <LogP>
2.581

> <rotating_bonds>
2

> <PSA>
45.75

> <hb_acceptors>
2

> <hb_donors>
1

> <Collection>
Advanced

> <link>
https://www.enaminestore.com/catalog/Z3481543870

> <ROCS_ShapeQuery>
_x1140_x0812_0A_x1140_0A_x1097_0A_x0365_0A_x1097_0A_x0310_0A

> <ROCS_TanimotoCombo>
0.631 

> <ROCS_ShapeTanimoto>
0.260 

> <ROCS_ColorTanimoto>
0.371 

> <ROCS_RefTversky>
0.233 

> <ROCS_RefColorTversky>
0.480 

> <ROCS_RefTverskyCombo>
0.714 

> <ROCS_FitTversky>
1.794 

> <ROCS_FitColorTversky>
0.620 

> <ROCS_FitTverskyCombo>
2.414 

> <ROCS_ColorScore>
-3.794

> <ROCS_Overlap>
2395.301

> <ROCS_Rank>
326                 

$$$$
untitled-dbase-1091388_5
  -OEChem-02092421083D

 27 28  0     0  0  0  0  0  0999 V2000
   12.1577   15.5314   22.5332 C   0  0  0  0  0  0  0  0  0  0  0  0
    8.2304   12.5523   24.1999 C   0  0  0  0  0  0  0  0  0  0  0  0
    7.2457   11.9583   24.9815 C   0  0  0  0  0  0  0  0  0  0  0  0
   10.6917   13.6415   23.0454 C   0  0  0  0  0  0  0  0  0  0  0  0
   12.2418   13.4836   21.1990 C   0  0  0  0  0  0  0  0  0  0  0  0
   10.7874   11.6254   21.7175 C   0  0  0  0  0  0  0  0  0  0  0  0
    9.1416   10.3924   23.7985 C   0  0  0  0  0  0  0  0  0  0  0  0
   11.6932   14.2083   22.2571 C   0  0  0  0  0  0  0  0  0  0  0  0
    9.2001   11.7615   23.5936 C   0  0  0  0  0  0  0  0  0  0  0  0
   10.2389   12.3500   22.7757 C   0  0  0  0  0  0  0  0  0  0  0  0
   11.7889   12.1922   20.9292 C   0  0  0  0  0  0  0  0  0  0  0  0
    7.2746   10.5804   25.1241 C   0  0  0  0  0  0  0  0  0  0  0  0
    5.2496   10.7554   26.5713 C   0  0  0  0  0  0  0  0  0  0  0  0
   12.5348   16.6058   22.7575 N   0  0  0  0  0  0  0  0  0  0  0  0
    8.2005    9.7793   24.5508 N   0  0  0  0  0  0  0  0  0  0  0  0
    6.2652    9.9902   25.9247 N   0  0  0  0  0  0  0  0  0  0  0  0
   12.4659   11.2978   19.6237 Cl  0  0  0  0  0  0  0  0  0  0  0  0
    8.2298   13.6321   24.0735 H   0  0  0  0  0  0  0  0  0  0  0  0
    6.4842   12.5674   25.4571 H   0  0  0  0  0  0  0  0  0  0  0  0
   10.2640   14.2074   23.8716 H   0  0  0  0  0  0  0  0  0  0  0  0
   13.0236   13.9249   20.5835 H   0  0  0  0  0  0  0  0  0  0  0  0
   10.4349   10.6174   21.5066 H   0  0  0  0  0  0  0  0  0  0  0  0
    9.8698    9.7201   23.3536 H   0  0  0  0  0  0  0  0  0  0  0  0
    5.3912   11.8218   26.3418 H   0  0  0  0  0  0  0  0  0  0  0  0
    4.2618   10.4312   26.2119 H   0  0  0  0  0  0  0  0  0  0  0  0
    5.3123   10.6030   27.6589 H   0  0  0  0  0  0  0  0  0  0  0  0
    6.2948    8.9958   26.0214 H   0  0  0  0  0  0  0  0  0  0  0  0
  1  8  1  0  0  0  0
  1 14  3  0  0  0  0
  2  3  2  0  0  0  0
  2  9  1  0  0  0  0
  3 12  1  0  0  0  0
  4  8  1  0  0  0  0
  4 10  2  0  0  0  0
  5  8  2  0  0  0  0
  5 11  1  0  0  0  0
  6 10  1  0  0  0  0
  6 11  2  0  0  0  0
  7  9  2  0  0  0  0
  7 15  1  0  0  0  0
  9 10  1  0  0  0  0
 11 17  1  0  0  0  0
 12 15  2  0  0  0  0
 12 16  1  0  0  0  0
 13 16  1  0  0  0  0
  2 18  1  0  0  0  0
  3 19  1  0  0  0  0
  4 20  1  0  0  0  0
  5 21  1  0  0  0  0
  6 22  1  0  0  0  0
  7 23  1  0  0  0  0
 13 24  1  0  0  0  0
 13 25  1  0  0  0  0
 13 26  1  0  0  0  0
 16 27  1  0  0  0  0
M  END
> <idnumber>
Z4502340367

> <heavy_atoms>
17

> <LogS>
-4.083

> <LogP>
3.22

> <rotating_bonds>
2

> <PSA>
48.71

> <hb_acceptors>
3

> <hb_donors>
1

> <Collection>
Advanced

> <link>
https://www.enaminestore.com/catalog/Z4502340367

> <ROCS_ShapeQuery>
_x1140_x0812_0A_x1140_0A_x1097_0A_x0365_0A_x1097_0A_x0310_0A

> <ROCS_TanimotoCombo>
0.631 

> <ROCS_ShapeTanimoto>
0.236 

> <ROCS_ColorTanimoto>
0.395 

> <ROCS_RefTversky>
0.214 

> <ROCS_RefColorTversky>
0.469 

> <ROCS_RefTverskyCombo>
0.683 

> <ROCS_FitTversky>
1.751 

> <ROCS_FitColorTversky>
0.715 

> <ROCS_FitTverskyCombo>
2.466 

> <ROCS_ColorScore>
-3.684

> <ROCS_Overlap>
2196.644

> <ROCS_Rank>
327                 

$$$$
untitled-dbase-58018_10
  -OEChem-02092421083D

 30 31  0     0  0  0  0  0  0999 V2000
    8.4327   12.4896   24.1985 C   0  0  0  0  0  0  0  0  0  0  0  0
    9.3344   11.6675   23.5540 C   0  0  0  0  0  0  0  0  0  0  0  0
    9.1564   10.3137   23.7533 C   0  0  0  0  0  0  0  0  0  0  0  0
    7.3619   10.6961   25.0952 C   0  0  0  0  0  0  0  0  0  0  0  0
   12.4287   15.0628   21.8978 C   0  0  0  0  0  0  0  0  0  0  0  0
   12.4692   13.7268   21.1605 C   0  0  0  0  0  0  0  0  0  0  0  0
   11.4048   15.0579   23.0298 C   0  0  0  0  0  0  0  0  0  0  0  0
   12.6925   12.5595   22.1229 C   0  0  0  0  0  0  0  0  0  0  0  0
   11.6309   13.8875   23.9880 C   0  0  0  0  0  0  0  0  0  0  0  0
   11.6751   12.5314   23.2713 C   0  0  0  0  0  0  0  0  0  0  0  0
    7.4305   12.0360   24.9797 N   0  0  0  0  0  0  0  0  0  0  0  0
    8.1772    9.7913   24.5205 N   0  0  0  0  0  0  0  0  0  0  0  0
   10.3465   12.1831   22.7630 N   0  0  0  0  0  0  0  0  0  0  0  0
   10.0038    9.4177   23.1556 O   0  0  0  0  0  0  0  0  0  0  0  0
    6.3504   10.1987   25.8838 O   0  0  0  0  0  0  0  0  0  0  0  0
    8.4848   13.5701   24.1066 H   0  0  0  0  0  0  0  0  0  0  0  0
   13.4231   15.2917   22.3002 H   0  0  0  0  0  0  0  0  0  0  0  0
   12.1815   15.8625   21.1873 H   0  0  0  0  0  0  0  0  0  0  0  0
   11.5316   13.5782   20.6139 H   0  0  0  0  0  0  0  0  0  0  0  0
   13.2748   13.7442   20.4167 H   0  0  0  0  0  0  0  0  0  0  0  0
   11.4692   16.0011   23.5855 H   0  0  0  0  0  0  0  0  0  0  0  0
   10.3940   15.0015   22.6115 H   0  0  0  0  0  0  0  0  0  0  0  0
   12.6416   11.6160   21.5519 H   0  0  0  0  0  0  0  0  0  0  0  0
   13.7158   12.6189   22.5300 H   0  0  0  0  0  0  0  0  0  0  0  0
   12.5714   14.0513   24.5400 H   0  0  0  0  0  0  0  0  0  0  0  0
   10.8261   13.8866   24.7436 H   0  0  0  0  0  0  0  0  0  0  0  0
   11.9766   11.7564   23.9917 H   0  0  0  0  0  0  0  0  0  0  0  0
   10.1616   12.3301   21.7784 H   0  0  0  0  0  0  0  0  0  0  0  0
    9.7467    8.5160   23.3931 H   0  0  0  0  0  0  0  0  0  0  0  0
    6.3959    9.2343   25.8952 H   0  0  0  0  0  0  0  0  0  0  0  0
  1  2  1  0  0  0  0
  1 11  2  0  0  0  0
  2  3  2  0  0  0  0
  2 13  1  0  0  0  0
  3 12  1  0  0  0  0
  3 14  1  0  0  0  0
  4 11  1  0  0  0  0
  4 12  2  0  0  0  0
  4 15  1  0  0  0  0
  5  6  1  0  0  0  0
  5  7  1  0  0  0  0
  6  8  1  0  0  0  0
  7  9  1  0  0  0  0
  8 10  1  0  0  0  0
  9 10  1  0  0  0  0
 10 13  1  0  0  0  0
  1 16  1  0  0  0  0
  5 17  1  0  0  0  0
  5 18  1  0  0  0  0
  6 19  1  0  0  0  0
  6 20  1  0  0  0  0
  7 21  1  0  0  0  0
  7 22  1  0  0  0  0
  8 23  1  0  0  0  0
  8 24  1  0  0  0  0
  9 25  1  0  0  0  0
  9 26  1  0  0  0  0
 10 27  1  0  0  0  0
 13 28  1  0  0  0  0
 14 29  1  0  0  0  0
 15 30  1  0  0  0  0
M  END
> <idnumber>
Z641237668

> <heavy_atoms>
15

> <LogS>
-2.101

> <LogP>
3.772

> <rotating_bonds>
2

> <PSA>
78.27

> <hb_acceptors>
5

> <hb_donors>
3

> <Collection>
HTS

> <link>
https://www.enaminestore.com/catalog/Z641237668

> <ROCS_ShapeQuery>
_x1140_x0812_0A_x1140_0A_x1097_0A_x0365_0A_x1097_0A_x0310_0A

> <ROCS_TanimotoCombo>
0.631 

> <ROCS_ShapeTanimoto>
0.247 

> <ROCS_ColorTanimoto>
0.384 

> <ROCS_RefTversky>
0.220 

> <ROCS_RefColorTversky>
0.587 

> <ROCS_RefTverskyCombo>
0.808 

> <ROCS_FitTversky>
1.938 

> <ROCS_FitColorTversky>
0.527 

> <ROCS_FitTverskyCombo>
2.465 

> <ROCS_ColorScore>
-4.730

> <ROCS_Overlap>
2260.524

> <ROCS_Rank>
328                 

$$$$
untitled-dbase-202680_1
  -OEChem-02092421083D

 18 18  0     0  0  0  0  0  0999 V2000
   11.8394   15.3640   22.3257 C   0  0  0  0  0  0  0  0  0  0  0  0
    9.2123   12.2930   24.8564 C   0  0  0  0  0  0  0  0  0  0  0  0
    8.6472   10.4139   23.5124 C   0  0  0  0  0  0  0  0  0  0  0  0
    9.2870   11.6370   23.6327 C   0  0  0  0  0  0  0  0  0  0  0  0
    8.5100   11.7140   25.9075 C   0  0  0  0  0  0  0  0  0  0  0  0
    7.9048   10.4876   25.6853 C   0  0  0  0  0  0  0  0  0  0  0  0
   10.0137   12.2154   22.5160 C   0  0  0  0  0  0  0  0  0  0  0  0
   11.3122   14.0952   21.8236 C   0  0  0  0  0  0  0  0  0  0  0  0
   12.2579   16.3706   22.7230 N   0  0  0  0  0  0  0  0  0  0  0  0
    7.9555    9.8202   24.5107 N   0  0  0  0  0  0  0  0  0  0  0  0
   10.1215   11.6880   21.3998 O   0  0  0  0  0  0  0  0  0  0  0  0
   10.5687   13.4226   22.8455 O   0  0  0  0  0  0  0  0  0  0  0  0
    8.4265   12.5420   27.4146 Cl  0  0  0  0  0  0  0  0  0  0  0  0
    7.0028    9.6529   26.8924 Cl  0  0  0  0  0  0  0  0  0  0  0  0
    9.7029   13.2552   24.9844 H   0  0  0  0  0  0  0  0  0  0  0  0
    8.6695    9.8539   22.5822 H   0  0  0  0  0  0  0  0  0  0  0  0
   10.6408   14.2655   20.9770 H   0  0  0  0  0  0  0  0  0  0  0  0
   12.1175   13.4347   21.4884 H   0  0  0  0  0  0  0  0  0  0  0  0
  1  8  1  0  0  0  0
  1  9  3  0  0  0  0
  2  4  2  0  0  0  0
  2  5  1  0  0  0  0
  3  4  1  0  0  0  0
  3 10  2  0  0  0  0
  4  7  1  0  0  0  0
  5  6  2  0  0  0  0
  5 13  1  0  0  0  0
  6 10  1  0  0  0  0
  6 14  1  0  0  0  0
  7 11  2  0  0  0  0
  7 12  1  0  0  0  0
  8 12  1  0  0  0  0
  2 15  1  0  0  0  0
  3 16  1  0  0  0  0
  8 17  1  0  0  0  0
  8 18  1  0  0  0  0
M  END
> <idnumber>
Z18518522

> <heavy_atoms>
14

> <LogS>
-3.237

> <LogP>
1.096

> <rotating_bonds>
3

> <PSA>
62.98

> <hb_acceptors>
3

> <hb_donors>
0

> <Collection>
Functional

> <link>
https://www.enaminestore.com/catalog/Z18518522

> <ROCS_ShapeQuery>
_x1140_x0812_0A_x1140_0A_x1097_0A_x0365_0A_x1097_0A_x0310_0A

> <ROCS_TanimotoCombo>
0.631 

> <ROCS_ShapeTanimoto>
0.193 

> <ROCS_ColorTanimoto>
0.438 

> <ROCS_RefTversky>
0.179 

> <ROCS_RefColorTversky>
0.469 

> <ROCS_RefTverskyCombo>
0.648 

> <ROCS_FitTversky>
1.662 

> <ROCS_FitColorTversky>
0.871 

> <ROCS_FitTverskyCombo>
2.533 

> <ROCS_ColorScore>
-3.658

> <ROCS_Overlap>
1834.629

> <ROCS_Rank>
329                 

$$$$
untitled-dbase-1044884_8
  -OEChem-02092421083D

 35 37  0     1  0  0  0  0  0999 V2000
    6.4761   12.2088   26.4042 C   0  0  0  0  0  0  0  0  0  0  0  0
    8.9412   10.4285   23.6624 C   0  0  0  0  0  0  0  0  0  0  0  0
    5.8158   11.0580   26.7775 C   0  0  0  0  0  0  0  0  0  0  0  0
    7.4316   11.8538   25.4156 C   0  0  0  0  0  0  0  0  0  0  0  0
    8.3920   12.5378   24.6529 C   0  0  0  0  0  0  0  0  0  0  0  0
    9.1602   11.7963   23.7571 C   0  0  0  0  0  0  0  0  0  0  0  0
    7.3177   10.4805   25.2197 C   0  0  0  0  0  0  0  0  0  0  0  0
   10.5827   12.0152   21.6812 C   0  0  0  0  0  0  0  0  0  0  0  0
   12.9128   14.9246   21.0812 C   0  0  0  0  0  0  0  0  0  0  0  0
   10.9874   15.1187   22.0056 C   0  0  0  0  0  0  0  0  0  0  0  0
   12.0646   14.0166   21.9930 C   0  0  1  0  0  0  0  0  0  0  0  0
   12.0990   16.1249   21.6220 C   0  0  1  0  0  0  0  0  0  0  0  0
    8.5998   14.0134   24.7836 C   0  0  0  0  0  0  0  0  0  0  0  0
    8.0324    9.7184   24.3704 N   0  0  0  0  0  0  0  0  0  0  0  0
    6.3345   10.0161   26.0532 N   0  0  0  0  0  0  0  0  0  0  0  0
   10.1369   12.3982   22.9620 N   0  0  0  0  0  0  0  0  0  0  0  0
   11.5796   12.8814   21.2209 N   0  0  0  0  0  0  0  0  0  0  0  0
   10.1726   11.0572   21.0303 O   0  0  0  0  0  0  0  0  0  0  0  0
   12.6935   16.8683   22.7045 O   0  0  0  0  0  0  0  0  0  0  0  0
    6.2860   13.1956   26.8035 H   0  0  0  0  0  0  0  0  0  0  0  0
    9.5259    9.8250   22.9716 H   0  0  0  0  0  0  0  0  0  0  0  0
    5.0232   10.8885   27.4922 H   0  0  0  0  0  0  0  0  0  0  0  0
   13.9830   14.9379   21.3067 H   0  0  0  0  0  0  0  0  0  0  0  0
   12.7809   14.7588   20.0055 H   0  0  0  0  0  0  0  0  0  0  0  0
   10.2086   15.0185   21.2404 H   0  0  0  0  0  0  0  0  0  0  0  0
   10.5089   15.2877   22.9745 H   0  0  0  0  0  0  0  0  0  0  0  0
   12.4782   13.7576   22.9097 H   0  0  0  0  0  0  0  0  0  0  0  0
   11.7908   16.8258   20.8279 H   0  0  0  0  0  0  0  0  0  0  0  0
    9.3524   14.2221   25.5515 H   0  0  0  0  0  0  0  0  0  0  0  0
    8.9346   14.4496   23.8354 H   0  0  0  0  0  0  0  0  0  0  0  0
    7.6671   14.5197   25.0585 H   0  0  0  0  0  0  0  0  0  0  0  0
    6.0372    9.0528   26.1222 H   0  0  0  0  0  0  0  0  0  0  0  0
   10.5973   13.2287   23.3484 H   0  0  0  0  0  0  0  0  0  0  0  0
   11.9841   12.7107   20.3056 H   0  0  0  0  0  0  0  0  0  0  0  0
   12.0643   17.5695   22.9157 H   0  0  0  0  0  0  0  0  0  0  0  0
  1  3  2  0  0  0  0
  1  4  1  0  0  0  0
  2  6  2  0  0  0  0
  2 14  1  0  0  0  0
  3 15  1  0  0  0  0
  4  5  2  0  0  0  0
  4  7  1  0  0  0  0
  5  6  1  0  0  0  0
  5 13  1  0  0  0  0
  6 16  1  0  0  0  0
  7 14  2  0  0  0  0
  7 15  1  0  0  0  0
  8 16  1  0  0  0  0
  8 17  1  0  0  0  0
  8 18  2  0  0  0  0
  9 11  1  0  0  0  0
  9 12  1  0  0  0  0
 10 11  1  0  0  0  0
 10 12  1  0  0  0  0
 11 17  1  1  0  0  0
 12 19  1  6  0  0  0
  1 20  1  0  0  0  0
  2 21  1  0  0  0  0
  3 22  1  0  0  0  0
  9 23  1  0  0  0  0
  9 24  1  0  0  0  0
 10 25  1  0  0  0  0
 10 26  1  0  0  0  0
 11 27  1  0  0  0  0
 12 28  1  0  0  0  0
 13 29  1  0  0  0  0
 13 30  1  0  0  0  0
 13 31  1  0  0  0  0
 15 32  1  0  0  0  0
 16 33  1  0  0  0  0
 17 34  1  0  0  0  0
 19 35  1  0  0  0  0
M  END
> <idnumber>
Z3602533920

> <heavy_atoms>
19

> <LogS>
-3.107

> <LogP>
1.155

> <rotating_bonds>
2

> <PSA>
90.04

> <hb_acceptors>
3

> <hb_donors>
4

> <Collection>
Advanced

> <link>
https://www.enaminestore.com/catalog/Z3602533920

> <ROCS_ShapeQuery>
_x1140_x0812_0A_x1140_0A_x1097_0A_x0365_0A_x1097_0A_x0310_0A

> <ROCS_TanimotoCombo>
0.631 

> <ROCS_ShapeTanimoto>
0.260 

> <ROCS_ColorTanimoto>
0.371 

> <ROCS_RefTversky>
0.234 

> <ROCS_RefColorTversky>
0.602 

> <ROCS_RefTverskyCombo>
0.836 

> <ROCS_FitTversky>
1.763 

> <ROCS_FitColorTversky>
0.491 

> <ROCS_FitTverskyCombo>
2.254 

> <ROCS_ColorScore>
-4.879

> <ROCS_Overlap>
2400.865

> <ROCS_Rank>
330                 

$$$$
untitled-dbase-895860_9
  -OEChem-02092421083D

 39 41  0     1  0  0  0  0  0999 V2000
    8.2706   12.4486   23.8356 C   0  0  0  0  0  0  0  0  0  0  0  0
    7.3917   12.0214   24.8387 C   0  0  0  0  0  0  0  0  0  0  0  0
    9.0942   11.4839   23.2551 C   0  0  0  0  0  0  0  0  0  0  0  0
    6.4133   12.5842   25.6821 C   0  0  0  0  0  0  0  0  0  0  0  0
    7.4018   10.6786   25.1824 C   0  0  0  0  0  0  0  0  0  0  0  0
    9.0021   10.1676   23.6952 C   0  0  0  0  0  0  0  0  0  0  0  0
   10.0448   11.8859   22.1865 C   0  0  0  0  0  0  0  0  0  0  0  0
   11.1482   16.0004   22.3958 C   0  0  0  0  0  0  0  0  0  0  0  0
   13.6290   14.4866   20.7211 C   0  0  0  0  0  0  0  0  0  0  0  0
   12.6685   15.6601   20.4994 C   0  0  0  0  0  0  0  0  0  0  0  0
   12.9014   13.5186   21.6431 C   0  0  0  0  0  0  0  0  0  0  0  0
   11.3212   15.2381   21.0896 C   0  0  1  0  0  0  0  0  0  0  0  0
   11.4365   13.7299   21.2836 C   0  0  2  0  0  0  0  0  0  0  0  0
    5.9823   13.9918   25.7481 C   0  0  0  0  0  0  0  0  0  0  0  0
    5.8477   11.6836   26.4926 N   0  0  0  0  0  0  0  0  0  0  0  0
    8.1700    9.7066   24.6602 N   0  0  0  0  0  0  0  0  0  0  0  0
    6.4684   10.5355   26.1661 N   0  0  0  0  0  0  0  0  0  0  0  0
    9.8362   16.2492   22.7231 N   0  0  0  0  0  0  0  0  0  0  0  0
   10.5310   13.1874   22.2552 N   0  0  0  0  0  0  0  0  0  0  0  0
   10.3330   11.0800   21.3056 O   0  0  0  0  0  0  0  0  0  0  0  0
   12.1065   16.3374   23.0868 O   0  0  0  0  0  0  0  0  0  0  0  0
    9.8170    9.2224   23.1185 O   0  0  0  0  0  0  0  0  0  0  0  0
    8.3069   13.4879   23.5247 H   0  0  0  0  0  0  0  0  0  0  0  0
   13.8420   14.0011   19.7613 H   0  0  0  0  0  0  0  0  0  0  0  0
   14.5843   14.8123   21.1442 H   0  0  0  0  0  0  0  0  0  0  0  0
   13.0615   16.5749   20.9573 H   0  0  0  0  0  0  0  0  0  0  0  0
   12.5729   15.8536   19.4246 H   0  0  0  0  0  0  0  0  0  0  0  0
   13.2272   12.4851   21.4897 H   0  0  0  0  0  0  0  0  0  0  0  0
   13.0956   13.7853   22.6893 H   0  0  0  0  0  0  0  0  0  0  0  0
   10.4971   15.5177   20.4466 H   0  0  0  0  0  0  0  0  0  0  0  0
   11.2190   13.2254   20.3350 H   0  0  0  0  0  0  0  0  0  0  0  0
    5.1457   14.1866   25.0558 H   0  0  0  0  0  0  0  0  0  0  0  0
    5.6497   14.2783   26.7614 H   0  0  0  0  0  0  0  0  0  0  0  0
    6.7983   14.6895   25.4890 H   0  0  0  0  0  0  0  0  0  0  0  0
    6.2040    9.6895   26.6552 H   0  0  0  0  0  0  0  0  0  0  0  0
    9.1077   15.9212   22.0976 H   0  0  0  0  0  0  0  0  0  0  0  0
    9.5672   16.7478   23.5651 H   0  0  0  0  0  0  0  0  0  0  0  0
   10.1923   13.8132   22.9850 H   0  0  0  0  0  0  0  0  0  0  0  0
   10.3711    9.6406   22.4469 H   0  0  0  0  0  0  0  0  0  0  0  0
  1  2  1  0  0  0  0
  1  3  2  0  0  0  0
  2  4  1  0  0  0  0
  2  5  2  0  0  0  0
  3  6  1  0  0  0  0
  3  7  1  0  0  0  0
  4 14  1  0  0  0  0
  4 15  2  0  0  0  0
  5 16  1  0  0  0  0
  5 17  1  0  0  0  0
  6 16  2  0  0  0  0
  6 22  1  0  0  0  0
  7 19  1  0  0  0  0
  7 20  2  0  0  0  0
  8 12  1  6  0  0  0
  8 18  1  0  0  0  0
  8 21  2  0  0  0  0
  9 10  1  0  0  0  0
  9 11  1  0  0  0  0
 10 12  1  0  0  0  0
 11 13  1  0  0  0  0
 12 13  1  0  0  0  0
 13 19  1  6  0  0  0
 15 17  1  0  0  0  0
  1 23  1  0  0  0  0
  9 24  1  0  0  0  0
  9 25  1  0  0  0  0
 10 26  1  0  0  0  0
 10 27  1  0  0  0  0
 11 28  1  0  0  0  0
 11 29  1  0  0  0  0
 12 30  1  0  0  0  0
 13 31  1  0  0  0  0
 14 32  1  0  0  0  0
 14 33  1  0  0  0  0
 14 34  1  0  0  0  0
 17 35  1  0  0  0  0
 18 36  1  0  0  0  0
 18 37  1  0  0  0  0
 19 38  1  0  0  0  0
 22 39  1  0  0  0  0
M  END
> <idnumber>
Z2373574000

> <heavy_atoms>
22

> <LogS>
-3.274

> <LogP>
1.931

> <rotating_bonds>
3

> <PSA>
133.99

> <hb_acceptors>
5

> <hb_donors>
4

> <Collection>
Advanced

> <link>
https://www.enaminestore.com/catalog/Z2373574000

> <ROCS_ShapeQuery>
_x1140_x0812_0A_x1140_0A_x1097_0A_x0365_0A_x1097_0A_x0310_0A

> <ROCS_TanimotoCombo>
0.631 

> <ROCS_ShapeTanimoto>
0.280 

> <ROCS_ColorTanimoto>
0.352 

> <ROCS_RefTversky>
0.250 

> <ROCS_RefColorTversky>
0.635 

> <ROCS_RefTverskyCombo>
0.886 

> <ROCS_FitTversky>
1.713 

> <ROCS_FitColorTversky>
0.441 

> <ROCS_FitTverskyCombo>
2.154 

> <ROCS_ColorScore>
-5.211

> <ROCS_Overlap>
2571.692

> <ROCS_Rank>
331                 

$$$$
untitled-dbase-296471_28
  -OEChem-02092421083D

 32 34  0     0  0  0  0  0  0999 V2000
    8.9286   15.3184   20.2405 C   0  0  0  0  0  0  0  0  0  0  0  0
    9.5207   16.5764   20.2276 C   0  0  0  0  0  0  0  0  0  0  0  0
    9.4209   14.3368   21.0949 C   0  0  0  0  0  0  0  0  0  0  0  0
   10.6032   16.8503   21.0687 C   0  0  0  0  0  0  0  0  0  0  0  0
    8.7767   12.6040   24.5914 C   0  0  0  0  0  0  0  0  0  0  0  0
    7.7631   12.0299   25.3506 C   0  0  0  0  0  0  0  0  0  0  0  0
    9.0931   10.5039   23.5208 C   0  0  0  0  0  0  0  0  0  0  0  0
   12.5890   15.1763   23.5406 C   0  0  0  0  0  0  0  0  0  0  0  0
   10.5098   14.6201   21.9376 C   0  0  0  0  0  0  0  0  0  0  0  0
   11.1162   15.8868   21.9337 C   0  0  0  0  0  0  0  0  0  0  0  0
    9.4593   11.8332   23.6569 C   0  0  0  0  0  0  0  0  0  0  0  0
    7.4727   10.6918   25.1385 C   0  0  0  0  0  0  0  0  0  0  0  0
   11.0498   13.6840   22.8151 C   0  0  0  0  0  0  0  0  0  0  0  0
    5.3299   10.8794   26.4031 C   0  0  0  0  0  0  0  0  0  0  0  0
    8.1139    9.9112   24.2401 N   0  0  0  0  0  0  0  0  0  0  0  0
   12.1579   16.1686   22.7357 N   0  0  0  0  0  0  0  0  0  0  0  0
   12.0915   13.9324   23.6309 N   0  0  0  0  0  0  0  0  0  0  0  0
   10.4879   12.3844   22.8765 N   0  0  0  0  0  0  0  0  0  0  0  0
    6.4380   10.1213   25.9213 N   0  0  0  0  0  0  0  0  0  0  0  0
    8.0882   15.1031   19.5878 H   0  0  0  0  0  0  0  0  0  0  0  0
    9.1435   17.3488   19.5639 H   0  0  0  0  0  0  0  0  0  0  0  0
    8.9409   13.3616   21.0872 H   0  0  0  0  0  0  0  0  0  0  0  0
   11.0491   17.8428   21.0380 H   0  0  0  0  0  0  0  0  0  0  0  0
    9.0266   13.6518   24.7353 H   0  0  0  0  0  0  0  0  0  0  0  0
    7.2256   12.6239   26.0825 H   0  0  0  0  0  0  0  0  0  0  0  0
    9.5893    9.8520   22.8081 H   0  0  0  0  0  0  0  0  0  0  0  0
   13.4285   15.4098   24.1841 H   0  0  0  0  0  0  0  0  0  0  0  0
    5.4267   11.9234   26.0702 H   0  0  0  0  0  0  0  0  0  0  0  0
    4.3954   10.4540   26.0085 H   0  0  0  0  0  0  0  0  0  0  0  0
    5.3128   10.8454   27.5024 H   0  0  0  0  0  0  0  0  0  0  0  0
   10.9153   11.7326   22.2294 H   0  0  0  0  0  0  0  0  0  0  0  0
    6.5183    9.1466   26.1273 H   0  0  0  0  0  0  0  0  0  0  0  0
  1  2  1  0  0  0  0
  1  3  2  0  0  0  0
  2  4  2  0  0  0  0
  3  9  1  0  0  0  0
  4 10  1  0  0  0  0
  5  6  2  0  0  0  0
  5 11  1  0  0  0  0
  6 12  1  0  0  0  0
  7 11  2  0  0  0  0
  7 15  1  0  0  0  0
  8 16  1  0  0  0  0
  8 17  2  0  0  0  0
  9 10  1  0  0  0  0
  9 13  2  0  0  0  0
 10 16  2  0  0  0  0
 11 18  1  0  0  0  0
 12 15  2  0  0  0  0
 12 19  1  0  0  0  0
 13 17  1  0  0  0  0
 13 18  1  0  0  0  0
 14 19  1  0  0  0  0
  1 20  1  0  0  0  0
  2 21  1  0  0  0  0
  3 22  1  0  0  0  0
  4 23  1  0  0  0  0
  5 24  1  0  0  0  0
  6 25  1  0  0  0  0
  7 26  1  0  0  0  0
  8 27  1  0  0  0  0
 14 28  1  0  0  0  0
 14 29  1  0  0  0  0
 14 30  1  0  0  0  0
 18 31  1  0  0  0  0
 19 32  1  0  0  0  0
M  END
> <idnumber>
Z729056160

> <heavy_atoms>
19

> <LogS>
-3.55

> <LogP>
2.955

> <rotating_bonds>
3

> <PSA>
62.73

> <hb_acceptors>
5

> <hb_donors>
2

> <Collection>
HTS

> <link>
https://www.enaminestore.com/catalog/Z729056160

> <ROCS_ShapeQuery>
_x1140_x0812_0A_x1140_0A_x1097_0A_x0365_0A_x1097_0A_x0310_0A

> <ROCS_TanimotoCombo>
0.631 

> <ROCS_ShapeTanimoto>
0.233 

> <ROCS_ColorTanimoto>
0.398 

> <ROCS_RefTversky>
0.214 

> <ROCS_RefColorTversky>
0.570 

> <ROCS_RefTverskyCombo>
0.784 

> <ROCS_FitTversky>
1.596 

> <ROCS_FitColorTversky>
0.569 

> <ROCS_FitTverskyCombo>
2.165 

> <ROCS_ColorScore>
-4.561

> <ROCS_Overlap>
2198.529

> <ROCS_Rank>
332                 

$$$$
untitled-dbase-6282_1
  -OEChem-02092421083D

 21 21  0     0  0  0  0  0  0999 V2000
    7.6144   12.1874   25.0112 C   0  0  0  0  0  0  0  0  0  0  0  0
    8.5537   12.5995   24.0725 C   0  0  0  0  0  0  0  0  0  0  0  0
    7.5033   10.8298   25.2647 C   0  0  0  0  0  0  0  0  0  0  0  0
    9.3421   11.6547   23.4251 C   0  0  0  0  0  0  0  0  0  0  0  0
    9.1537   10.3209   23.7496 C   0  0  0  0  0  0  0  0  0  0  0  0
    8.6809    7.3628   22.6230 C   0  0  0  0  0  0  0  0  0  0  0  0
    9.8369    7.9537   23.3559 C   0  0  0  0  0  0  0  0  0  0  0  0
    8.2514    9.8825   24.6559 N   0  0  0  0  0  0  0  0  0  0  0  0
   10.2935   12.0698   22.4746 N   0  0  0  0  0  0  0  0  0  0  0  0
    9.9527    9.3508   23.0936 N   0  0  0  0  0  0  0  0  0  0  0  0
    6.9890   12.9061   25.5283 H   0  0  0  0  0  0  0  0  0  0  0  0
    8.6621   13.6586   23.8544 H   0  0  0  0  0  0  0  0  0  0  0  0
    6.7858   10.4560   25.9877 H   0  0  0  0  0  0  0  0  0  0  0  0
    8.8174    7.5106   21.5416 H   0  0  0  0  0  0  0  0  0  0  0  0
    8.6202    6.2863   22.8411 H   0  0  0  0  0  0  0  0  0  0  0  0
    7.7518    7.8553   22.9459 H   0  0  0  0  0  0  0  0  0  0  0  0
    9.6929    7.8019   24.4358 H   0  0  0  0  0  0  0  0  0  0  0  0
   10.7608    7.4503   23.0348 H   0  0  0  0  0  0  0  0  0  0  0  0
   10.3608   13.0408   22.2391 H   0  0  0  0  0  0  0  0  0  0  0  0
   10.8243   11.3806   21.9785 H   0  0  0  0  0  0  0  0  0  0  0  0
   10.6144    9.6928   22.4275 H   0  0  0  0  0  0  0  0  0  0  0  0
  1  2  2  0  0  0  0
  1  3  1  0  0  0  0
  2  4  1  0  0  0  0
  3  8  2  0  0  0  0
  4  5  2  0  0  0  0
  4  9  1  0  0  0  0
  5  8  1  0  0  0  0
  5 10  1  0  0  0  0
  6  7  1  0  0  0  0
  7 10  1  0  0  0  0
  1 11  1  0  0  0  0
  2 12  1  0  0  0  0
  3 13  1  0  0  0  0
  6 14  1  0  0  0  0
  6 15  1  0  0  0  0
  6 16  1  0  0  0  0
  7 17  1  0  0  0  0
  7 18  1  0  0  0  0
  9 19  1  0  0  0  0
  9 20  1  0  0  0  0
 10 21  1  0  0  0  0
M  END
> <idnumber>
Z803145254

> <heavy_atoms>
12

> <LogS>
-1.98

> <LogP>
1.318

> <rotating_bonds>
2

> <PSA>
50.94

> <hb_acceptors>
3

> <hb_donors>
2

> <SaltType>
Cl

> <Collection>
Legacy

> <link>
https://www.enaminestore.com/catalog/Z803145254

> <ROCS_ShapeQuery>
_x1140_x0812_0A_x1140_0A_x1097_0A_x0365_0A_x1097_0A_x0310_0A

> <ROCS_TanimotoCombo>
0.631 

> <ROCS_ShapeTanimoto>
0.194 

> <ROCS_ColorTanimoto>
0.437 

> <ROCS_RefTversky>
0.177 

> <ROCS_RefColorTversky>
0.504 

> <ROCS_RefTverskyCombo>
0.681 

> <ROCS_FitTversky>
1.919 

> <ROCS_FitColorTversky>
0.768 

> <ROCS_FitTverskyCombo>
2.688 

> <ROCS_ColorScore>
-3.957

> <ROCS_Overlap>
1815.173

> <ROCS_Rank>
333                 

$$$$
untitled-dbase-172260_55
  -OEChem-02092421083D

 37 38  0     1  0  0  0  0  0999 V2000
    7.8838   12.1127   25.6515 C   0  0  0  0  0  0  0  0  0  0  0  0
    8.9206   12.5909   24.8451 C   0  0  0  0  0  0  0  0  0  0  0  0
    8.8500   10.5916   23.4687 C   0  0  0  0  0  0  0  0  0  0  0  0
    7.0337    8.8923   24.2545 C   0  0  0  0  0  0  0  0  0  0  0  0
    7.8039   10.0887   24.2676 C   0  0  0  0  0  0  0  0  0  0  0  0
    7.3459   10.8593   25.3384 C   0  0  0  0  0  0  0  0  0  0  0  0
    9.3978   11.8438   23.7700 C   0  0  0  0  0  0  0  0  0  0  0  0
    6.1399    8.9583   25.2984 C   0  0  0  0  0  0  0  0  0  0  0  0
   10.6808   12.1160   21.6197 C   0  0  0  0  0  0  0  0  0  0  0  0
    5.1122    8.0012   25.7482 C   0  0  0  0  0  0  0  0  0  0  0  0
   11.3232   15.0191   20.1270 C   0  0  0  0  0  0  0  0  0  0  0  0
   14.2228   15.3765   21.3128 C   0  0  0  0  0  0  0  0  0  0  0  0
   11.9175   12.8601   21.1542 C   0  0  0  0  0  0  0  0  0  0  0  0
    6.3356   10.1485   25.9461 N   0  0  0  0  0  0  0  0  0  0  0  0
   10.4341   12.3481   22.9824 N   0  0  0  0  0  0  0  0  0  0  0  0
   11.7454   14.2756   21.3610 N   0  0  1  0  0  0  0  0  0  0  0  0
   10.0108   11.4226   20.8611 O   0  0  0  0  0  0  0  0  0  0  0  0
   12.3191   16.4243   22.7618 O   0  0  0  0  0  0  0  0  0  0  0  0
   13.2822   14.2043   23.4491 O   0  0  0  0  0  0  0  0  0  0  0  0
   12.8454   15.1187   22.4109 S   0  0  0  0  0  0  0  0  0  0  0  0
    7.5129   12.6952   26.4881 H   0  0  0  0  0  0  0  0  0  0  0  0
    9.3535   13.5632   25.0715 H   0  0  0  0  0  0  0  0  0  0  0  0
    9.2230   10.0100   22.6294 H   0  0  0  0  0  0  0  0  0  0  0  0
    7.1251    8.0724   23.5547 H   0  0  0  0  0  0  0  0  0  0  0  0
    5.5228    7.2936   26.4878 H   0  0  0  0  0  0  0  0  0  0  0  0
    4.2488    8.5074   26.2140 H   0  0  0  0  0  0  0  0  0  0  0  0
    4.7016    7.4092   24.9116 H   0  0  0  0  0  0  0  0  0  0  0  0
   11.2127   16.0880   20.3620 H   0  0  0  0  0  0  0  0  0  0  0  0
   12.0856   14.8928   19.3441 H   0  0  0  0  0  0  0  0  0  0  0  0
   10.3618   14.6210   19.7701 H   0  0  0  0  0  0  0  0  0  0  0  0
   15.0034   15.9088   21.8586 H   0  0  0  0  0  0  0  0  0  0  0  0
   14.5850   14.4026   20.9802 H   0  0  0  0  0  0  0  0  0  0  0  0
   13.8793   15.9678   20.4627 H   0  0  0  0  0  0  0  0  0  0  0  0
   12.0889   12.6639   20.0911 H   0  0  0  0  0  0  0  0  0  0  0  0
   12.7822   12.5040   21.7229 H   0  0  0  0  0  0  0  0  0  0  0  0
    5.8165   10.4626   26.7546 H   0  0  0  0  0  0  0  0  0  0  0  0
   11.1025   12.9675   23.4544 H   0  0  0  0  0  0  0  0  0  0  0  0
  1  2  2  0  0  0  0
  1  6  1  0  0  0  0
  2  7  1  0  0  0  0
  3  5  1  0  0  0  0
  3  7  2  0  0  0  0
  4  5  1  0  0  0  0
  4  8  2  0  0  0  0
  5  6  2  0  0  0  0
  6 14  1  0  0  0  0
  7 15  1  0  0  0  0
  8 10  1  0  0  0  0
  8 14  1  0  0  0  0
  9 13  1  0  0  0  0
  9 15  1  0  0  0  0
  9 17  2  0  0  0  0
 11 16  1  0  0  0  0
 12 20  1  0  0  0  0
 13 16  1  0  0  0  0
 16 20  1  0  0  0  0
 18 20  2  0  0  0  0
 19 20  2  0  0  0  0
  1 21  1  0  0  0  0
  2 22  1  0  0  0  0
  3 23  1  0  0  0  0
  4 24  1  0  0  0  0
 10 25  1  0  0  0  0
 10 26  1  0  0  0  0
 10 27  1  0  0  0  0
 11 28  1  0  0  0  0
 11 29  1  0  0  0  0
 11 30  1  0  0  0  0
 12 31  1  0  0  0  0
 12 32  1  0  0  0  0
 12 33  1  0  0  0  0
 13 34  1  0  0  0  0
 13 35  1  0  0  0  0
 14 36  1  0  0  0  0
 15 37  1  0  0  0  0
M  END
> <idnumber>
Z366743126

> <heavy_atoms>
20

> <LogS>
-2.542

> <LogP>
1.258

> <rotating_bonds>
3

> <PSA>
82.27

> <hb_acceptors>
3

> <hb_donors>
2

> <Collection>
Legacy

> <link>
https://www.enaminestore.com/catalog/Z366743126

> <ROCS_ShapeQuery>
_x1140_x0812_0A_x1140_0A_x1097_0A_x0365_0A_x1097_0A_x0310_0A

> <ROCS_TanimotoCombo>
0.631 

> <ROCS_ShapeTanimoto>
0.224 

> <ROCS_ColorTanimoto>
0.407 

> <ROCS_RefTversky>
0.208 

> <ROCS_RefColorTversky>
0.546 

> <ROCS_RefTverskyCombo>
0.754 

> <ROCS_FitTversky>
1.559 

> <ROCS_FitColorTversky>
0.614 

> <ROCS_FitTverskyCombo>
2.173 

> <ROCS_ColorScore>
-4.343

> <ROCS_Overlap>
2131.084

> <ROCS_Rank>
334                 

$$$$
untitled-dbase-776843_176
  -OEChem-02092421083D

 32 33  0     0  0  0  0  0  0999 V2000
    8.8755   12.2862   25.0200 C   0  0  0  0  0  0  0  0  0  0  0  0
    9.7002   11.4755   24.2671 C   0  0  0  0  0  0  0  0  0  0  0  0
    9.2473   10.1881   24.0630 C   0  0  0  0  0  0  0  0  0  0  0  0
    7.3663   10.6048   25.2694 C   0  0  0  0  0  0  0  0  0  0  0  0
   13.4495   13.7288   18.9988 C   0  0  0  0  0  0  0  0  0  0  0  0
   12.2384   13.1968   19.2128 C   0  0  0  0  0  0  0  0  0  0  0  0
   12.0267   15.1351   20.5148 C   0  0  0  0  0  0  0  0  0  0  0  0
   10.1418   12.4545   21.4243 C   0  0  0  0  0  0  0  0  0  0  0  0
   11.7550   11.9129   18.6294 C   0  0  0  0  0  0  0  0  0  0  0  0
   11.0020   11.9807   23.7155 C   0  0  0  0  0  0  0  0  0  0  0  0
   10.0892   13.5694   20.4111 C   0  0  0  0  0  0  0  0  0  0  0  0
    7.6973   11.8821   25.5386 N   0  0  0  0  0  0  0  0  0  0  0  0
    8.0810    9.7174   24.5515 N   0  0  0  0  0  0  0  0  0  0  0  0
   11.4378   13.9619   20.0491 N   0  0  0  0  0  0  0  0  0  0  0  0
   10.8063   12.8489   22.5768 N   0  0  0  0  0  0  0  0  0  0  0  0
   11.5655   15.9900   21.2550 O   0  0  0  0  0  0  0  0  0  0  0  0
    9.6499   11.3453   21.2347 O   0  0  0  0  0  0  0  0  0  0  0  0
   10.0006    9.3098   23.3292 O   0  0  0  0  0  0  0  0  0  0  0  0
    6.1702   10.1592   25.7816 O   0  0  0  0  0  0  0  0  0  0  0  0
   13.6642   15.2306   19.8364 S   0  0  0  0  0  0  0  0  0  0  0  0
    9.1396   13.3165   25.2366 H   0  0  0  0  0  0  0  0  0  0  0  0
   14.2235   13.2961   18.3804 H   0  0  0  0  0  0  0  0  0  0  0  0
   12.0006   11.0855   19.2962 H   0  0  0  0  0  0  0  0  0  0  0  0
   12.2265   11.7431   17.6602 H   0  0  0  0  0  0  0  0  0  0  0  0
   10.6736   11.9512   18.4902 H   0  0  0  0  0  0  0  0  0  0  0  0
   11.5520   12.5431   24.4778 H   0  0  0  0  0  0  0  0  0  0  0  0
   11.6426   11.1513   23.3979 H   0  0  0  0  0  0  0  0  0  0  0  0
    9.5606   13.2289   19.5158 H   0  0  0  0  0  0  0  0  0  0  0  0
    9.5658   14.4314   20.8350 H   0  0  0  0  0  0  0  0  0  0  0  0
   11.1735   13.7950   22.6224 H   0  0  0  0  0  0  0  0  0  0  0  0
    9.5498    8.4554   23.2779 H   0  0  0  0  0  0  0  0  0  0  0  0
    5.7450   10.8727   26.2742 H   0  0  0  0  0  0  0  0  0  0  0  0
  1  2  1  0  0  0  0
  1 12  2  0  0  0  0
  2  3  2  0  0  0  0
  2 10  1  0  0  0  0
  3 13  1  0  0  0  0
  3 18  1  0  0  0  0
  4 12  1  0  0  0  0
  4 13  2  0  0  0  0
  4 19  1  0  0  0  0
  5  6  2  0  0  0  0
  5 20  1  0  0  0  0
  6  9  1  0  0  0  0
  6 14  1  0  0  0  0
  7 14  1  0  0  0  0
  7 16  2  0  0  0  0
  7 20  1  0  0  0  0
  8 11  1  0  0  0  0
  8 15  1  0  0  0  0
  8 17  2  0  0  0  0
 10 15  1  0  0  0  0
 11 14  1  0  0  0  0
  1 21  1  0  0  0  0
  5 22  1  0  0  0  0
  9 23  1  0  0  0  0
  9 24  1  0  0  0  0
  9 25  1  0  0  0  0
 10 26  1  0  0  0  0
 10 27  1  0  0  0  0
 11 28  1  0  0  0  0
 11 29  1  0  0  0  0
 15 30  1  0  0  0  0
 18 31  1  0  0  0  0
 19 32  1  0  0  0  0
M  END
> <idnumber>
Z1268301998

> <heavy_atoms>
20

> <LogS>
-1.507

> <LogP>
-0.626

> <rotating_bonds>
4

> <PSA>
115.65

> <hb_acceptors>
6

> <hb_donors>
3

> <Collection>
Advanced

> <link>
https://www.enaminestore.com/catalog/Z1268301998

> <ROCS_ShapeQuery>
_x1140_x0812_0A_x1140_0A_x1097_0A_x0365_0A_x1097_0A_x0310_0A

> <ROCS_TanimotoCombo>
0.631 

> <ROCS_ShapeTanimoto>
0.226 

> <ROCS_ColorTanimoto>
0.406 

> <ROCS_RefTversky>
0.209 

> <ROCS_RefColorTversky>
0.642 

> <ROCS_RefTverskyCombo>
0.851 

> <ROCS_FitTversky>
1.551 

> <ROCS_FitColorTversky>
0.524 

> <ROCS_FitTverskyCombo>
2.075 

> <ROCS_ColorScore>
-5.203

> <ROCS_Overlap>
2143.030

> <ROCS_Rank>
335                 

$$$$
untitled-dbase-1160218_158
  -OEChem-02092421083D

 25 25  0     0  0  0  0  0  0999 V2000
    9.1444   12.2152   24.0679 C   0  0  0  0  0  0  0  0  0  0  0  0
    8.6298   10.0185   23.3154 C   0  0  0  0  0  0  0  0  0  0  0  0
    9.2055   11.2537   23.0653 C   0  0  0  0  0  0  0  0  0  0  0  0
    8.5181   11.9163   25.2728 C   0  0  0  0  0  0  0  0  0  0  0  0
    7.9729   10.6515   25.4239 C   0  0  0  0  0  0  0  0  0  0  0  0
   10.9586   14.8986   22.2726 C   0  0  0  0  0  0  0  0  0  0  0  0
   10.9653   13.5891   21.9906 C   0  0  0  0  0  0  0  0  0  0  0  0
   12.1640   15.5378   22.8429 C   0  0  0  0  0  0  0  0  0  0  0  0
   14.0238   15.0435   24.2102 C   0  0  0  0  0  0  0  0  0  0  0  0
    9.7876   12.8680   21.4188 C   0  0  0  0  0  0  0  0  0  0  0  0
    8.0128    9.6914   24.4729 N   0  0  0  0  0  0  0  0  0  0  0  0
   12.4949   16.7007   22.6747 O   0  0  0  0  0  0  0  0  0  0  0  0
    9.8156   11.5201   21.8669 O   0  0  0  0  0  0  0  0  0  0  0  0
   12.8198   14.5986   23.5766 O   0  0  0  0  0  0  0  0  0  0  0  0
    8.4511   12.8325   26.2468 F   0  0  0  0  0  0  0  0  0  0  0  0
    7.1791   10.1911   26.8744 Cl  0  0  0  0  0  0  0  0  0  0  0  0
    9.5818   13.1979   23.9161 H   0  0  0  0  0  0  0  0  0  0  0  0
    8.6474    9.2307   22.5686 H   0  0  0  0  0  0  0  0  0  0  0  0
   10.0816   15.5110   22.0920 H   0  0  0  0  0  0  0  0  0  0  0  0
   11.8510   12.9887   22.1829 H   0  0  0  0  0  0  0  0  0  0  0  0
   14.4686   14.2173   24.7702 H   0  0  0  0  0  0  0  0  0  0  0  0
   13.7968   15.8737   24.8838 H   0  0  0  0  0  0  0  0  0  0  0  0
   14.7255   15.3804   23.4435 H   0  0  0  0  0  0  0  0  0  0  0  0
    9.7913   12.8714   20.3242 H   0  0  0  0  0  0  0  0  0  0  0  0
    8.8618   13.3343   21.7697 H   0  0  0  0  0  0  0  0  0  0  0  0
  1  3  2  0  0  0  0
  1  4  1  0  0  0  0
  2  3  1  0  0  0  0
  2 11  2  0  0  0  0
  3 13  1  0  0  0  0
  4  5  2  0  0  0  0
  4 15  1  0  0  0  0
  5 11  1  0  0  0  0
  5 16  1  0  0  0  0
  6  7  2  0  0  0  0
  6  8  1  4  0  0  0
  7 10  1  0  0  0  0
  8 12  2  0  0  0  0
  8 14  1  0  0  0  0
  9 14  1  0  0  0  0
 10 13  1  0  0  0  0
  1 17  1  0  0  0  0
  2 18  1  0  0  0  0
  6 19  1  0  0  0  0
  7 20  1  0  0  0  0
  9 21  1  0  0  0  0
  9 22  1  0  0  0  0
  9 23  1  0  0  0  0
 10 24  1  0  0  0  0
 10 25  1  0  0  0  0
M  END
> <idnumber>
Z7889161971

> <heavy_atoms>
16

> <LogS>
-3.085

> <LogP>
2.377

> <rotating_bonds>
5

> <PSA>
48.42

> <hb_acceptors>
3

> <hb_donors>
0

> <Collection>
Advanced

> <link>
https://www.enaminestore.com/catalog/Z7889161971

> <ROCS_ShapeQuery>
_x1140_x0812_0A_x1140_0A_x1097_0A_x0365_0A_x1097_0A_x0310_0A

> <ROCS_TanimotoCombo>
0.631 

> <ROCS_ShapeTanimoto>
0.204 

> <ROCS_ColorTanimoto>
0.427 

> <ROCS_RefTversky>
0.189 

> <ROCS_RefColorTversky>
0.460 

> <ROCS_RefTverskyCombo>
0.649 

> <ROCS_FitTversky>
1.628 

> <ROCS_FitColorTversky>
0.855 

> <ROCS_FitTverskyCombo>
2.483 

> <ROCS_ColorScore>
-3.590

> <ROCS_Overlap>
1939.831

> <ROCS_Rank>
336                 

$$$$
untitled-dbase-1107243_3
  -OEChem-02092421083D

 35 37  0     0  0  0  0  0  0999 V2000
   13.1084   12.3979   21.3171 C   0  0  0  0  0  0  0  0  0  0  0  0
   14.1902   13.1198   20.8130 C   0  0  0  0  0  0  0  0  0  0  0  0
    6.7160   12.2910   26.5017 C   0  0  0  0  0  0  0  0  0  0  0  0
   12.6704   14.7679   19.9122 C   0  0  0  0  0  0  0  0  0  0  0  0
    8.9853   10.5012   23.6016 C   0  0  0  0  0  0  0  0  0  0  0  0
    5.9875   11.1686   26.8320 C   0  0  0  0  0  0  0  0  0  0  0  0
    7.6205   11.9269   25.4693 C   0  0  0  0  0  0  0  0  0  0  0  0
   11.8076   12.8608   21.1188 C   0  0  0  0  0  0  0  0  0  0  0  0
   11.5886   14.0458   20.4164 C   0  0  0  0  0  0  0  0  0  0  0  0
    8.6068   12.5853   24.7172 C   0  0  0  0  0  0  0  0  0  0  0  0
    9.3002   11.8439   23.7623 C   0  0  0  0  0  0  0  0  0  0  0  0
   13.9712   14.3049   20.1106 C   0  0  0  0  0  0  0  0  0  0  0  0
    7.4077   10.5772   25.2043 C   0  0  0  0  0  0  0  0  0  0  0  0
   10.6837   12.0790   21.6620 C   0  0  0  0  0  0  0  0  0  0  0  0
   10.2061   14.5640   20.1888 C   0  0  0  0  0  0  0  0  0  0  0  0
    8.9186   14.0342   24.9198 C   0  0  0  0  0  0  0  0  0  0  0  0
    8.0474    9.8163   24.2962 N   0  0  0  0  0  0  0  0  0  0  0  0
    6.4155   10.1353   26.0393 N   0  0  0  0  0  0  0  0  0  0  0  0
   10.2962   12.4212   22.9730 N   0  0  0  0  0  0  0  0  0  0  0  0
   10.1656   11.1770   21.0072 O   0  0  0  0  0  0  0  0  0  0  0  0
   15.0101   14.9976   19.6259 F   0  0  0  0  0  0  0  0  0  0  0  0
   13.2922   11.4758   21.8628 H   0  0  0  0  0  0  0  0  0  0  0  0
   15.2029   12.7592   20.9677 H   0  0  0  0  0  0  0  0  0  0  0  0
    6.6040   13.2650   26.9578 H   0  0  0  0  0  0  0  0  0  0  0  0
   12.5105   15.6919   19.3632 H   0  0  0  0  0  0  0  0  0  0  0  0
    9.5102    9.8983   22.8637 H   0  0  0  0  0  0  0  0  0  0  0  0
    5.2028   11.0140   27.5587 H   0  0  0  0  0  0  0  0  0  0  0  0
    9.8003   14.1641   19.2525 H   0  0  0  0  0  0  0  0  0  0  0  0
    9.5366   14.2801   21.0098 H   0  0  0  0  0  0  0  0  0  0  0  0
   10.1979   15.6596   20.1341 H   0  0  0  0  0  0  0  0  0  0  0  0
    9.7024   14.1495   25.6763 H   0  0  0  0  0  0  0  0  0  0  0  0
    9.2595   14.4981   23.9870 H   0  0  0  0  0  0  0  0  0  0  0  0
    8.0300   14.5864   25.2471 H   0  0  0  0  0  0  0  0  0  0  0  0
    6.0545    9.1918   26.0656 H   0  0  0  0  0  0  0  0  0  0  0  0
   10.8137   13.1958   23.4035 H   0  0  0  0  0  0  0  0  0  0  0  0
  1  2  2  0  0  0  0
  1  8  1  0  0  0  0
  2 12  1  0  0  0  0
  3  6  2  0  0  0  0
  3  7  1  0  0  0  0
  4  9  1  0  0  0  0
  4 12  2  0  0  0  0
  5 11  1  0  0  0  0
  5 17  2  0  0  0  0
  6 18  1  0  0  0  0
  7 10  1  0  0  0  0
  7 13  2  0  0  0  0
  8  9  2  0  0  0  0
  8 14  1  0  0  0  0
  9 15  1  0  0  0  0
 10 11  2  0  0  0  0
 10 16  1  0  0  0  0
 11 19  1  0  0  0  0
 12 21  1  0  0  0  0
 13 17  1  0  0  0  0
 13 18  1  0  0  0  0
 14 19  1  0  0  0  0
 14 20  2  0  0  0  0
  1 22  1  0  0  0  0
  2 23  1  0  0  0  0
  3 24  1  0  0  0  0
  4 25  1  0  0  0  0
  5 26  1  0  0  0  0
  6 27  1  0  0  0  0
 15 28  1  0  0  0  0
 15 29  1  0  0  0  0
 15 30  1  0  0  0  0
 16 31  1  0  0  0  0
 16 32  1  0  0  0  0
 16 33  1  0  0  0  0
 18 34  1  0  0  0  0
 19 35  1  0  0  0  0
M  END
> <idnumber>
Z4988613963

> <heavy_atoms>
21

> <LogS>
-5.199

> <LogP>
2.733

> <rotating_bonds>
2

> <PSA>
57.78

> <hb_acceptors>
2

> <hb_donors>
2

> <Collection>
Advanced

> <link>
https://www.enaminestore.com/catalog/Z4988613963

> <ROCS_ShapeQuery>
_x1140_x0812_0A_x1140_0A_x1097_0A_x0365_0A_x1097_0A_x0310_0A

> <ROCS_TanimotoCombo>
0.631 

> <ROCS_ShapeTanimoto>
0.241 

> <ROCS_ColorTanimoto>
0.390 

> <ROCS_RefTversky>
0.222 

> <ROCS_RefColorTversky>
0.530 

> <ROCS_RefTverskyCombo>
0.752 

> <ROCS_FitTversky>
1.556 

> <ROCS_FitColorTversky>
0.596 

> <ROCS_FitTverskyCombo>
2.152 

> <ROCS_ColorScore>
-4.215

> <ROCS_Overlap>
2277.939

> <ROCS_Rank>
337                 

$$$$
untitled-dbase-1107244_3
  -OEChem-02092421083D

 35 37  0     0  0  0  0  0  0999 V2000
   12.6718   14.7679   19.9136 C   0  0  0  0  0  0  0  0  0  0  0  0
   13.9724   14.3045   20.1118 C   0  0  0  0  0  0  0  0  0  0  0  0
    6.7173   12.2911   26.5015 C   0  0  0  0  0  0  0  0  0  0  0  0
   13.1090   12.3964   21.3163 C   0  0  0  0  0  0  0  0  0  0  0  0
    8.9857   10.5009   23.6010 C   0  0  0  0  0  0  0  0  0  0  0  0
    5.9884   11.1689   26.8319 C   0  0  0  0  0  0  0  0  0  0  0  0
    7.6215   11.9269   25.4691 C   0  0  0  0  0  0  0  0  0  0  0  0
   11.8084   12.8598   21.1181 C   0  0  0  0  0  0  0  0  0  0  0  0
   11.5898   14.0455   20.4168 C   0  0  0  0  0  0  0  0  0  0  0  0
    8.6079   12.5850   24.7169 C   0  0  0  0  0  0  0  0  0  0  0  0
    9.3009   11.8434   23.7618 C   0  0  0  0  0  0  0  0  0  0  0  0
   14.1910   13.1187   20.8131 C   0  0  0  0  0  0  0  0  0  0  0  0
    7.4082   10.5773   25.2040 C   0  0  0  0  0  0  0  0  0  0  0  0
   10.6843   12.0782   21.6614 C   0  0  0  0  0  0  0  0  0  0  0  0
   10.2072   14.5643   20.1903 C   0  0  0  0  0  0  0  0  0  0  0  0
    8.9202   14.0338   24.9195 C   0  0  0  0  0  0  0  0  0  0  0  0
    8.0476    9.8161   24.2958 N   0  0  0  0  0  0  0  0  0  0  0  0
    6.4160   10.1355   26.0391 N   0  0  0  0  0  0  0  0  0  0  0  0
   10.2970   12.4205   22.9725 N   0  0  0  0  0  0  0  0  0  0  0  0
   10.1658   11.1765   21.0066 O   0  0  0  0  0  0  0  0  0  0  0  0
   15.4400   12.6740   21.0038 F   0  0  0  0  0  0  0  0  0  0  0  0
   12.5116   15.6931   19.3664 H   0  0  0  0  0  0  0  0  0  0  0  0
   14.8149   14.8667   19.7202 H   0  0  0  0  0  0  0  0  0  0  0  0
    6.6056   13.2651   26.9578 H   0  0  0  0  0  0  0  0  0  0  0  0
   13.2937   11.4735   21.8601 H   0  0  0  0  0  0  0  0  0  0  0  0
    9.5102    9.8978   22.8631 H   0  0  0  0  0  0  0  0  0  0  0  0
    5.2038   11.0145   27.5587 H   0  0  0  0  0  0  0  0  0  0  0  0
    9.8012   14.1658   19.2535 H   0  0  0  0  0  0  0  0  0  0  0  0
    9.5380   14.2792   21.0112 H   0  0  0  0  0  0  0  0  0  0  0  0
   10.1993   15.6600   20.1373 H   0  0  0  0  0  0  0  0  0  0  0  0
    9.7040   14.1488   25.6759 H   0  0  0  0  0  0  0  0  0  0  0  0
    9.2610   14.4977   23.9867 H   0  0  0  0  0  0  0  0  0  0  0  0
    8.0317   14.5863   25.2470 H   0  0  0  0  0  0  0  0  0  0  0  0
    6.0547    9.1921   26.0654 H   0  0  0  0  0  0  0  0  0  0  0  0
   10.8148   13.1949   23.4029 H   0  0  0  0  0  0  0  0  0  0  0  0
  1  2  2  0  0  0  0
  1  9  1  0  0  0  0
  2 12  1  0  0  0  0
  3  6  2  0  0  0  0
  3  7  1  0  0  0  0
  4  8  1  0  0  0  0
  4 12  2  0  0  0  0
  5 11  1  0  0  0  0
  5 17  2  0  0  0  0
  6 18  1  0  0  0  0
  7 10  1  0  0  0  0
  7 13  2  0  0  0  0
  8  9  2  0  0  0  0
  8 14  1  0  0  0  0
  9 15  1  0  0  0  0
 10 11  2  0  0  0  0
 10 16  1  0  0  0  0
 11 19  1  0  0  0  0
 12 21  1  0  0  0  0
 13 17  1  0  0  0  0
 13 18  1  0  0  0  0
 14 19  1  0  0  0  0
 14 20  2  0  0  0  0
  1 22  1  0  0  0  0
  2 23  1  0  0  0  0
  3 24  1  0  0  0  0
  4 25  1  0  0  0  0
  5 26  1  0  0  0  0
  6 27  1  0  0  0  0
 15 28  1  0  0  0  0
 15 29  1  0  0  0  0
 15 30  1  0  0  0  0
 16 31  1  0  0  0  0
 16 32  1  0  0  0  0
 16 33  1  0  0  0  0
 18 34  1  0  0  0  0
 19 35  1  0  0  0  0
M  END
> <idnumber>
Z4988613996

> <heavy_atoms>
21

> <LogS>
-5.199

> <LogP>
2.733

> <rotating_bonds>
2

> <PSA>
57.78

> <hb_acceptors>
2

> <hb_donors>
2

> <Collection>
Advanced

> <link>
https://www.enaminestore.com/catalog/Z4988613996

> <ROCS_ShapeQuery>
_x1140_x0812_0A_x1140_0A_x1097_0A_x0365_0A_x1097_0A_x0310_0A

> <ROCS_TanimotoCombo>
0.631 

> <ROCS_ShapeTanimoto>
0.241 

> <ROCS_ColorTanimoto>
0.390 

> <ROCS_RefTversky>
0.222 

> <ROCS_RefColorTversky>
0.530 

> <ROCS_RefTverskyCombo>
0.752 

> <ROCS_FitTversky>
1.556 

> <ROCS_FitColorTversky>
0.596 

> <ROCS_FitTverskyCombo>
2.152 

> <ROCS_ColorScore>
-4.215

> <ROCS_Overlap>
2277.916

> <ROCS_Rank>
338                 

$$$$
untitled-dbase-10537_0
  -OEChem-02092421083D

 20 20  0     0  0  0  0  0  0999 V2000
    9.3288   11.5805   23.4085 C   0  0  0  0  0  0  0  0  0  0  0  0
    9.1627   10.2680   23.6973 C   0  0  0  0  0  0  0  0  0  0  0  0
    8.3984   12.5799   24.0181 C   0  0  0  0  0  0  0  0  0  0  0  0
    7.3319   10.6665   25.0854 C   0  0  0  0  0  0  0  0  0  0  0  0
    6.4722   12.9625   25.4837 C   0  0  0  0  0  0  0  0  0  0  0  0
    8.1620    9.8237   24.5359 N   0  0  0  0  0  0  0  0  0  0  0  0
    7.4193   12.0451   24.8507 N   0  0  0  0  0  0  0  0  0  0  0  0
   10.2884   12.1128   22.5915 N   0  0  0  0  0  0  0  0  0  0  0  0
   10.0175    9.3402   23.1384 N   0  0  0  0  0  0  0  0  0  0  0  0
    6.3463   10.1839   25.9165 N   0  0  0  0  0  0  0  0  0  0  0  0
    8.5354   13.7771   23.7672 O   0  0  0  0  0  0  0  0  0  0  0  0
    5.5971   13.0951   24.8305 H   0  0  0  0  0  0  0  0  0  0  0  0
    6.1490   12.5469   26.4495 H   0  0  0  0  0  0  0  0  0  0  0  0
    6.9582   13.9356   25.6475 H   0  0  0  0  0  0  0  0  0  0  0  0
   10.9365   11.4951   22.1577 H   0  0  0  0  0  0  0  0  0  0  0  0
   10.3045   13.0988   22.4598 H   0  0  0  0  0  0  0  0  0  0  0  0
   10.7308    9.6722   22.5385 H   0  0  0  0  0  0  0  0  0  0  0  0
    9.8763    8.3873   23.3642 H   0  0  0  0  0  0  0  0  0  0  0  0
    6.3036    9.2056   26.0677 H   0  0  0  0  0  0  0  0  0  0  0  0
    5.7232   10.8362   26.3266 H   0  0  0  0  0  0  0  0  0  0  0  0
  1  2  2  0  0  0  0
  1  3  1  0  0  0  0
  1  8  1  0  0  0  0
  2  6  1  0  0  0  0
  2  9  1  0  0  0  0
  3  7  1  0  0  0  0
  3 11  2  0  0  0  0
  4  6  2  0  0  0  0
  4  7  1  0  0  0  0
  4 10  1  0  0  0  0
  5  7  1  0  0  0  0
  5 12  1  0  0  0  0
  5 13  1  0  0  0  0
  5 14  1  0  0  0  0
  8 15  1  0  0  0  0
  8 16  1  0  0  0  0
  9 17  1  0  0  0  0
  9 18  1  0  0  0  0
 10 19  1  0  0  0  0
 10 20  1  0  0  0  0
M  END
> <idnumber>
Z139517600

> <heavy_atoms>
11

> <LogS>
-0.56

> <LogP>
-1.431

> <rotating_bonds>
0

> <PSA>
110.73

> <hb_acceptors>
5

> <hb_donors>
3

> <Collection>
Legacy

> <link>
https://www.enaminestore.com/catalog/Z139517600

> <ROCS_ShapeQuery>
_x1140_x0812_0A_x1140_0A_x1097_0A_x0365_0A_x1097_0A_x0310_0A

> <ROCS_TanimotoCombo>
0.631 

> <ROCS_ShapeTanimoto>
0.229 

> <ROCS_ColorTanimoto>
0.402 

> <ROCS_RefTversky>
0.205 

> <ROCS_RefColorTversky>
0.606 

> <ROCS_RefTverskyCombo>
0.811 

> <ROCS_FitTversky>
2.086 

> <ROCS_FitColorTversky>
0.544 

> <ROCS_FitTverskyCombo>
2.630 

> <ROCS_ColorScore>
-4.879

> <ROCS_Overlap>
2097.116

> <ROCS_Rank>
339                 

$$$$
untitled-dbase-524798_14
  -OEChem-02092421083D

 38 39  0     1  0  0  0  0  0999 V2000
    8.4388   12.5353   24.1905 C   0  0  0  0  0  0  0  0  0  0  0  0
    7.4680   12.0364   25.0519 C   0  0  0  0  0  0  0  0  0  0  0  0
    9.3003   11.6586   23.5405 C   0  0  0  0  0  0  0  0  0  0  0  0
    7.4006   10.6637   25.2278 C   0  0  0  0  0  0  0  0  0  0  0  0
    9.1510   10.3028   23.7842 C   0  0  0  0  0  0  0  0  0  0  0  0
   10.9470   13.3774   22.7290 C   0  0  0  0  0  0  0  0  0  0  0  0
   13.1045   14.4039   22.0323 C   0  0  0  0  0  0  0  0  0  0  0  0
   11.4015   15.6842   20.8426 C   0  0  0  0  0  0  0  0  0  0  0  0
   11.9325   13.5252   21.6092 C   0  0  2  0  0  0  0  0  0  0  0  0
   12.7070   15.8248   21.6197 C   0  0  1  0  0  0  0  0  0  0  0  0
    6.3718   10.0930   26.1457 C   0  0  0  0  0  0  0  0  0  0  0  0
   10.0736   13.8181   20.0049 C   0  0  0  0  0  0  0  0  0  0  0  0
   12.1258   17.9605   22.4007 C   0  0  0  0  0  0  0  0  0  0  0  0
    8.2200    9.7809   24.6140 N   0  0  0  0  0  0  0  0  0  0  0  0
   11.3673   14.2697   20.4849 N   0  0  1  0  0  0  0  0  0  0  0  0
   10.2930   12.1537   22.6619 N   0  0  0  0  0  0  0  0  0  0  0  0
   10.8005   14.2691   23.5587 O   0  0  0  0  0  0  0  0  0  0  0  0
    9.9793    9.4034   23.1640 O   0  0  0  0  0  0  0  0  0  0  0  0
   12.4956   16.6380   22.7641 O   0  0  0  0  0  0  0  0  0  0  0  0
    8.5138   13.6080   24.0327 H   0  0  0  0  0  0  0  0  0  0  0  0
    6.7892   12.7093   25.5648 H   0  0  0  0  0  0  0  0  0  0  0  0
   13.3402   14.3408   23.1007 H   0  0  0  0  0  0  0  0  0  0  0  0
   13.9946   14.1078   21.4631 H   0  0  0  0  0  0  0  0  0  0  0  0
   10.5266   15.9605   21.4484 H   0  0  0  0  0  0  0  0  0  0  0  0
   11.4324   16.3262   19.9474 H   0  0  0  0  0  0  0  0  0  0  0  0
   12.3150   12.5324   21.3234 H   0  0  0  0  0  0  0  0  0  0  0  0
   13.4973   16.3071   21.0129 H   0  0  0  0  0  0  0  0  0  0  0  0
    5.4472    9.8792   25.5961 H   0  0  0  0  0  0  0  0  0  0  0  0
    6.7246    9.1630   26.6094 H   0  0  0  0  0  0  0  0  0  0  0  0
    6.1389   10.7875   26.9630 H   0  0  0  0  0  0  0  0  0  0  0  0
   10.1271   12.7478   19.7569 H   0  0  0  0  0  0  0  0  0  0  0  0
    9.3168   13.9757   20.7875 H   0  0  0  0  0  0  0  0  0  0  0  0
    9.7963   14.3891   19.1065 H   0  0  0  0  0  0  0  0  0  0  0  0
   11.9715   18.5574   23.3029 H   0  0  0  0  0  0  0  0  0  0  0  0
   11.2083   17.9332   21.8075 H   0  0  0  0  0  0  0  0  0  0  0  0
   12.9286   18.4034   21.8064 H   0  0  0  0  0  0  0  0  0  0  0  0
   10.5484   11.5316   21.8978 H   0  0  0  0  0  0  0  0  0  0  0  0
    9.7483    8.5048   23.4369 H   0  0  0  0  0  0  0  0  0  0  0  0
  1  2  2  0  0  0  0
  1  3  1  0  0  0  0
  2  4  1  0  0  0  0
  3  5  2  0  0  0  0
  3 16  1  0  0  0  0
  4 11  1  0  0  0  0
  4 14  2  0  0  0  0
  5 14  1  0  0  0  0
  5 18  1  0  0  0  0
  6  9  1  1  0  0  0
  6 16  1  0  0  0  0
  6 17  2  0  0  0  0
  7  9  1  0  0  0  0
  7 10  1  0  0  0  0
  8 10  1  0  0  0  0
  8 15  1  0  0  0  0
  9 15  1  0  0  0  0
 10 19  1  1  0  0  0
 12 15  1  0  0  0  0
 13 19  1  0  0  0  0
  1 20  1  0  0  0  0
  2 21  1  0  0  0  0
  7 22  1  0  0  0  0
  7 23  1  0  0  0  0
  8 24  1  0  0  0  0
  8 25  1  0  0  0  0
  9 26  1  0  0  0  0
 10 27  1  0  0  0  0
 11 28  1  0  0  0  0
 11 29  1  0  0  0  0
 11 30  1  0  0  0  0
 12 31  1  0  0  0  0
 12 32  1  0  0  0  0
 12 33  1  0  0  0  0
 13 34  1  0  0  0  0
 13 35  1  0  0  0  0
 13 36  1  0  0  0  0
 16 37  1  0  0  0  0
 18 38  1  0  0  0  0
M  END
> <idnumber>
Z2057627275

> <heavy_atoms>
19

> <LogS>
-0.853

> <LogP>
1.671

> <rotating_bonds>
3

> <PSA>
74.69

> <hb_acceptors>
5

> <hb_donors>
2

> <Collection>
Advanced

> <link>
https://www.enaminestore.com/catalog/Z2057627275

> <ROCS_ShapeQuery>
_x1140_x0812_0A_x1140_0A_x1097_0A_x0365_0A_x1097_0A_x0310_0A

> <ROCS_TanimotoCombo>
0.631 

> <ROCS_ShapeTanimoto>
0.248 

> <ROCS_ColorTanimoto>
0.383 

> <ROCS_RefTversky>
0.225 

> <ROCS_RefColorTversky>
0.585 

> <ROCS_RefTverskyCombo>
0.810 

> <ROCS_FitTversky>
1.717 

> <ROCS_FitColorTversky>
0.526 

> <ROCS_FitTverskyCombo>
2.243 

> <ROCS_ColorScore>
-4.710

> <ROCS_Overlap>
2306.564

> <ROCS_Rank>
340                 

$$$$
untitled-dbase-145063_26
  -OEChem-02092421083D

 37 39  0     0  0  0  0  0  0999 V2000
   15.3587   10.7637   19.9966 C   0  0  0  0  0  0  0  0  0  0  0  0
   14.3565   10.9921   19.0538 C   0  0  0  0  0  0  0  0  0  0  0  0
   15.2020   11.2199   21.3055 C   0  0  0  0  0  0  0  0  0  0  0  0
   13.1976   11.6769   19.4197 C   0  0  0  0  0  0  0  0  0  0  0  0
   14.0432   11.9047   21.6714 C   0  0  0  0  0  0  0  0  0  0  0  0
    8.6740   12.5761   24.6865 C   0  0  0  0  0  0  0  0  0  0  0  0
    7.6844   11.9889   25.4669 C   0  0  0  0  0  0  0  0  0  0  0  0
    8.9741   10.4881   23.5880 C   0  0  0  0  0  0  0  0  0  0  0  0
   13.0410   12.1332   20.7285 C   0  0  0  0  0  0  0  0  0  0  0  0
    9.3360   11.8183   23.7269 C   0  0  0  0  0  0  0  0  0  0  0  0
    7.3962   10.6511   25.2500 C   0  0  0  0  0  0  0  0  0  0  0  0
   10.6932   12.0335   21.6207 C   0  0  0  0  0  0  0  0  0  0  0  0
   11.4394   14.1121   20.3286 C   0  0  0  0  0  0  0  0  0  0  0  0
   11.9617   14.2532   21.7215 C   0  0  0  0  0  0  0  0  0  0  0  0
   11.8040   12.8657   21.1197 C   0  0  0  0  0  0  0  0  0  0  0  0
    5.9958    8.7005   25.9279 C   0  0  0  0  0  0  0  0  0  0  0  0
    8.0178    9.8828   24.3275 N   0  0  0  0  0  0  0  0  0  0  0  0
   10.3483   12.3881   22.9188 N   0  0  0  0  0  0  0  0  0  0  0  0
    6.3863   10.0667   26.0542 N   0  0  0  0  0  0  0  0  0  0  0  0
   10.1924   11.1637   20.9155 O   0  0  0  0  0  0  0  0  0  0  0  0
   16.2608   10.2303   19.7118 H   0  0  0  0  0  0  0  0  0  0  0  0
   14.4780   10.6368   18.0345 H   0  0  0  0  0  0  0  0  0  0  0  0
   15.9827   11.0421   22.0395 H   0  0  0  0  0  0  0  0  0  0  0  0
   12.4228   11.8506   18.6778 H   0  0  0  0  0  0  0  0  0  0  0  0
   13.9314   12.2566   22.6937 H   0  0  0  0  0  0  0  0  0  0  0  0
    8.9219   13.6237   24.8352 H   0  0  0  0  0  0  0  0  0  0  0  0
    7.1613   12.5733   26.2171 H   0  0  0  0  0  0  0  0  0  0  0  0
    9.4553    9.8452   22.8572 H   0  0  0  0  0  0  0  0  0  0  0  0
   10.3905   14.3284   20.1605 H   0  0  0  0  0  0  0  0  0  0  0  0
   12.0853   14.4227   19.5156 H   0  0  0  0  0  0  0  0  0  0  0  0
   12.9595   14.6589   21.8458 H   0  0  0  0  0  0  0  0  0  0  0  0
   11.2645   14.5648   22.4909 H   0  0  0  0  0  0  0  0  0  0  0  0
    6.5922    8.2196   25.1386 H   0  0  0  0  0  0  0  0  0  0  0  0
    6.1647    8.1813   26.8828 H   0  0  0  0  0  0  0  0  0  0  0  0
    4.9289    8.6470   25.6652 H   0  0  0  0  0  0  0  0  0  0  0  0
   10.8764   13.1440   23.3499 H   0  0  0  0  0  0  0  0  0  0  0  0
    5.9485   10.6629   26.7265 H   0  0  0  0  0  0  0  0  0  0  0  0
  1  2  1  0  0  0  0
  1  3  2  0  0  0  0
  2  4  2  0  0  0  0
  3  5  1  0  0  0  0
  4  9  1  0  0  0  0
  5  9  2  0  0  0  0
  6  7  2  0  0  0  0
  6 10  1  0  0  0  0
  7 11  1  0  0  0  0
  8 10  2  0  0  0  0
  8 17  1  0  0  0  0
  9 15  1  0  0  0  0
 10 18  1  0  0  0  0
 11 17  2  0  0  0  0
 11 19  1  0  0  0  0
 12 15  1  0  0  0  0
 12 18  1  0  0  0  0
 12 20  2  0  0  0  0
 13 14  1  0  0  0  0
 13 15  1  0  0  0  0
 14 15  1  0  0  0  0
 16 19  1  0  0  0  0
  1 21  1  0  0  0  0
  2 22  1  0  0  0  0
  3 23  1  0  0  0  0
  4 24  1  0  0  0  0
  5 25  1  0  0  0  0
  6 26  1  0  0  0  0
  7 27  1  0  0  0  0
  8 28  1  0  0  0  0
 13 29  1  0  0  0  0
 13 30  1  0  0  0  0
 14 31  1  0  0  0  0
 14 32  1  0  0  0  0
 16 33  1  0  0  0  0
 16 34  1  0  0  0  0
 16 35  1  0  0  0  0
 18 36  1  0  0  0  0
 19 37  1  0  0  0  0
M  END
> <idnumber>
Z2394926017

> <heavy_atoms>
20

> <LogS>
-2.605

> <LogP>
2.845

> <rotating_bonds>
4

> <PSA>
54.02

> <hb_acceptors>
3

> <hb_donors>
2

> <Collection>
HTS

> <link>
https://www.enaminestore.com/catalog/Z2394926017

> <ROCS_ShapeQuery>
_x1140_x0812_0A_x1140_0A_x1097_0A_x0365_0A_x1097_0A_x0310_0A

> <ROCS_TanimotoCombo>
0.631 

> <ROCS_ShapeTanimoto>
0.206 

> <ROCS_ColorTanimoto>
0.425 

> <ROCS_RefTversky>
0.194 

> <ROCS_RefColorTversky>
0.529 

> <ROCS_RefTverskyCombo>
0.723 

> <ROCS_FitTversky>
1.425 

> <ROCS_FitColorTversky>
0.685 

> <ROCS_FitTverskyCombo>
2.110 

> <ROCS_ColorScore>
-4.178

> <ROCS_Overlap>
1988.391

> <ROCS_Rank>
341                 

$$$$
untitled-dbase-1033642_82
  -OEChem-02092421083D

 37 39  0     0  0  0  0  0  0999 V2000
    7.1991   13.1635   26.5295 C   0  0  0  0  0  0  0  0  0  0  0  0
    6.5939   11.9711   26.9345 C   0  0  0  0  0  0  0  0  0  0  0  0
    8.1025   13.1883   25.4581 C   0  0  0  0  0  0  0  0  0  0  0  0
    6.8673   10.7626   26.2868 C   0  0  0  0  0  0  0  0  0  0  0  0
   11.1133   13.2464   23.4671 C   0  0  0  0  0  0  0  0  0  0  0  0
    8.3920   11.9846   24.7921 C   0  0  0  0  0  0  0  0  0  0  0  0
    9.2180   11.5989   23.7036 C   0  0  0  0  0  0  0  0  0  0  0  0
    7.7690   10.8187   25.2255 C   0  0  0  0  0  0  0  0  0  0  0  0
   10.0625   12.4821   22.9311 C   0  0  0  0  0  0  0  0  0  0  0  0
   11.6180   13.9124   22.3818 C   0  0  0  0  0  0  0  0  0  0  0  0
    9.0459   10.2429   23.5476 C   0  0  0  0  0  0  0  0  0  0  0  0
   11.1390    9.1861   22.6594 C   0  0  0  0  0  0  0  0  0  0  0  0
   11.1477   18.2000   22.3260 C   0  0  0  0  0  0  0  0  0  0  0  0
    9.6068    9.2534   22.6145 C   0  0  0  0  0  0  0  0  0  0  0  0
   12.7133   14.8724   22.1978 C   0  0  0  0  0  0  0  0  0  0  0  0
   11.5209   16.8486   21.7550 C   0  0  0  0  0  0  0  0  0  0  0  0
    9.9259   12.6604   21.6142 N   0  0  0  0  0  0  0  0  0  0  0  0
    8.1690    9.7601   24.4662 O   0  0  0  0  0  0  0  0  0  0  0  0
   10.9177   13.5711   21.2700 O   0  0  0  0  0  0  0  0  0  0  0  0
   12.3325   16.1596   22.6916 O   0  0  0  0  0  0  0  0  0  0  0  0
    6.9661   14.0878   27.0522 H   0  0  0  0  0  0  0  0  0  0  0  0
    5.8968   11.9811   27.7684 H   0  0  0  0  0  0  0  0  0  0  0  0
    8.5631   14.1244   25.1568 H   0  0  0  0  0  0  0  0  0  0  0  0
    6.4014    9.8341   26.5946 H   0  0  0  0  0  0  0  0  0  0  0  0
   11.4585   13.3085   24.4892 H   0  0  0  0  0  0  0  0  0  0  0  0
   11.5751   10.1718   22.4646 H   0  0  0  0  0  0  0  0  0  0  0  0
   11.5308    8.4884   21.9127 H   0  0  0  0  0  0  0  0  0  0  0  0
   11.4826    8.8558   23.6456 H   0  0  0  0  0  0  0  0  0  0  0  0
   10.5869   18.0884   23.2581 H   0  0  0  0  0  0  0  0  0  0  0  0
   12.0443   18.7971   22.5221 H   0  0  0  0  0  0  0  0  0  0  0  0
   10.5386   18.7653   21.6128 H   0  0  0  0  0  0  0  0  0  0  0  0
    9.2108    8.2373   22.8165 H   0  0  0  0  0  0  0  0  0  0  0  0
    9.3012    9.4647   21.5694 H   0  0  0  0  0  0  0  0  0  0  0  0
   13.6363   14.5701   22.7297 H   0  0  0  0  0  0  0  0  0  0  0  0
   12.9945   14.9901   21.1334 H   0  0  0  0  0  0  0  0  0  0  0  0
   12.0816   16.9673   20.8230 H   0  0  0  0  0  0  0  0  0  0  0  0
   10.6241   16.2530   21.5604 H   0  0  0  0  0  0  0  0  0  0  0  0
  1  2  1  0  0  0  0
  1  3  2  0  0  0  0
  2  4  2  0  0  0  0
  3  6  1  0  0  0  0
  4  8  1  0  0  0  0
  5  9  1  0  0  0  0
  5 10  2  0  0  0  0
  6  7  1  0  0  0  0
  6  8  2  0  0  0  0
  7  9  1  0  0  0  0
  7 11  2  0  0  0  0
  8 18  1  0  0  0  0
  9 17  2  0  0  0  0
 10 15  1  0  0  0  0
 10 19  1  0  0  0  0
 11 14  1  0  0  0  0
 11 18  1  0  0  0  0
 12 14  1  0  0  0  0
 13 16  1  0  0  0  0
 15 20  1  0  0  0  0
 16 20  1  0  0  0  0
 17 19  1  0  0  0  0
  1 21  1  0  0  0  0
  2 22  1  0  0  0  0
  3 23  1  0  0  0  0
  4 24  1  0  0  0  0
  5 25  1  0  0  0  0
 12 26  1  0  0  0  0
 12 27  1  0  0  0  0
 12 28  1  0  0  0  0
 13 29  1  0  0  0  0
 13 30  1  0  0  0  0
 13 31  1  0  0  0  0
 14 32  1  0  0  0  0
 14 33  1  0  0  0  0
 15 34  1  0  0  0  0
 15 35  1  0  0  0  0
 16 36  1  0  0  0  0
 16 37  1  0  0  0  0
M  END
> <idnumber>
Z3464816551

> <heavy_atoms>
20

> <LogS>
-3.786

> <LogP>
3.694

> <rotating_bonds>
5

> <PSA>
48.4

> <hb_acceptors>
2

> <hb_donors>
0

> <Collection>
HTS

> <link>
https://www.enaminestore.com/catalog/Z3464816551

> <ROCS_ShapeQuery>
_x1140_x0812_0A_x1140_0A_x1097_0A_x0365_0A_x1097_0A_x0310_0A

> <ROCS_TanimotoCombo>
0.631 

> <ROCS_ShapeTanimoto>
0.289 

> <ROCS_ColorTanimoto>
0.342 

> <ROCS_RefTversky>
0.255 

> <ROCS_RefColorTversky>
0.481 

> <ROCS_RefTverskyCombo>
0.736 

> <ROCS_FitTversky>
1.861 

> <ROCS_FitColorTversky>
0.541 

> <ROCS_FitTverskyCombo>
2.403 

> <ROCS_ColorScore>
-3.827

> <ROCS_Overlap>
2616.631

> <ROCS_Rank>
342                 

$$$$
untitled-dbase-967189_118
  -OEChem-02092421083D

 36 38  0     0  0  0  0  0  0999 V2000
    9.0386    9.9312   23.6712 C   0  0  0  0  0  0  0  0  0  0  0  0
   11.6638   14.0927   23.0771 C   0  0  0  0  0  0  0  0  0  0  0  0
    9.2535   11.2931   23.6378 C   0  0  0  0  0  0  0  0  0  0  0  0
   11.5592   15.4109   23.5536 C   0  0  0  0  0  0  0  0  0  0  0  0
   12.3777   14.2220   21.9153 C   0  0  0  0  0  0  0  0  0  0  0  0
    7.4550   10.5488   25.0570 C   0  0  0  0  0  0  0  0  0  0  0  0
   10.2176   12.0528   22.9158 C   0  0  0  0  0  0  0  0  0  0  0  0
    5.0492   11.5629   27.8582 C   0  0  0  0  0  0  0  0  0  0  0  0
    6.3793   12.2575   27.8054 C   0  0  0  0  0  0  0  0  0  0  0  0
    5.7975   11.6543   26.5590 C   0  0  0  0  0  0  0  0  0  0  0  0
   10.8909   15.8847   24.7772 C   0  0  0  0  0  0  0  0  0  0  0  0
   12.8577   13.2752   20.8993 C   0  0  0  0  0  0  0  0  0  0  0  0
   11.5837   12.4372   24.9918 C   0  0  0  0  0  0  0  0  0  0  0  0
    8.0080    9.5025   24.4847 N   0  0  0  0  0  0  0  0  0  0  0  0
   12.1621   16.2905   22.7488 N   0  0  0  0  0  0  0  0  0  0  0  0
    6.3928   10.4835   25.9358 N   0  0  0  0  0  0  0  0  0  0  0  0
   11.1521   12.8640   23.6522 N   0  0  0  0  0  0  0  0  0  0  0  0
   10.2555   12.0411   21.6622 O   0  0  0  0  0  0  0  0  0  0  0  0
   12.6810   15.5290   21.7085 O   0  0  0  0  0  0  0  0  0  0  0  0
    8.1239   12.0789   24.6614 S   0  0  0  0  0  0  0  0  0  0  0  0
    9.6093    9.1972   23.1170 H   0  0  0  0  0  0  0  0  0  0  0  0
    5.0019   10.6043   28.3598 H   0  0  0  0  0  0  0  0  0  0  0  0
    4.1640   12.1761   27.9749 H   0  0  0  0  0  0  0  0  0  0  0  0
    6.3882   13.3373   27.8871 H   0  0  0  0  0  0  0  0  0  0  0  0
    7.2227   11.7641   28.2726 H   0  0  0  0  0  0  0  0  0  0  0  0
    5.4056   12.3433   25.8188 H   0  0  0  0  0  0  0  0  0  0  0  0
   11.5850   15.8935   25.6352 H   0  0  0  0  0  0  0  0  0  0  0  0
   10.4897   16.9078   24.6641 H   0  0  0  0  0  0  0  0  0  0  0  0
   10.0289   15.2515   25.0537 H   0  0  0  0  0  0  0  0  0  0  0  0
   12.1136   13.1342   20.0950 H   0  0  0  0  0  0  0  0  0  0  0  0
   13.7980   13.6101   20.4232 H   0  0  0  0  0  0  0  0  0  0  0  0
   13.0766   12.2777   21.3242 H   0  0  0  0  0  0  0  0  0  0  0  0
   10.9032   12.8562   25.7477 H   0  0  0  0  0  0  0  0  0  0  0  0
   11.5650   11.3389   25.0503 H   0  0  0  0  0  0  0  0  0  0  0  0
   12.6062   12.7970   25.1794 H   0  0  0  0  0  0  0  0  0  0  0  0
    6.0019    9.5820   26.1660 H   0  0  0  0  0  0  0  0  0  0  0  0
  1  3  2  0  0  0  0
  1 14  1  0  0  0  0
  2  4  1  0  0  0  0
  2  5  2  0  0  0  0
  2 17  1  0  0  0  0
  3  7  1  0  0  0  0
  3 20  1  0  0  0  0
  4 11  1  0  0  0  0
  4 15  2  0  0  0  0
  5 12  1  0  0  0  0
  5 19  1  0  0  0  0
  6 14  2  0  0  0  0
  6 16  1  0  0  0  0
  6 20  1  0  0  0  0
  7 17  1  0  0  0  0
  7 18  2  0  0  0  0
  8  9  1  0  0  0  0
  8 10  1  0  0  0  0
  9 10  1  0  0  0  0
 10 16  1  0  0  0  0
 13 17  1  0  0  0  0
 15 19  1  0  0  0  0
  1 21  1  0  0  0  0
  8 22  1  0  0  0  0
  8 23  1  0  0  0  0
  9 24  1  0  0  0  0
  9 25  1  0  0  0  0
 10 26  1  0  0  0  0
 11 27  1  0  0  0  0
 11 28  1  0  0  0  0
 11 29  1  0  0  0  0
 12 30  1  0  0  0  0
 12 31  1  0  0  0  0
 12 32  1  0  0  0  0
 13 33  1  0  0  0  0
 13 34  1  0  0  0  0
 13 35  1  0  0  0  0
 16 36  1  0  0  0  0
M  END
> <idnumber>
Z2892820671

> <heavy_atoms>
20

> <LogS>
-2.616

> <LogP>
0.442

> <rotating_bonds>
4

> <PSA>
71.26

> <hb_acceptors>
4

> <hb_donors>
1

> <Collection>
Advanced

> <link>
https://www.enaminestore.com/catalog/Z2892820671

> <ROCS_ShapeQuery>
_x1140_x0812_0A_x1140_0A_x1097_0A_x0365_0A_x1097_0A_x0310_0A

> <ROCS_TanimotoCombo>
0.631 

> <ROCS_ShapeTanimoto>
0.245 

> <ROCS_ColorTanimoto>
0.386 

> <ROCS_RefTversky>
0.223 

> <ROCS_RefColorTversky>
0.493 

> <ROCS_RefTverskyCombo>
0.717 

> <ROCS_FitTversky>
1.662 

> <ROCS_FitColorTversky>
0.639 

> <ROCS_FitTverskyCombo>
2.301 

> <ROCS_ColorScore>
-3.897

> <ROCS_Overlap>
2291.840

> <ROCS_Rank>
343                 

$$$$
untitled-dbase-226695_26
  -OEChem-02092421083D

 31 32  0     0  0  0  0  0  0999 V2000
    7.3963   11.8421   25.2045 C   0  0  0  0  0  0  0  0  0  0  0  0
    8.2974   12.3022   24.2508 C   0  0  0  0  0  0  0  0  0  0  0  0
    7.3223   10.4755   25.4209 C   0  0  0  0  0  0  0  0  0  0  0  0
    9.0858   11.3945   23.5524 C   0  0  0  0  0  0  0  0  0  0  0  0
   12.0004   14.8180   22.1392 C   0  0  0  0  0  0  0  0  0  0  0  0
   12.8970   15.6959   22.7725 C   0  0  0  0  0  0  0  0  0  0  0  0
   11.0902   15.6531   21.5473 C   0  0  0  0  0  0  0  0  0  0  0  0
    8.9364   10.0480   23.8428 C   0  0  0  0  0  0  0  0  0  0  0  0
   10.0302   11.8685   22.5525 C   0  0  0  0  0  0  0  0  0  0  0  0
   14.0883   15.3578   23.5696 C   0  0  0  0  0  0  0  0  0  0  0  0
    9.8904   15.4374   20.7280 C   0  0  0  0  0  0  0  0  0  0  0  0
   12.0282   13.3171   22.1137 C   0  0  0  0  0  0  0  0  0  0  0  0
    8.0719    9.5634   24.7623 N   0  0  0  0  0  0  0  0  0  0  0  0
   12.5680   16.9774   22.5876 N   0  0  0  0  0  0  0  0  0  0  0  0
   11.0321   12.7427   22.9892 N   0  0  0  0  0  0  0  0  0  0  0  0
    9.9210   11.5166   21.3647 O   0  0  0  0  0  0  0  0  0  0  0  0
   11.4182   16.9445   21.8077 O   0  0  0  0  0  0  0  0  0  0  0  0
    9.6945    9.1199   23.1769 O   0  0  0  0  0  0  0  0  0  0  0  0
    6.7722   12.5310   25.7623 H   0  0  0  0  0  0  0  0  0  0  0  0
    8.3768   13.3691   24.0598 H   0  0  0  0  0  0  0  0  0  0  0  0
    6.6362   10.0652   26.1545 H   0  0  0  0  0  0  0  0  0  0  0  0
   14.9889   15.2911   22.9354 H   0  0  0  0  0  0  0  0  0  0  0  0
   14.2904   16.1069   24.3559 H   0  0  0  0  0  0  0  0  0  0  0  0
   13.9788   14.3917   24.0942 H   0  0  0  0  0  0  0  0  0  0  0  0
    8.9834   15.3527   21.3533 H   0  0  0  0  0  0  0  0  0  0  0  0
    9.7183   16.2598   20.0086 H   0  0  0  0  0  0  0  0  0  0  0  0
    9.9569   14.5167   20.1183 H   0  0  0  0  0  0  0  0  0  0  0  0
   11.8418   12.9446   21.1005 H   0  0  0  0  0  0  0  0  0  0  0  0
   13.0068   12.9368   22.4250 H   0  0  0  0  0  0  0  0  0  0  0  0
   11.0376   13.0474   23.9572 H   0  0  0  0  0  0  0  0  0  0  0  0
   10.2759    9.5657   22.5456 H   0  0  0  0  0  0  0  0  0  0  0  0
  1  2  2  0  0  0  0
  1  3  1  0  0  0  0
  2  4  1  0  0  0  0
  3 13  2  0  0  0  0
  4  8  2  0  0  0  0
  4  9  1  0  0  0  0
  5  6  1  0  0  0  0
  5  7  2  0  0  0  0
  5 12  1  0  0  0  0
  6 10  1  0  0  0  0
  6 14  2  0  0  0  0
  7 11  1  0  0  0  0
  7 17  1  0  0  0  0
  8 13  1  0  0  0  0
  8 18  1  0  0  0  0
  9 15  1  0  0  0  0
  9 16  2  0  0  0  0
 12 15  1  0  0  0  0
 14 17  1  0  0  0  0
  1 19  1  0  0  0  0
  2 20  1  0  0  0  0
  3 21  1  0  0  0  0
 10 22  1  0  0  0  0
 10 23  1  0  0  0  0
 10 24  1  0  0  0  0
 11 25  1  0  0  0  0
 11 26  1  0  0  0  0
 11 27  1  0  0  0  0
 12 28  1  0  0  0  0
 12 29  1  0  0  0  0
 15 30  1  0  0  0  0
 18 31  1  0  0  0  0
M  END
> <idnumber>
Z829353558

> <heavy_atoms>
18

> <LogS>
-1.082

> <LogP>
1.782

> <rotating_bonds>
3

> <PSA>
88.25

> <hb_acceptors>
4

> <hb_donors>
2

> <Collection>
HTS

> <link>
https://www.enaminestore.com/catalog/Z829353558

> <ROCS_ShapeQuery>
_x1140_x0812_0A_x1140_0A_x1097_0A_x0365_0A_x1097_0A_x0310_0A

> <ROCS_TanimotoCombo>
0.631 

> <ROCS_ShapeTanimoto>
0.235 

> <ROCS_ColorTanimoto>
0.395 

> <ROCS_RefTversky>
0.215 

> <ROCS_RefColorTversky>
0.567 

> <ROCS_RefTverskyCombo>
0.782 

> <ROCS_FitTversky>
1.681 

> <ROCS_FitColorTversky>
0.566 

> <ROCS_FitTverskyCombo>
2.247 

> <ROCS_ColorScore>
-4.536

> <ROCS_Overlap>
2205.113

> <ROCS_Rank>
344                 

$$$$
untitled-dbase-776527_28
  -OEChem-02092421083D

 32 33  0     0  0  0  0  0  0999 V2000
    6.6662   10.2470   26.5464 C   0  0  0  0  0  0  0  0  0  0  0  0
    6.0725   11.1907   27.3836 C   0  0  0  0  0  0  0  0  0  0  0  0
    7.1272   12.9668   26.1293 C   0  0  0  0  0  0  0  0  0  0  0  0
    7.7295   12.0243   25.2874 C   0  0  0  0  0  0  0  0  0  0  0  0
    7.4985   10.6618   25.5036 C   0  0  0  0  0  0  0  0  0  0  0  0
    6.3035   12.5493   27.1760 C   0  0  0  0  0  0  0  0  0  0  0  0
    8.5748   12.4496   24.1801 C   0  0  0  0  0  0  0  0  0  0  0  0
    9.1950   11.4954   23.4825 C   0  0  0  0  0  0  0  0  0  0  0  0
   10.0565   11.9084   22.3730 C   0  0  0  0  0  0  0  0  0  0  0  0
   11.4388   15.6697   22.3405 C   0  0  0  0  0  0  0  0  0  0  0  0
    9.0548   10.0372   23.7826 C   0  0  0  0  0  0  0  0  0  0  0  0
   11.6642   14.6058   21.2813 C   0  0  0  0  0  0  0  0  0  0  0  0
   12.0823   13.2598   21.8566 C   0  0  0  0  0  0  0  0  0  0  0  0
   10.1357   15.6917   22.7903 N   0  0  0  0  0  0  0  0  0  0  0  0
   11.0991   12.7273   22.7725 N   0  0  0  0  0  0  0  0  0  0  0  0
    9.8320   11.5345   21.2213 O   0  0  0  0  0  0  0  0  0  0  0  0
   12.3160   16.4192   22.7593 O   0  0  0  0  0  0  0  0  0  0  0  0
    8.0269    9.6739   24.7183 O   0  0  0  0  0  0  0  0  0  0  0  0
    5.5674   13.7139   28.2083 Cl  0  0  0  0  0  0  0  0  0  0  0  0
    6.4773    9.1897   26.7129 H   0  0  0  0  0  0  0  0  0  0  0  0
    5.4301   10.8521   28.1925 H   0  0  0  0  0  0  0  0  0  0  0  0
    7.3001   14.0292   25.9668 H   0  0  0  0  0  0  0  0  0  0  0  0
    8.6811   13.5069   23.9660 H   0  0  0  0  0  0  0  0  0  0  0  0
    8.8350    9.4926   22.8573 H   0  0  0  0  0  0  0  0  0  0  0  0
   10.0030    9.6488   24.1721 H   0  0  0  0  0  0  0  0  0  0  0  0
   12.4190   14.9701   20.5738 H   0  0  0  0  0  0  0  0  0  0  0  0
   10.7213   14.4839   20.7347 H   0  0  0  0  0  0  0  0  0  0  0  0
   12.2363   12.5165   21.0677 H   0  0  0  0  0  0  0  0  0  0  0  0
   13.0155   13.3639   22.4187 H   0  0  0  0  0  0  0  0  0  0  0  0
    9.4717   15.0322   22.3986 H   0  0  0  0  0  0  0  0  0  0  0  0
    9.8171   16.3443   23.4995 H   0  0  0  0  0  0  0  0  0  0  0  0
   11.1767   12.9654   23.7571 H   0  0  0  0  0  0  0  0  0  0  0  0
  1  2  2  0  0  0  0
  1  5  1  0  0  0  0
  2  6  1  0  0  0  0
  3  4  1  0  0  0  0
  3  6  2  0  0  0  0
  4  5  2  0  0  0  0
  4  7  1  0  0  0  0
  5 18  1  0  0  0  0
  6 19  1  0  0  0  0
  7  8  2  0  0  0  0
  8  9  1  0  0  0  0
  8 11  1  0  0  0  0
  9 15  1  0  0  0  0
  9 16  2  0  0  0  0
 10 12  1  0  0  0  0
 10 14  1  0  0  0  0
 10 17  2  0  0  0  0
 11 18  1  0  0  0  0
 12 13  1  0  0  0  0
 13 15  1  0  0  0  0
  1 20  1  0  0  0  0
  2 21  1  0  0  0  0
  3 22  1  0  0  0  0
  7 23  1  0  0  0  0
 11 24  1  0  0  0  0
 11 25  1  0  0  0  0
 12 26  1  0  0  0  0
 12 27  1  0  0  0  0
 13 28  1  0  0  0  0
 13 29  1  0  0  0  0
 14 30  1  0  0  0  0
 14 31  1  0  0  0  0
 15 32  1  0  0  0  0
M  END
> <idnumber>
Z1268200359

> <heavy_atoms>
19

> <LogS>
-3.495

> <LogP>
1.636

> <rotating_bonds>
4

> <PSA>
81.42

> <hb_acceptors>
3

> <hb_donors>
2

> <Collection>
HTS

> <link>
https://www.enaminestore.com/catalog/Z1268200359

> <ROCS_ShapeQuery>
_x1140_x0812_0A_x1140_0A_x1097_0A_x0365_0A_x1097_0A_x0310_0A

> <ROCS_TanimotoCombo>
0.631 

> <ROCS_ShapeTanimoto>
0.256 

> <ROCS_ColorTanimoto>
0.374 

> <ROCS_RefTversky>
0.230 

> <ROCS_RefColorTversky>
0.514 

> <ROCS_RefTverskyCombo>
0.745 

> <ROCS_FitTversky>
1.774 

> <ROCS_FitColorTversky>
0.579 

> <ROCS_FitTverskyCombo>
2.354 

> <ROCS_ColorScore>
-4.088

> <ROCS_Overlap>
2364.835

> <ROCS_Rank>
345                 

$$$$
untitled-dbase-564608_189
  -OEChem-02092421083D

 34 36  0     0  0  0  0  0  0999 V2000
    7.4211   12.0160   25.0950 C   0  0  0  0  0  0  0  0  0  0  0  0
    8.2847   12.4297   24.0869 C   0  0  0  0  0  0  0  0  0  0  0  0
   12.0739    9.5962   24.1102 C   0  0  0  0  0  0  0  0  0  0  0  0
   13.4583    9.4762   23.9896 C   0  0  0  0  0  0  0  0  0  0  0  0
   11.7929    8.5004   21.9754 C   0  0  0  0  0  0  0  0  0  0  0  0
    7.4126   10.6717   25.4306 C   0  0  0  0  0  0  0  0  0  0  0  0
    9.1020   11.4997   23.4542 C   0  0  0  0  0  0  0  0  0  0  0  0
   11.2411    9.1083   23.1031 C   0  0  0  0  0  0  0  0  0  0  0  0
   14.0100    8.8683   22.8619 C   0  0  0  0  0  0  0  0  0  0  0  0
   13.1773    8.3804   21.8548 C   0  0  0  0  0  0  0  0  0  0  0  0
    9.0185   10.1785   23.8634 C   0  0  0  0  0  0  0  0  0  0  0  0
    9.9995   11.9421   22.3959 C   0  0  0  0  0  0  0  0  0  0  0  0
   11.5318   14.6094   20.9091 C   0  0  0  0  0  0  0  0  0  0  0  0
   12.5260   14.8047   22.0172 C   0  0  0  0  0  0  0  0  0  0  0  0
   11.9035   13.4557   21.7962 C   0  0  0  0  0  0  0  0  0  0  0  0
    8.1919    9.7390   24.8386 N   0  0  0  0  0  0  0  0  0  0  0  0
    9.8414    9.2300   23.2255 N   0  0  0  0  0  0  0  0  0  0  0  0
   10.9585   12.9010   22.7386 N   0  0  0  0  0  0  0  0  0  0  0  0
    9.8856   11.4895   21.2441 O   0  0  0  0  0  0  0  0  0  0  0  0
   15.7322    8.7497   22.7707 Cl  0  0  0  0  0  0  0  0  0  0  0  0
   13.8009    7.6177   20.4342 Cl  0  0  0  0  0  0  0  0  0  0  0  0
    6.7737   12.7233   25.6007 H   0  0  0  0  0  0  0  0  0  0  0  0
    8.3116   13.4785   23.8030 H   0  0  0  0  0  0  0  0  0  0  0  0
   11.6545   10.0717   24.9932 H   0  0  0  0  0  0  0  0  0  0  0  0
   14.0923    9.8621   24.7840 H   0  0  0  0  0  0  0  0  0  0  0  0
   11.1375    8.1221   21.1937 H   0  0  0  0  0  0  0  0  0  0  0  0
    6.7569   10.2983   26.2102 H   0  0  0  0  0  0  0  0  0  0  0  0
   10.5535   15.0593   21.0272 H   0  0  0  0  0  0  0  0  0  0  0  0
   11.9035   14.6038   19.8916 H   0  0  0  0  0  0  0  0  0  0  0  0
   13.5666   14.9301   21.7452 H   0  0  0  0  0  0  0  0  0  0  0  0
   12.2131   15.3834   22.8777 H   0  0  0  0  0  0  0  0  0  0  0  0
   12.5387   12.6925   21.3595 H   0  0  0  0  0  0  0  0  0  0  0  0
    9.3266    8.4866   22.7627 H   0  0  0  0  0  0  0  0  0  0  0  0
   10.9662   13.2827   23.6788 H   0  0  0  0  0  0  0  0  0  0  0  0
  1  2  2  0  0  0  0
  1  6  1  0  0  0  0
  2  7  1  0  0  0  0
  3  4  2  0  0  0  0
  3  8  1  0  0  0  0
  4  9  1  0  0  0  0
  5  8  2  0  0  0  0
  5 10  1  0  0  0  0
  6 16  2  0  0  0  0
  7 11  2  0  0  0  0
  7 12  1  0  0  0  0
  8 17  1  0  0  0  0
  9 10  2  0  0  0  0
  9 20  1  0  0  0  0
 10 21  1  0  0  0  0
 11 16  1  0  0  0  0
 11 17  1  0  0  0  0
 12 18  1  0  0  0  0
 12 19  2  0  0  0  0
 13 14  1  0  0  0  0
 13 15  1  0  0  0  0
 14 15  1  0  0  0  0
 15 18  1  0  0  0  0
  1 22  1  0  0  0  0
  2 23  1  0  0  0  0
  3 24  1  0  0  0  0
  4 25  1  0  0  0  0
  5 26  1  0  0  0  0
  6 27  1  0  0  0  0
 13 28  1  0  0  0  0
 13 29  1  0  0  0  0
 14 30  1  0  0  0  0
 14 31  1  0  0  0  0
 15 32  1  0  0  0  0
 17 33  1  0  0  0  0
 18 34  1  0  0  0  0
M  END
> <idnumber>
Z812538022

> <heavy_atoms>
21

> <LogS>
-4.796

> <LogP>
4.952

> <rotating_bonds>
4

> <PSA>
54.02

> <hb_acceptors>
3

> <hb_donors>
2

> <Collection>
HTS

> <link>
https://www.enaminestore.com/catalog/Z812538022

> <ROCS_ShapeQuery>
_x1140_x0812_0A_x1140_0A_x1097_0A_x0365_0A_x1097_0A_x0310_0A

> <ROCS_TanimotoCombo>
0.631 

> <ROCS_ShapeTanimoto>
0.238 

> <ROCS_ColorTanimoto>
0.393 

> <ROCS_RefTversky>
0.219 

> <ROCS_RefColorTversky>
0.500 

> <ROCS_RefTverskyCombo>
0.718 

> <ROCS_FitTversky>
1.582 

> <ROCS_FitColorTversky>
0.647 

> <ROCS_FitTverskyCombo>
2.229 

> <ROCS_ColorScore>
-3.948

> <ROCS_Overlap>
2246.419

> <ROCS_Rank>
346                 

$$$$
untitled-dbase-967208_56
  -OEChem-02092421083D

 36 36  0     0  0  0  0  0  0999 V2000
    8.3243   12.5487   24.0382 C   0  0  0  0  0  0  0  0  0  0  0  0
    7.4766   12.1487   25.0652 C   0  0  0  0  0  0  0  0  0  0  0  0
    9.1507   11.6150   23.4229 C   0  0  0  0  0  0  0  0  0  0  0  0
    7.4929   10.8140   25.4369 C   0  0  0  0  0  0  0  0  0  0  0  0
    9.0922   10.3042   23.8682 C   0  0  0  0  0  0  0  0  0  0  0  0
   10.0516   12.0524   22.3256 C   0  0  0  0  0  0  0  0  0  0  0  0
    6.5962   10.3495   26.5355 C   0  0  0  0  0  0  0  0  0  0  0  0
   11.1152   14.2238   20.5559 C   0  0  0  0  0  0  0  0  0  0  0  0
   12.7700   12.4333   21.1279 C   0  0  0  0  0  0  0  0  0  0  0  0
   11.3540    9.4576   23.2412 C   0  0  0  0  0  0  0  0  0  0  0  0
   12.7844   14.6362   22.3787 C   0  0  0  0  0  0  0  0  0  0  0  0
   11.9098   13.5707   21.6949 C   0  0  0  0  0  0  0  0  0  0  0  0
    8.2817    9.8781   24.8628 N   0  0  0  0  0  0  0  0  0  0  0  0
    9.9321    9.3466   23.2459 N   0  0  0  0  0  0  0  0  0  0  0  0
   10.9756   13.0220   22.6638 N   0  0  0  0  0  0  0  0  0  0  0  0
    9.9184   11.5607   21.2080 O   0  0  0  0  0  0  0  0  0  0  0  0
   11.9958   15.6829   22.9335 O   0  0  0  0  0  0  0  0  0  0  0  0
    8.3320   13.5898   23.7263 H   0  0  0  0  0  0  0  0  0  0  0  0
    6.8263   12.8672   25.5525 H   0  0  0  0  0  0  0  0  0  0  0  0
    5.6291   10.0304   26.1288 H   0  0  0  0  0  0  0  0  0  0  0  0
    7.0398    9.5072   27.0814 H   0  0  0  0  0  0  0  0  0  0  0  0
    6.4202   11.1468   27.2689 H   0  0  0  0  0  0  0  0  0  0  0  0
   10.4881   15.0426   20.9260 H   0  0  0  0  0  0  0  0  0  0  0  0
   11.7846   14.6314   19.7893 H   0  0  0  0  0  0  0  0  0  0  0  0
   10.4615   13.4961   20.0609 H   0  0  0  0  0  0  0  0  0  0  0  0
   13.3551   11.9393   21.9118 H   0  0  0  0  0  0  0  0  0  0  0  0
   13.4674   12.8042   20.3687 H   0  0  0  0  0  0  0  0  0  0  0  0
   12.1449   11.6619   20.6628 H   0  0  0  0  0  0  0  0  0  0  0  0
   11.6529   10.3690   23.7798 H   0  0  0  0  0  0  0  0  0  0  0  0
   11.7919    8.5786   23.7369 H   0  0  0  0  0  0  0  0  0  0  0  0
   11.7141    9.5106   22.2032 H   0  0  0  0  0  0  0  0  0  0  0  0
   13.3638   14.1964   23.1977 H   0  0  0  0  0  0  0  0  0  0  0  0
   13.4924   15.0856   21.6728 H   0  0  0  0  0  0  0  0  0  0  0  0
    9.4780    8.5759   22.8006 H   0  0  0  0  0  0  0  0  0  0  0  0
   10.9900   13.4300   23.5887 H   0  0  0  0  0  0  0  0  0  0  0  0
   12.6133   16.3095   23.3430 H   0  0  0  0  0  0  0  0  0  0  0  0
  1  2  2  0  0  0  0
  1  3  1  0  0  0  0
  2  4  1  0  0  0  0
  3  5  2  0  0  0  0
  3  6  1  0  0  0  0
  4  7  1  0  0  0  0
  4 13  2  0  0  0  0
  5 13  1  0  0  0  0
  5 14  1  0  0  0  0
  6 15  1  0  0  0  0
  6 16  2  0  0  0  0
  8 12  1  0  0  0  0
  9 12  1  0  0  0  0
 10 14  1  0  0  0  0
 11 12  1  0  0  0  0
 11 17  1  0  0  0  0
 12 15  1  0  0  0  0
  1 18  1  0  0  0  0
  2 19  1  0  0  0  0
  7 20  1  0  0  0  0
  7 21  1  0  0  0  0
  7 22  1  0  0  0  0
  8 23  1  0  0  0  0
  8 24  1  0  0  0  0
  8 25  1  0  0  0  0
  9 26  1  0  0  0  0
  9 27  1  0  0  0  0
  9 28  1  0  0  0  0
 10 29  1  0  0  0  0
 10 30  1  0  0  0  0
 10 31  1  0  0  0  0
 11 32  1  0  0  0  0
 11 33  1  0  0  0  0
 14 34  1  0  0  0  0
 15 35  1  0  0  0  0
 17 36  1  0  0  0  0
M  END
> <idnumber>
Z2893434592

> <heavy_atoms>
17

> <LogS>
-1.436

> <LogP>
1.679

> <rotating_bonds>
4

> <PSA>
74.25

> <hb_acceptors>
4

> <hb_donors>
3

> <Collection>
Advanced

> <link>
https://www.enaminestore.com/catalog/Z2893434592

> <ROCS_ShapeQuery>
_x1140_x0812_0A_x1140_0A_x1097_0A_x0365_0A_x1097_0A_x0310_0A

> <ROCS_TanimotoCombo>
0.631 

> <ROCS_ShapeTanimoto>
0.255 

> <ROCS_ColorTanimoto>
0.375 

> <ROCS_RefTversky>
0.228 

> <ROCS_RefColorTversky>
0.546 

> <ROCS_RefTverskyCombo>
0.774 

> <ROCS_FitTversky>
1.889 

> <ROCS_FitColorTversky>
0.546 

> <ROCS_FitTverskyCombo>
2.434 

> <ROCS_ColorScore>
-4.365

> <ROCS_Overlap>
2339.311

> <ROCS_Rank>
347                 

$$$$
untitled-dbase-318087_8
  -OEChem-02092421083D

 29 30  0     0  0  0  0  0  0999 V2000
   11.9523   15.0651   22.2486 C   0  0  0  0  0  0  0  0  0  0  0  0
    5.3653   12.1084   26.5017 C   0  0  0  0  0  0  0  0  0  0  0  0
    5.1959   10.7325   26.4101 C   0  0  0  0  0  0  0  0  0  0  0  0
    6.4789   12.7040   25.9164 C   0  0  0  0  0  0  0  0  0  0  0  0
    6.1398    9.9556   25.7339 C   0  0  0  0  0  0  0  0  0  0  0  0
    7.4282   11.9223   25.2363 C   0  0  0  0  0  0  0  0  0  0  0  0
    9.4774   11.6967   23.9735 C   0  0  0  0  0  0  0  0  0  0  0  0
    8.5583   12.4958   24.6380 C   0  0  0  0  0  0  0  0  0  0  0  0
    7.2626   10.5248   25.1392 C   0  0  0  0  0  0  0  0  0  0  0  0
    9.2301   10.3396   23.9311 C   0  0  0  0  0  0  0  0  0  0  0  0
   10.6620   12.2610   23.3385 C   0  0  0  0  0  0  0  0  0  0  0  0
    8.8014   13.9743   24.7004 C   0  0  0  0  0  0  0  0  0  0  0  0
   11.5191   13.8345   21.5891 C   0  0  0  0  0  0  0  0  0  0  0  0
   12.2989   16.0422   22.7697 N   0  0  0  0  0  0  0  0  0  0  0  0
    8.1529    9.7468   24.4950 N   0  0  0  0  0  0  0  0  0  0  0  0
   10.4491   13.2036   22.3279 N   0  0  0  0  0  0  0  0  0  0  0  0
   11.7962   11.8896   23.6827 O   0  0  0  0  0  0  0  0  0  0  0  0
   10.1052    9.5058   23.2840 O   0  0  0  0  0  0  0  0  0  0  0  0
    4.6339   12.7148   27.0273 H   0  0  0  0  0  0  0  0  0  0  0  0
    4.3297   10.2591   26.8633 H   0  0  0  0  0  0  0  0  0  0  0  0
    6.5864   13.7822   26.0048 H   0  0  0  0  0  0  0  0  0  0  0  0
    5.9853    8.8795   25.6785 H   0  0  0  0  0  0  0  0  0  0  0  0
    9.3878   14.2194   25.5909 H   0  0  0  0  0  0  0  0  0  0  0  0
    9.3430   14.3185   23.8134 H   0  0  0  0  0  0  0  0  0  0  0  0
    7.8553   14.5241   24.7363 H   0  0  0  0  0  0  0  0  0  0  0  0
   11.1496   14.0372   20.5799 H   0  0  0  0  0  0  0  0  0  0  0  0
   12.3403   13.1157   21.5178 H   0  0  0  0  0  0  0  0  0  0  0  0
    9.5000   13.4233   22.0438 H   0  0  0  0  0  0  0  0  0  0  0  0
   10.8354   10.0217   22.9152 H   0  0  0  0  0  0  0  0  0  0  0  0
  1 13  1  0  0  0  0
  1 14  3  0  0  0  0
  2  3  1  0  0  0  0
  2  4  2  0  0  0  0
  3  5  2  0  0  0  0
  4  6  1  0  0  0  0
  5  9  1  0  0  0  0
  6  8  2  0  0  0  0
  6  9  1  0  0  0  0
  7  8  1  0  0  0  0
  7 10  2  0  0  0  0
  7 11  1  0  0  0  0
  8 12  1  0  0  0  0
  9 15  2  0  0  0  0
 10 15  1  0  0  0  0
 10 18  1  0  0  0  0
 11 16  1  0  0  0  0
 11 17  2  0  0  0  0
 13 16  1  0  0  0  0
  2 19  1  0  0  0  0
  3 20  1  0  0  0  0
  4 21  1  0  0  0  0
  5 22  1  0  0  0  0
 12 23  1  0  0  0  0
 12 24  1  0  0  0  0
 12 25  1  0  0  0  0
 13 26  1  0  0  0  0
 13 27  1  0  0  0  0
 16 28  1  0  0  0  0
 18 29  1  0  0  0  0
M  END
> <idnumber>
Z1343947674

> <heavy_atoms>
18

> <LogS>
-3.308

> <LogP>
2.308

> <rotating_bonds>
2

> <PSA>
86.01

> <hb_acceptors>
4

> <hb_donors>
2

> <Collection>
Functional

> <link>
https://www.enaminestore.com/catalog/Z1343947674

> <ROCS_ShapeQuery>
_x1140_x0812_0A_x1140_0A_x1097_0A_x0365_0A_x1097_0A_x0310_0A

> <ROCS_TanimotoCombo>
0.631 

> <ROCS_ShapeTanimoto>
0.292 

> <ROCS_ColorTanimoto>
0.339 

> <ROCS_RefTversky>
0.255 

> <ROCS_RefColorTversky>
0.507 

> <ROCS_RefTverskyCombo>
0.761 

> <ROCS_FitTversky>
1.989 

> <ROCS_FitColorTversky>
0.506 

> <ROCS_FitTverskyCombo>
2.495 

> <ROCS_ColorScore>
-4.053

> <ROCS_Overlap>
2614.765

> <ROCS_Rank>
348                 

$$$$
untitled-dbase-841065_118
  -OEChem-02092421083D

 43 45  0     1  0  0  0  0  0999 V2000
   13.2643   16.5798   27.5599 C   0  0  0  0  0  0  0  0  0  0  0  0
   11.9759   16.8480   27.0976 C   0  0  0  0  0  0  0  0  0  0  0  0
   14.1982   15.9811   26.7143 C   0  0  0  0  0  0  0  0  0  0  0  0
   11.6214   16.5174   25.7897 C   0  0  0  0  0  0  0  0  0  0  0  0
   13.8437   15.6505   25.4064 C   0  0  0  0  0  0  0  0  0  0  0  0
    7.3565   11.8391   25.1997 C   0  0  0  0  0  0  0  0  0  0  0  0
    7.3177   10.4686   25.3992 C   0  0  0  0  0  0  0  0  0  0  0  0
    9.0829   11.4584   23.5690 C   0  0  0  0  0  0  0  0  0  0  0  0
   12.5552   15.9186   24.9440 C   0  0  0  0  0  0  0  0  0  0  0  0
    8.2588   12.3354   24.2654 C   0  0  0  0  0  0  0  0  0  0  0  0
    8.9669   10.1049   23.8417 C   0  0  0  0  0  0  0  0  0  0  0  0
   10.0591   11.9542   22.5649 C   0  0  0  0  0  0  0  0  0  0  0  0
   14.0089   14.9689   22.1239 C   0  0  0  0  0  0  0  0  0  0  0  0
   13.3311   16.2141   21.5997 C   0  0  0  0  0  0  0  0  0  0  0  0
   12.1708   15.5591   23.5236 C   0  0  2  0  0  0  0  0  0  0  0  0
   12.9378   14.3390   22.9941 C   0  0  1  0  0  0  0  0  0  0  0  0
    8.3213   13.8092   24.0316 C   0  0  0  0  0  0  0  0  0  0  0  0
   12.0248   13.4188   22.1812 C   0  0  0  0  0  0  0  0  0  0  0  0
    8.1024    9.5855   24.7420 N   0  0  0  0  0  0  0  0  0  0  0  0
   11.0341   12.8389   23.0285 N   0  0  0  0  0  0  0  0  0  0  0  0
    9.9558   11.5895   21.3966 O   0  0  0  0  0  0  0  0  0  0  0  0
   12.4420   16.6578   22.6306 O   0  0  0  0  0  0  0  0  0  0  0  0
    9.7602    9.2046   23.1786 O   0  0  0  0  0  0  0  0  0  0  0  0
   13.5406   16.8385   28.5779 H   0  0  0  0  0  0  0  0  0  0  0  0
   11.2489   17.3151   27.7556 H   0  0  0  0  0  0  0  0  0  0  0  0
   15.2017   15.7731   27.0735 H   0  0  0  0  0  0  0  0  0  0  0  0
   10.6151   16.7299   25.4382 H   0  0  0  0  0  0  0  0  0  0  0  0
   14.5778   15.1842   24.7547 H   0  0  0  0  0  0  0  0  0  0  0  0
    6.6994   12.4961   25.7593 H   0  0  0  0  0  0  0  0  0  0  0  0
    6.6314   10.0311   26.1171 H   0  0  0  0  0  0  0  0  0  0  0  0
   14.2654   14.3021   21.2854 H   0  0  0  0  0  0  0  0  0  0  0  0
   14.9382   15.1900   22.6669 H   0  0  0  0  0  0  0  0  0  0  0  0
   14.0567   17.0134   21.4144 H   0  0  0  0  0  0  0  0  0  0  0  0
   12.7690   16.0319   20.6797 H   0  0  0  0  0  0  0  0  0  0  0  0
   11.0746   15.3818   23.5022 H   0  0  0  0  0  0  0  0  0  0  0  0
   13.3913   13.7746   23.7909 H   0  0  0  0  0  0  0  0  0  0  0  0
    9.0509   14.2703   24.7073 H   0  0  0  0  0  0  0  0  0  0  0  0
    8.6108   14.0346   22.9979 H   0  0  0  0  0  0  0  0  0  0  0  0
    7.3440   14.2788   24.1991 H   0  0  0  0  0  0  0  0  0  0  0  0
   11.5527   14.0233   21.4053 H   0  0  0  0  0  0  0  0  0  0  0  0
   12.6487   12.6401   21.7402 H   0  0  0  0  0  0  0  0  0  0  0  0
   11.0056   13.1366   24.0072 H   0  0  0  0  0  0  0  0  0  0  0  0
    9.5588    8.3080   23.4800 H   0  0  0  0  0  0  0  0  0  0  0  0
  1  2  1  0  0  0  0
  1  3  2  0  0  0  0
  2  4  2  0  0  0  0
  3  5  1  0  0  0  0
  4  9  1  0  0  0  0
  5  9  2  0  0  0  0
  6  7  2  0  0  0  0
  6 10  1  0  0  0  0
  7 19  1  0  0  0  0
  8 10  2  0  0  0  0
  8 11  1  0  0  0  0
  8 12  1  0  0  0  0
  9 15  1  6  0  0  0
 10 17  1  0  0  0  0
 11 19  2  0  0  0  0
 11 23  1  0  0  0  0
 12 20  1  0  0  0  0
 12 21  2  0  0  0  0
 13 14  1  0  0  0  0
 13 16  1  0  0  0  0
 14 22  1  0  0  0  0
 15 16  1  0  0  0  0
 15 22  1  0  0  0  0
 16 18  1  1  0  0  0
 18 20  1  0  0  0  0
  1 24  1  0  0  0  0
  2 25  1  0  0  0  0
  3 26  1  0  0  0  0
  4 27  1  0  0  0  0
  5 28  1  0  0  0  0
  6 29  1  0  0  0  0
  7 30  1  0  0  0  0
 13 31  1  0  0  0  0
 13 32  1  0  0  0  0
 14 33  1  0  0  0  0
 14 34  1  0  0  0  0
 15 35  1  0  0  0  0
 16 36  1  0  0  0  0
 17 37  1  0  0  0  0
 17 38  1  0  0  0  0
 17 39  1  0  0  0  0
 18 40  1  0  0  0  0
 18 41  1  0  0  0  0
 20 42  1  0  0  0  0
 23 43  1  0  0  0  0
M  END
> <idnumber>
Z1754079190

> <heavy_atoms>
23

> <LogS>
-3.37

> <LogP>
2.936

> <rotating_bonds>
4

> <PSA>
71.45

> <hb_acceptors>
4

> <hb_donors>
2

> <Collection>
Advanced

> <link>
https://www.enaminestore.com/catalog/Z1754079190

> <ROCS_ShapeQuery>
_x1140_x0812_0A_x1140_0A_x1097_0A_x0365_0A_x1097_0A_x0310_0A

> <ROCS_TanimotoCombo>
0.630 

> <ROCS_ShapeTanimoto>
0.238 

> <ROCS_ColorTanimoto>
0.392 

> <ROCS_RefTversky>
0.221 

> <ROCS_RefColorTversky>
0.595 

> <ROCS_RefTverskyCombo>
0.816 

> <ROCS_FitTversky>
1.489 

> <ROCS_FitColorTversky>
0.535 

> <ROCS_FitTverskyCombo>
2.024 

> <ROCS_ColorScore>
-4.793

> <ROCS_Overlap>
2268.363

> <ROCS_Rank>
349                 

$$$$
untitled-dbase-842121_61
  -OEChem-02092421083D

 47 50  0     1  0  0  0  0  0999 V2000
    5.6558   12.5609   26.5118 C   0  0  0  0  0  0  0  0  0  0  0  0
    5.5451   11.2086   26.8106 C   0  0  0  0  0  0  0  0  0  0  0  0
    6.6257   12.9879   25.6094 C   0  0  0  0  0  0  0  0  0  0  0  0
    6.4039   10.2868   26.2068 C   0  0  0  0  0  0  0  0  0  0  0  0
    7.4894   12.0605   25.0021 C   0  0  0  0  0  0  0  0  0  0  0  0
    9.3120   11.5227   23.5075 C   0  0  0  0  0  0  0  0  0  0  0  0
    8.4746   12.4629   24.0903 C   0  0  0  0  0  0  0  0  0  0  0  0
    7.3826   10.6860   25.3007 C   0  0  0  0  0  0  0  0  0  0  0  0
    9.1316   10.2010   23.8617 C   0  0  0  0  0  0  0  0  0  0  0  0
   12.2759   14.5595   22.4410 C   0  0  0  0  0  0  0  0  0  0  0  0
   11.1291   16.2575   21.9745 C   0  0  0  0  0  0  0  0  0  0  0  0
   10.3533   11.9098   22.5463 C   0  0  0  0  0  0  0  0  0  0  0  0
   13.9026   12.7958   23.2621 C   0  0  0  0  0  0  0  0  0  0  0  0
   12.0926   11.6053   24.2780 C   0  0  0  0  0  0  0  0  0  0  0  0
   12.6384   13.0869   22.4435 C   0  0  1  0  0  0  0  0  0  0  0  0
   13.3752   12.3441   24.6226 C   0  0  1  0  0  0  0  0  0  0  0  0
    8.6478   13.9069   23.7245 C   0  0  0  0  0  0  0  0  0  0  0  0
   10.0127   17.0054   21.3829 C   0  0  0  0  0  0  0  0  0  0  0  0
   14.0550   11.4257   26.6687 C   0  0  0  0  0  0  0  0  0  0  0  0
    8.1939    9.7712   24.7368 N   0  0  0  0  0  0  0  0  0  0  0  0
   12.8997   15.5762   22.9888 N   0  0  0  0  0  0  0  0  0  0  0  0
   12.1452   16.6932   22.6820 N   0  0  0  0  0  0  0  0  0  0  0  0
   11.6112   12.2201   23.0490 N   0  0  0  0  0  0  0  0  0  0  0  0
   10.0418   11.9169   21.3571 O   0  0  0  0  0  0  0  0  0  0  0  0
   11.1405   14.9107   21.7776 O   0  0  0  0  0  0  0  0  0  0  0  0
    9.9303    9.2316   23.3121 O   0  0  0  0  0  0  0  0  0  0  0  0
   14.2943   11.4851   25.2695 O   0  0  0  0  0  0  0  0  0  0  0  0
    4.9904   13.2798   26.9802 H   0  0  0  0  0  0  0  0  0  0  0  0
    4.7908   10.8661   27.5133 H   0  0  0  0  0  0  0  0  0  0  0  0
    6.6904   14.0518   25.3954 H   0  0  0  0  0  0  0  0  0  0  0  0
    6.2983    9.2333   26.4597 H   0  0  0  0  0  0  0  0  0  0  0  0
   14.5171   12.0257   22.7795 H   0  0  0  0  0  0  0  0  0  0  0  0
   14.5167   13.6985   23.3902 H   0  0  0  0  0  0  0  0  0  0  0  0
   12.2317   10.5249   24.1389 H   0  0  0  0  0  0  0  0  0  0  0  0
   11.3206   11.7708   25.0424 H   0  0  0  0  0  0  0  0  0  0  0  0
   12.7779   12.7456   21.3846 H   0  0  0  0  0  0  0  0  0  0  0  0
   13.1860   13.2107   25.2886 H   0  0  0  0  0  0  0  0  0  0  0  0
    9.3591   14.3824   24.4062 H   0  0  0  0  0  0  0  0  0  0  0  0
    9.0176   14.0080   22.6990 H   0  0  0  0  0  0  0  0  0  0  0  0
    7.6933   14.4405   23.7791 H   0  0  0  0  0  0  0  0  0  0  0  0
   10.2492   17.3424   20.3573 H   0  0  0  0  0  0  0  0  0  0  0  0
    9.0858   16.4041   21.3255 H   0  0  0  0  0  0  0  0  0  0  0  0
    9.7487   17.9044   21.9714 H   0  0  0  0  0  0  0  0  0  0  0  0
   14.7810   10.7552   27.1351 H   0  0  0  0  0  0  0  0  0  0  0  0
   13.0398   11.0641   26.8506 H   0  0  0  0  0  0  0  0  0  0  0  0
   14.1640   12.4275   27.0908 H   0  0  0  0  0  0  0  0  0  0  0  0
   10.5623    9.6364   22.7022 H   0  0  0  0  0  0  0  0  0  0  0  0
  1  2  1  0  0  0  0
  1  3  2  0  0  0  0
  2  4  2  0  0  0  0
  3  5  1  0  0  0  0
  4  8  1  0  0  0  0
  5  7  2  0  0  0  0
  5  8  1  0  0  0  0
  6  7  1  0  0  0  0
  6  9  2  0  0  0  0
  6 12  1  0  0  0  0
  7 17  1  0  0  0  0
  8 20  2  0  0  0  0
  9 20  1  0  0  0  0
  9 26  1  0  0  0  0
 10 15  1  6  0  0  0
 10 21  2  0  0  0  0
 10 25  1  0  0  0  0
 11 18  1  0  0  0  0
 11 22  2  0  0  0  0
 11 25  1  0  0  0  0
 12 23  1  0  0  0  0
 12 24  2  0  0  0  0
 13 15  1  0  0  0  0
 13 16  1  0  0  0  0
 14 16  1  0  0  0  0
 14 23  1  0  0  0  0
 15 23  1  0  0  0  0
 16 27  1  1  0  0  0
 19 27  1  0  0  0  0
 21 22  1  0  0  0  0
  1 28  1  0  0  0  0
  2 29  1  0  0  0  0
  3 30  1  0  0  0  0
  4 31  1  0  0  0  0
 13 32  1  0  0  0  0
 13 33  1  0  0  0  0
 14 34  1  0  0  0  0
 14 35  1  0  0  0  0
 15 36  1  0  0  0  0
 16 37  1  0  0  0  0
 17 38  1  0  0  0  0
 17 39  1  0  0  0  0
 17 40  1  0  0  0  0
 18 41  1  0  0  0  0
 18 42  1  0  0  0  0
 18 43  1  0  0  0  0
 19 44  1  0  0  0  0
 19 45  1  0  0  0  0
 19 46  1  0  0  0  0
 26 47  1  0  0  0  0
M  END
> <idnumber>
Z1754144132

> <heavy_atoms>
27

> <LogS>
-3.62

> <LogP>
0.845

> <rotating_bonds>
3

> <PSA>
101.58

> <hb_acceptors>
6

> <hb_donors>
1

> <Collection>
Premium

> <link>
https://www.enaminestore.com/catalog/Z1754144132

> <ROCS_ShapeQuery>
_x1140_x0812_0A_x1140_0A_x1097_0A_x0365_0A_x1097_0A_x0310_0A

> <ROCS_TanimotoCombo>
0.630 

> <ROCS_ShapeTanimoto>
0.309 

> <ROCS_ColorTanimoto>
0.321 

> <ROCS_RefTversky>
0.276 

> <ROCS_RefColorTversky>
0.575 

> <ROCS_RefTverskyCombo>
0.851 

> <ROCS_FitTversky>
1.634 

> <ROCS_FitColorTversky>
0.421 

> <ROCS_FitTverskyCombo>
2.055 

> <ROCS_ColorScore>
-4.696

> <ROCS_Overlap>
2839.007

> <ROCS_Rank>
350                 

$$$$
untitled-dbase-296473_7
  -OEChem-02092421083D

 29 31  0     0  0  0  0  0  0999 V2000
    8.3557   12.6515   24.1203 C   0  0  0  0  0  0  0  0  0  0  0  0
    7.3687   12.0658   24.9053 C   0  0  0  0  0  0  0  0  0  0  0  0
   12.5480   15.9279   20.3567 C   0  0  0  0  0  0  0  0  0  0  0  0
    9.2589   10.4859   23.7320 C   0  0  0  0  0  0  0  0  0  0  0  0
   12.2408   15.0299   19.3601 C   0  0  0  0  0  0  0  0  0  0  0  0
   11.7607   15.5087   23.8761 C   0  0  0  0  0  0  0  0  0  0  0  0
   12.1090   15.4836   21.6397 C   0  0  0  0  0  0  0  0  0  0  0  0
    9.3225   11.8535   23.5189 C   0  0  0  0  0  0  0  0  0  0  0  0
   11.4738   14.2443   21.5721 C   0  0  0  0  0  0  0  0  0  0  0  0
    7.3925   10.6886   25.0561 C   0  0  0  0  0  0  0  0  0  0  0  0
   10.9847   13.6677   22.7386 C   0  0  0  0  0  0  0  0  0  0  0  0
    5.0791   10.6762   25.9910 C   0  0  0  0  0  0  0  0  0  0  0  0
    8.3154    9.8807   24.4878 N   0  0  0  0  0  0  0  0  0  0  0  0
   12.2686   16.1533   22.8123 N   0  0  0  0  0  0  0  0  0  0  0  0
   11.1346   14.3179   23.9095 N   0  0  0  0  0  0  0  0  0  0  0  0
   10.3367   12.4185   22.7181 N   0  0  0  0  0  0  0  0  0  0  0  0
    6.3807   10.1072   25.8604 N   0  0  0  0  0  0  0  0  0  0  0  0
   11.4262   13.6533   19.9617 S   0  0  0  0  0  0  0  0  0  0  0  0
    8.3624   13.7295   23.9834 H   0  0  0  0  0  0  0  0  0  0  0  0
    6.6107   12.6810   25.3788 H   0  0  0  0  0  0  0  0  0  0  0  0
   13.0648   16.8614   20.1732 H   0  0  0  0  0  0  0  0  0  0  0  0
    9.9857    9.8114   23.2891 H   0  0  0  0  0  0  0  0  0  0  0  0
   12.4576   15.1188   18.3049 H   0  0  0  0  0  0  0  0  0  0  0  0
   11.8690   16.0115   24.8305 H   0  0  0  0  0  0  0  0  0  0  0  0
    5.0164   11.5923   25.3853 H   0  0  0  0  0  0  0  0  0  0  0  0
    4.3266    9.9538   25.6421 H   0  0  0  0  0  0  0  0  0  0  0  0
    4.8905   10.9212   27.0467 H   0  0  0  0  0  0  0  0  0  0  0  0
   10.6627   11.7997   21.9798 H   0  0  0  0  0  0  0  0  0  0  0  0
    6.6211    9.2659   26.3433 H   0  0  0  0  0  0  0  0  0  0  0  0
  1  2  2  0  0  0  0
  1  8  1  0  0  0  0
  2 10  1  0  0  0  0
  3  5  2  0  0  0  0
  3  7  1  0  0  0  0
  4  8  2  0  0  0  0
  4 13  1  0  0  0  0
  5 18  1  0  0  0  0
  6 14  1  0  0  0  0
  6 15  2  0  0  0  0
  7  9  1  0  0  0  0
  7 14  2  0  0  0  0
  8 16  1  0  0  0  0
  9 11  2  0  0  0  0
  9 18  1  0  0  0  0
 10 13  2  0  0  0  0
 10 17  1  0  0  0  0
 11 15  1  0  0  0  0
 11 16  1  0  0  0  0
 12 17  1  0  0  0  0
  1 19  1  0  0  0  0
  2 20  1  0  0  0  0
  3 21  1  0  0  0  0
  4 22  1  0  0  0  0
  5 23  1  0  0  0  0
  6 24  1  0  0  0  0
 12 25  1  0  0  0  0
 12 26  1  0  0  0  0
 12 27  1  0  0  0  0
 16 28  1  0  0  0  0
 17 29  1  0  0  0  0
M  END
> <idnumber>
Z729056182

> <heavy_atoms>
18

> <LogS>
-3.093

> <LogP>
2.986

> <rotating_bonds>
3

> <PSA>
62.73

> <hb_acceptors>
5

> <hb_donors>
2

> <Collection>
HTS

> <link>
https://www.enaminestore.com/catalog/Z729056182

> <ROCS_ShapeQuery>
_x1140_x0812_0A_x1140_0A_x1097_0A_x0365_0A_x1097_0A_x0310_0A

> <ROCS_TanimotoCombo>
0.630 

> <ROCS_ShapeTanimoto>
0.227 

> <ROCS_ColorTanimoto>
0.403 

> <ROCS_RefTversky>
0.209 

> <ROCS_RefColorTversky>
0.575 

> <ROCS_RefTverskyCombo>
0.784 

> <ROCS_FitTversky>
1.628 

> <ROCS_FitColorTversky>
0.574 

> <ROCS_FitTverskyCombo>
2.202 

> <ROCS_ColorScore>
-4.604

> <ROCS_Overlap>
2143.833

> <ROCS_Rank>
351                 

$$$$
untitled-dbase-782318_45
  -OEChem-02092421083D

 32 32  0     0  0  0  0  0  0999 V2000
    8.7072    9.6297   24.4301 C   0  0  0  0  0  0  0  0  0  0  0  0
    8.6450   12.4127   24.2470 C   0  0  0  0  0  0  0  0  0  0  0  0
    7.7622   10.3554   25.1553 C   0  0  0  0  0  0  0  0  0  0  0  0
    9.5900   11.6870   23.5218 C   0  0  0  0  0  0  0  0  0  0  0  0
    7.7310   11.7469   25.0638 C   0  0  0  0  0  0  0  0  0  0  0  0
    9.6212   10.2955   23.6134 C   0  0  0  0  0  0  0  0  0  0  0  0
   12.9815   15.3513   22.8345 C   0  0  0  0  0  0  0  0  0  0  0  0
   10.2952   13.6126   22.0592 C   0  0  0  0  0  0  0  0  0  0  0  0
    6.7996    9.6052   26.0183 C   0  0  0  0  0  0  0  0  0  0  0  0
   14.1809   15.3401   23.7488 C   0  0  0  0  0  0  0  0  0  0  0  0
   13.4514   12.9364   22.3948 C   0  0  0  0  0  0  0  0  0  0  0  0
   11.5345   14.0207   21.2864 C   0  0  0  0  0  0  0  0  0  0  0  0
   10.5025   12.3969   22.7055 N   0  0  0  0  0  0  0  0  0  0  0  0
   12.6689   14.1498   22.1975 N   0  0  0  0  0  0  0  0  0  0  0  0
   12.3431   16.3975   22.6920 O   0  0  0  0  0  0  0  0  0  0  0  0
    9.2825   14.3047   22.0836 O   0  0  0  0  0  0  0  0  0  0  0  0
    6.5759   12.6774   25.9464 Cl  0  0  0  0  0  0  0  0  0  0  0  0
   10.8869    9.2595   22.6498 Br  0  0  0  0  0  0  0  0  0  0  0  0
    8.7239    8.5445   24.5057 H   0  0  0  0  0  0  0  0  0  0  0  0
    8.6241   13.4982   24.1736 H   0  0  0  0  0  0  0  0  0  0  0  0
    7.2118    9.4810   27.0260 H   0  0  0  0  0  0  0  0  0  0  0  0
    5.8419   10.1338   26.0940 H   0  0  0  0  0  0  0  0  0  0  0  0
    6.5860    8.6133   25.6022 H   0  0  0  0  0  0  0  0  0  0  0  0
   15.0770   15.5998   23.1766 H   0  0  0  0  0  0  0  0  0  0  0  0
   14.0580   16.0811   24.5433 H   0  0  0  0  0  0  0  0  0  0  0  0
   14.3249   14.3424   24.1721 H   0  0  0  0  0  0  0  0  0  0  0  0
   13.0390   12.3670   23.2409 H   0  0  0  0  0  0  0  0  0  0  0  0
   13.4097   12.3211   21.4839 H   0  0  0  0  0  0  0  0  0  0  0  0
   14.4966   13.2049   22.6084 H   0  0  0  0  0  0  0  0  0  0  0  0
   11.3586   14.9769   20.7835 H   0  0  0  0  0  0  0  0  0  0  0  0
   11.7498   13.2587   20.5307 H   0  0  0  0  0  0  0  0  0  0  0  0
   11.4121   11.9560   22.5858 H   0  0  0  0  0  0  0  0  0  0  0  0
  1  3  2  0  0  0  0
  1  6  1  0  0  0  0
  2  4  1  0  0  0  0
  2  5  2  0  0  0  0
  3  5  1  0  0  0  0
  3  9  1  0  0  0  0
  4  6  2  0  0  0  0
  4 13  1  0  0  0  0
  5 17  1  0  0  0  0
  6 18  1  0  0  0  0
  7 10  1  0  0  0  0
  7 14  1  0  0  0  0
  7 15  2  0  0  0  0
  8 12  1  0  0  0  0
  8 13  1  0  0  0  0
  8 16  2  0  0  0  0
 11 14  1  0  0  0  0
 12 14  1  0  0  0  0
  1 19  1  0  0  0  0
  2 20  1  0  0  0  0
  9 21  1  0  0  0  0
  9 22  1  0  0  0  0
  9 23  1  0  0  0  0
 10 24  1  0  0  0  0
 10 25  1  0  0  0  0
 10 26  1  0  0  0  0
 11 27  1  0  0  0  0
 11 28  1  0  0  0  0
 11 29  1  0  0  0  0
 12 30  1  0  0  0  0
 12 31  1  0  0  0  0
 13 32  1  0  0  0  0
M  END
> <idnumber>
Z1695809018

> <heavy_atoms>
18

> <LogS>
-3.813

> <LogP>
2.183

> <rotating_bonds>
3

> <PSA>
49.41

> <hb_acceptors>
2

> <hb_donors>
1

> <Collection>
Legacy

> <link>
https://www.enaminestore.com/catalog/Z1695809018

> <ROCS_ShapeQuery>
_x1140_x0812_0A_x1140_0A_x1097_0A_x0365_0A_x1097_0A_x0310_0A

> <ROCS_TanimotoCombo>
0.630 

> <ROCS_ShapeTanimoto>
0.244 

> <ROCS_ColorTanimoto>
0.387 

> <ROCS_RefTversky>
0.220 

> <ROCS_RefColorTversky>
0.462 

> <ROCS_RefTverskyCombo>
0.682 

> <ROCS_FitTversky>
1.794 

> <ROCS_FitColorTversky>
0.704 

> <ROCS_FitTverskyCombo>
2.498 

> <ROCS_ColorScore>
-3.625

> <ROCS_Overlap>
2257.686

> <ROCS_Rank>
352                 

$$$$
untitled-dbase-577969_5
  -OEChem-02092421083D

 29 29  0     1  0  0  0  0  0999 V2000
    7.1924   10.1536   25.1059 C   0  0  0  0  0  0  0  0  0  0  0  0
   10.4127   11.6176   22.5183 C   0  0  0  0  0  0  0  0  0  0  0  0
    8.0938   11.7263   23.3983 C   0  0  0  0  0  0  0  0  0  0  0  0
    9.8959   11.7613   24.9993 C   0  0  0  0  0  0  0  0  0  0  0  0
    7.5011   11.5885   24.7951 C   0  0  2  0  0  0  0  0  0  0  0  0
    8.5991   12.1133   25.7330 C   0  0  2  0  0  0  0  0  0  0  0  0
   12.7087   11.5156   21.6218 C   0  0  0  0  0  0  0  0  0  0  0  0
   11.8777   11.6113   22.8744 C   0  0  0  0  0  0  0  0  0  0  0  0
    8.4753   13.6208   25.9523 C   0  0  0  0  0  0  0  0  0  0  0  0
    9.5372   11.7025   23.5869 N   0  0  0  0  0  0  0  0  0  0  0  0
    6.1519    9.9891   25.9894 N   0  0  0  0  0  0  0  0  0  0  0  0
    7.8140    9.2263   24.5932 O   0  0  0  0  0  0  0  0  0  0  0  0
   10.0577   11.5560   21.3400 O   0  0  0  0  0  0  0  0  0  0  0  0
   12.1553   10.5665   23.6860 F   0  0  0  0  0  0  0  0  0  0  0  0
   12.1980   12.7385   23.5482 F   0  0  0  0  0  0  0  0  0  0  0  0
    9.4846   14.0644   26.7206 F   0  0  0  0  0  0  0  0  0  0  0  0
    8.5148   14.2678   24.7753 F   0  0  0  0  0  0  0  0  0  0  0  0
    7.3129   13.9089   26.5620 F   0  0  0  0  0  0  0  0  0  0  0  0
    7.8261   10.8939   22.7338 H   0  0  0  0  0  0  0  0  0  0  0  0
    7.7948   12.6595   22.9050 H   0  0  0  0  0  0  0  0  0  0  0  0
   10.6632   12.5385   25.1148 H   0  0  0  0  0  0  0  0  0  0  0  0
   10.3156   10.8054   25.3345 H   0  0  0  0  0  0  0  0  0  0  0  0
    6.5825   12.1721   24.8903 H   0  0  0  0  0  0  0  0  0  0  0  0
    8.5648   11.6133   26.6918 H   0  0  0  0  0  0  0  0  0  0  0  0
   13.7794   11.5090   21.8498 H   0  0  0  0  0  0  0  0  0  0  0  0
   12.4729   10.5841   21.0974 H   0  0  0  0  0  0  0  0  0  0  0  0
   12.5017   12.3456   20.9385 H   0  0  0  0  0  0  0  0  0  0  0  0
    5.6866   10.8143   26.3530 H   0  0  0  0  0  0  0  0  0  0  0  0
    5.8306    9.0754   26.2926 H   0  0  0  0  0  0  0  0  0  0  0  0
  1  5  1  1  0  0  0
  1 11  1  0  0  0  0
  1 12  2  0  0  0  0
  2  8  1  0  0  0  0
  2 10  1  0  0  0  0
  2 13  2  0  0  0  0
  3  5  1  0  0  0  0
  3 10  1  0  0  0  0
  4  6  1  0  0  0  0
  4 10  1  0  0  0  0
  5  6  1  0  0  0  0
  6  9  1  6  0  0  0
  7  8  1  0  0  0  0
  8 14  1  0  0  0  0
  8 15  1  0  0  0  0
  9 16  1  0  0  0  0
  9 17  1  0  0  0  0
  9 18  1  0  0  0  0
  3 19  1  0  0  0  0
  3 20  1  0  0  0  0
  4 21  1  0  0  0  0
  4 22  1  0  0  0  0
  5 23  1  0  0  0  0
  6 24  1  0  0  0  0
  7 25  1  0  0  0  0
  7 26  1  0  0  0  0
  7 27  1  0  0  0  0
 11 28  1  0  0  0  0
 11 29  1  0  0  0  0
M  END
> <idnumber>
Z2147508755

> <heavy_atoms>
18

> <LogS>
-3.025

> <LogP>
-0.111

> <rotating_bonds>
3

> <PSA>
63.4

> <hb_acceptors>
2

> <hb_donors>
1

> <Collection>
Advanced

> <link>
https://www.enaminestore.com/catalog/Z2147508755

> <ROCS_ShapeQuery>
_x1140_x0812_0A_x1140_0A_x1097_0A_x0365_0A_x1097_0A_x0310_0A

> <ROCS_TanimotoCombo>
0.630 

> <ROCS_ShapeTanimoto>
0.221 

> <ROCS_ColorTanimoto>
0.409 

> <ROCS_RefTversky>
0.204 

> <ROCS_RefColorTversky>
0.446 

> <ROCS_RefTverskyCombo>
0.651 

> <ROCS_FitTversky>
1.602 

> <ROCS_FitColorTversky>
0.829 

> <ROCS_FitTverskyCombo>
2.432 

> <ROCS_ColorScore>
-3.483

> <ROCS_Overlap>
2097.720

> <ROCS_Rank>
353                 

$$$$
untitled-dbase-641322_141
  -OEChem-02092421083D

 34 36  0     0  0  0  0  0  0999 V2000
   12.3556    8.8409   21.7346 C   0  0  0  0  0  0  0  0  0  0  0  0
   11.6074    9.8964   21.2131 C   0  0  0  0  0  0  0  0  0  0  0  0
   11.0701    8.9394   23.7779 C   0  0  0  0  0  0  0  0  0  0  0  0
    9.2779   11.9055   24.4239 C   0  0  0  0  0  0  0  0  0  0  0  0
   10.3220    9.9949   23.2564 C   0  0  0  0  0  0  0  0  0  0  0  0
   12.0869    8.3624   23.0170 C   0  0  0  0  0  0  0  0  0  0  0  0
   10.5907   10.4734   21.9739 C   0  0  0  0  0  0  0  0  0  0  0  0
    9.2781   10.5760   24.0570 C   0  0  0  0  0  0  0  0  0  0  0  0
    7.4087   10.6014   25.2035 C   0  0  0  0  0  0  0  0  0  0  0  0
    4.4420   10.4709   27.6106 C   0  0  0  0  0  0  0  0  0  0  0  0
    5.6192   11.3050   28.0264 C   0  0  0  0  0  0  0  0  0  0  0  0
    5.3670   11.0355   26.5705 C   0  0  0  0  0  0  0  0  0  0  0  0
   12.8872    7.2338   23.5737 C   0  0  0  0  0  0  0  0  0  0  0  0
   10.5942   12.6737   21.0708 C   0  0  0  0  0  0  0  0  0  0  0  0
    8.2073    9.8266   24.5035 N   0  0  0  0  0  0  0  0  0  0  0  0
    6.2566   10.1821   25.7912 N   0  0  0  0  0  0  0  0  0  0  0  0
    9.8755   11.5039   21.4387 O   0  0  0  0  0  0  0  0  0  0  0  0
    9.7534   13.7305   21.2145 F   0  0  0  0  0  0  0  0  0  0  0  0
   11.6098   12.8670   21.9477 F   0  0  0  0  0  0  0  0  0  0  0  0
    7.8841   12.2424   25.3647 S   0  0  0  0  0  0  0  0  0  0  0  0
   13.1458    8.3975   21.1345 H   0  0  0  0  0  0  0  0  0  0  0  0
   11.8222   10.2640   20.2133 H   0  0  0  0  0  0  0  0  0  0  0  0
   10.8667    8.5605   24.7776 H   0  0  0  0  0  0  0  0  0  0  0  0
    9.9993   12.6777   24.1941 H   0  0  0  0  0  0  0  0  0  0  0  0
    4.4818    9.4080   27.8139 H   0  0  0  0  0  0  0  0  0  0  0  0
    3.4558   10.9097   27.7004 H   0  0  0  0  0  0  0  0  0  0  0  0
    5.4243   12.3041   28.3960 H   0  0  0  0  0  0  0  0  0  0  0  0
    6.4472   10.8004   28.5090 H   0  0  0  0  0  0  0  0  0  0  0  0
    4.9880   11.8613   25.9784 H   0  0  0  0  0  0  0  0  0  0  0  0
   13.7659    7.6157   24.1078 H   0  0  0  0  0  0  0  0  0  0  0  0
   12.2923    6.6290   24.2704 H   0  0  0  0  0  0  0  0  0  0  0  0
   13.2295    6.5581   22.7791 H   0  0  0  0  0  0  0  0  0  0  0  0
   10.9589   12.6552   20.0381 H   0  0  0  0  0  0  0  0  0  0  0  0
    5.9694    9.2010   25.6971 H   0  0  0  0  0  0  0  0  0  0  0  0
  1  2  2  0  0  0  0
  1  6  1  0  0  0  0
  2  7  1  0  0  0  0
  3  5  1  0  0  0  0
  3  6  2  0  0  0  0
  4  8  2  0  0  0  0
  4 20  1  0  0  0  0
  5  7  2  0  0  0  0
  5  8  1  0  0  0  0
  6 13  1  0  0  0  0
  7 17  1  0  0  0  0
  8 15  1  0  0  0  0
  9 15  2  0  0  0  0
  9 16  1  0  0  0  0
  9 20  1  0  0  0  0
 10 11  1  0  0  0  0
 10 12  1  0  0  0  0
 11 12  1  0  0  0  0
 12 16  1  0  0  0  0
 14 17  1  0  0  0  0
 14 18  1  0  0  0  0
 14 19  1  0  0  0  0
  1 21  1  0  0  0  0
  2 22  1  0  0  0  0
  3 23  1  0  0  0  0
  4 24  1  0  0  0  0
 10 25  1  0  0  0  0
 10 26  1  0  0  0  0
 11 27  1  0  0  0  0
 11 28  1  0  0  0  0
 12 29  1  0  0  0  0
 13 30  1  0  0  0  0
 13 31  1  0  0  0  0
 13 32  1  0  0  0  0
 14 33  1  0  0  0  0
 16 34  1  0  0  0  0
M  END
> <idnumber>
Z219212886

> <heavy_atoms>
20

> <LogS>
-4.85

> <LogP>
4.121

> <rotating_bonds>
5

> <PSA>
34.15

> <hb_acceptors>
3

> <hb_donors>
1

> <Collection>
Legacy

> <link>
https://www.enaminestore.com/catalog/Z219212886

> <ROCS_ShapeQuery>
_x1140_x0812_0A_x1140_0A_x1097_0A_x0365_0A_x1097_0A_x0310_0A

> <ROCS_TanimotoCombo>
0.630 

> <ROCS_ShapeTanimoto>
0.228 

> <ROCS_ColorTanimoto>
0.402 

> <ROCS_RefTversky>
0.211 

> <ROCS_RefColorTversky>
0.475 

> <ROCS_RefTverskyCombo>
0.686 

> <ROCS_FitTversky>
1.565 

> <ROCS_FitColorTversky>
0.724 

> <ROCS_FitTverskyCombo>
2.289 

> <ROCS_ColorScore>
-3.730

> <ROCS_Overlap>
2162.575

> <ROCS_Rank>
354                 

$$$$
untitled-dbase-847468_17
  -OEChem-02092421083D

 26 27  0     0  0  0  0  0  0999 V2000
   12.1733   14.9708   20.9077 C   0  0  0  0  0  0  0  0  0  0  0  0
    8.9668   12.3680   24.5623 C   0  0  0  0  0  0  0  0  0  0  0  0
   12.1103   16.2897   21.3896 C   0  0  0  0  0  0  0  0  0  0  0  0
    7.6021   10.6646   25.5070 C   0  0  0  0  0  0  0  0  0  0  0  0
    9.4072   11.4486   23.6169 C   0  0  0  0  0  0  0  0  0  0  0  0
    8.0471   11.9766   25.5288 C   0  0  0  0  0  0  0  0  0  0  0  0
   12.3894   14.2223   22.0343 C   0  0  0  0  0  0  0  0  0  0  0  0
    8.9015   10.1602   23.6807 C   0  0  0  0  0  0  0  0  0  0  0  0
   10.3701   11.8693   22.6093 C   0  0  0  0  0  0  0  0  0  0  0  0
   12.5613   12.7535   22.2880 C   0  0  0  0  0  0  0  0  0  0  0  0
    7.5553   12.9363   26.5533 C   0  0  0  0  0  0  0  0  0  0  0  0
    8.0070    9.7430   24.6046 N   0  0  0  0  0  0  0  0  0  0  0  0
   12.2747   16.3542   22.7138 N   0  0  0  0  0  0  0  0  0  0  0  0
   10.1651   11.8353   21.3895 O   0  0  0  0  0  0  0  0  0  0  0  0
   12.4518   15.0367   23.1187 O   0  0  0  0  0  0  0  0  0  0  0  0
   11.5327   12.3096   23.1794 O   0  0  0  0  0  0  0  0  0  0  0  0
    8.0901   14.1896   26.4366 F   0  0  0  0  0  0  0  0  0  0  0  0
    6.2014   13.1269   26.5244 F   0  0  0  0  0  0  0  0  0  0  0  0
    7.8383   12.5389   27.8297 F   0  0  0  0  0  0  0  0  0  0  0  0
    9.3666    8.9300   22.5705 Cl  0  0  0  0  0  0  0  0  0  0  0  0
   12.0759   14.6183   19.8917 H   0  0  0  0  0  0  0  0  0  0  0  0
    9.3369   13.3907   24.5479 H   0  0  0  0  0  0  0  0  0  0  0  0
   11.9524   17.2040   20.8368 H   0  0  0  0  0  0  0  0  0  0  0  0
    6.8850   10.3011   26.2368 H   0  0  0  0  0  0  0  0  0  0  0  0
   12.4951   12.1843   21.3545 H   0  0  0  0  0  0  0  0  0  0  0  0
   13.5390   12.5496   22.7377 H   0  0  0  0  0  0  0  0  0  0  0  0
  1  3  1  0  0  0  0
  1  7  2  0  0  0  0
  2  5  1  0  0  0  0
  2  6  2  0  0  0  0
  3 13  2  0  0  0  0
  4  6  1  0  0  0  0
  4 12  2  0  0  0  0
  5  8  2  0  0  0  0
  5  9  1  0  0  0  0
  6 11  1  0  0  0  0
  7 10  1  0  0  0  0
  7 15  1  0  0  0  0
  8 12  1  0  0  0  0
  8 20  1  0  0  0  0
  9 14  2  0  0  0  0
  9 16  1  0  0  0  0
 10 16  1  0  0  0  0
 11 17  1  0  0  0  0
 11 18  1  0  0  0  0
 11 19  1  0  0  0  0
 13 15  1  0  0  0  0
  1 21  1  0  0  0  0
  2 22  1  0  0  0  0
  3 23  1  0  0  0  0
  4 24  1  0  0  0  0
 10 25  1  0  0  0  0
 10 26  1  0  0  0  0
M  END
> <idnumber>
Z1920414401

> <heavy_atoms>
20

> <LogS>
-3.425

> <LogP>
1.792

> <rotating_bonds>
5

> <PSA>
65.22

> <hb_acceptors>
3

> <hb_donors>
0

> <Collection>
Functional

> <link>
https://www.enaminestore.com/catalog/Z1920414401

> <ROCS_ShapeQuery>
_x1140_x0812_0A_x1140_0A_x1097_0A_x0365_0A_x1097_0A_x0310_0A

> <ROCS_TanimotoCombo>
0.630 

> <ROCS_ShapeTanimoto>
0.250 

> <ROCS_ColorTanimoto>
0.380 

> <ROCS_RefTversky>
0.227 

> <ROCS_RefColorTversky>
0.456 

> <ROCS_RefTverskyCombo>
0.683 

> <ROCS_FitTversky>
1.665 

> <ROCS_FitColorTversky>
0.695 

> <ROCS_FitTverskyCombo>
2.361 

> <ROCS_ColorScore>
-3.581

> <ROCS_Overlap>
2333.574

> <ROCS_Rank>
355                 

$$$$
untitled-dbase-677062_59
  -OEChem-02092421083D

 34 36  0     0  0  0  0  0  0999 V2000
   12.1856   15.1730   22.9997 C   0  0  0  0  0  0  0  0  0  0  0  0
    6.0218   12.4633   26.2219 C   0  0  0  0  0  0  0  0  0  0  0  0
    6.7081   13.5727   25.7129 C   0  0  0  0  0  0  0  0  0  0  0  0
    6.4225   11.1553   25.9128 C   0  0  0  0  0  0  0  0  0  0  0  0
    7.8197   13.4227   24.8766 C   0  0  0  0  0  0  0  0  0  0  0  0
   11.5338   12.8498   22.3260 C   0  0  0  0  0  0  0  0  0  0  0  0
   12.0408   13.7744   23.2123 C   0  0  0  0  0  0  0  0  0  0  0  0
   11.5805   11.5846   22.9616 C   0  0  0  0  0  0  0  0  0  0  0  0
    7.5348   10.9876   25.0756 C   0  0  0  0  0  0  0  0  0  0  0  0
    8.1862   12.1130   24.5928 C   0  0  0  0  0  0  0  0  0  0  0  0
   12.1144   11.7745   24.2171 C   0  0  0  0  0  0  0  0  0  0  0  0
    9.1355   10.3329   23.8683 C   0  0  0  0  0  0  0  0  0  0  0  0
   12.3855   10.7987   25.2944 C   0  0  0  0  0  0  0  0  0  0  0  0
   12.9635   13.7204   25.5401 C   0  0  0  0  0  0  0  0  0  0  0  0
   11.1291   10.2812   22.3688 C   0  0  0  0  0  0  0  0  0  0  0  0
   12.3039   16.3143   22.8262 N   0  0  0  0  0  0  0  0  0  0  0  0
    8.1544    9.8562   24.6027 N   0  0  0  0  0  0  0  0  0  0  0  0
   12.3902   13.1095   24.3586 N   0  0  0  0  0  0  0  0  0  0  0  0
   10.0700    9.6574   23.1609 N   0  0  0  0  0  0  0  0  0  0  0  0
    9.2231   11.6913   23.8108 O   0  0  0  0  0  0  0  0  0  0  0  0
    5.1620   12.6181   26.8689 H   0  0  0  0  0  0  0  0  0  0  0  0
    6.3693   14.5731   25.9725 H   0  0  0  0  0  0  0  0  0  0  0  0
    5.8839   10.3030   26.3132 H   0  0  0  0  0  0  0  0  0  0  0  0
    8.3570   14.2742   24.4778 H   0  0  0  0  0  0  0  0  0  0  0  0
   11.1693   13.0603   21.3290 H   0  0  0  0  0  0  0  0  0  0  0  0
   13.4016   10.3832   25.2042 H   0  0  0  0  0  0  0  0  0  0  0  0
   12.2950   11.2542   26.2943 H   0  0  0  0  0  0  0  0  0  0  0  0
   11.6739    9.9568   25.2753 H   0  0  0  0  0  0  0  0  0  0  0  0
   12.1426   14.0196   26.1971 H   0  0  0  0  0  0  0  0  0  0  0  0
   13.6132   12.9995   26.0440 H   0  0  0  0  0  0  0  0  0  0  0  0
   13.5557   14.5913   25.2454 H   0  0  0  0  0  0  0  0  0  0  0  0
   10.7470   10.4308   21.3531 H   0  0  0  0  0  0  0  0  0  0  0  0
   11.9600    9.5709   22.3024 H   0  0  0  0  0  0  0  0  0  0  0  0
   10.0637    8.6275   23.1569 H   0  0  0  0  0  0  0  0  0  0  0  0
  1  7  1  0  0  0  0
  1 16  3  0  0  0  0
  2  3  1  0  0  0  0
  2  4  2  0  0  0  0
  3  5  2  0  0  0  0
  4  9  1  0  0  0  0
  5 10  1  0  0  0  0
  6  7  2  0  0  0  0
  6  8  1  0  0  0  0
  7 18  1  0  0  0  0
  8 11  2  0  0  0  0
  8 15  1  0  0  0  0
  9 10  2  0  0  0  0
  9 17  1  0  0  0  0
 10 20  1  0  0  0  0
 11 13  1  0  0  0  0
 11 18  1  0  0  0  0
 12 17  2  0  0  0  0
 12 19  1  0  0  0  0
 12 20  1  0  0  0  0
 14 18  1  0  0  0  0
 15 19  1  0  0  0  0
  2 21  1  0  0  0  0
  3 22  1  0  0  0  0
  4 23  1  0  0  0  0
  5 24  1  0  0  0  0
  6 25  1  0  0  0  0
 13 26  1  0  0  0  0
 13 27  1  0  0  0  0
 13 28  1  0  0  0  0
 14 29  1  0  0  0  0
 14 30  1  0  0  0  0
 14 31  1  0  0  0  0
 15 32  1  0  0  0  0
 15 33  1  0  0  0  0
 19 34  1  0  0  0  0
M  END
> <idnumber>
Z1606822378

> <heavy_atoms>
20

> <LogS>
-2.79

> <LogP>
2.418

> <rotating_bonds>
3

> <PSA>
66.78

> <hb_acceptors>
3

> <hb_donors>
1

> <Collection>
HTS

> <link>
https://www.enaminestore.com/catalog/Z1606822378

> <ROCS_ShapeQuery>
_x1140_x0812_0A_x1140_0A_x1097_0A_x0365_0A_x1097_0A_x0310_0A

> <ROCS_TanimotoCombo>
0.630 

> <ROCS_ShapeTanimoto>
0.279 

> <ROCS_ColorTanimoto>
0.352 

> <ROCS_RefTversky>
0.248 

> <ROCS_RefColorTversky>
0.462 

> <ROCS_RefTverskyCombo>
0.710 

> <ROCS_FitTversky>
1.795 

> <ROCS_FitColorTversky>
0.596 

> <ROCS_FitTverskyCombo>
2.391 

> <ROCS_ColorScore>
-3.648

> <ROCS_Overlap>
2545.666

> <ROCS_Rank>
356                 

$$$$
untitled-dbase-411026_22
  -OEChem-02092421083D

 43 46  0     0  0  0  0  0  0999 V2000
   10.3394   16.4228   21.7784 C   0  0  0  0  0  0  0  0  0  0  0  0
    7.4711   13.1022   26.1544 C   0  0  0  0  0  0  0  0  0  0  0  0
   10.6395   15.0820   21.5648 C   0  0  0  0  0  0  0  0  0  0  0  0
    6.5808   12.7904   27.1780 C   0  0  0  0  0  0  0  0  0  0  0  0
    8.8681   12.3782   24.2767 C   0  0  0  0  0  0  0  0  0  0  0  0
    6.6840   10.4677   26.5312 C   0  0  0  0  0  0  0  0  0  0  0  0
   11.2875   17.2058   22.4170 C   0  0  0  0  0  0  0  0  0  0  0  0
   12.7413   15.4385   22.6192 C   0  0  0  0  0  0  0  0  0  0  0  0
    7.9708   12.0924   25.3146 C   0  0  0  0  0  0  0  0  0  0  0  0
    9.3434   11.3586   23.4646 C   0  0  0  0  0  0  0  0  0  0  0  0
   11.8613   14.5725   21.9903 C   0  0  0  0  0  0  0  0  0  0  0  0
    7.5752   10.7511   25.4999 C   0  0  0  0  0  0  0  0  0  0  0  0
    6.1870   11.4715   27.3663 C   0  0  0  0  0  0  0  0  0  0  0  0
    8.8993   10.0776   23.7228 C   0  0  0  0  0  0  0  0  0  0  0  0
   10.2742   11.6605   22.3880 C   0  0  0  0  0  0  0  0  0  0  0  0
   12.4578   10.6280   24.4710 C   0  0  0  0  0  0  0  0  0  0  0  0
   13.5905   11.5162   24.0436 C   0  0  0  0  0  0  0  0  0  0  0  0
   12.1767   12.0191   23.9793 C   0  0  0  0  0  0  0  0  0  0  0  0
    9.3692    8.9316   22.8870 C   0  0  0  0  0  0  0  0  0  0  0  0
   12.2152   13.1296   21.7738 C   0  0  0  0  0  0  0  0  0  0  0  0
   12.4850   16.7466   22.8444 N   0  0  0  0  0  0  0  0  0  0  0  0
    8.0348    9.7596   24.7133 N   0  0  0  0  0  0  0  0  0  0  0  0
   11.5123   12.2487   22.7041 N   0  0  0  0  0  0  0  0  0  0  0  0
    9.9192   11.3643   21.2397 O   0  0  0  0  0  0  0  0  0  0  0  0
    5.3316   11.1611   28.3491 F   0  0  0  0  0  0  0  0  0  0  0  0
    9.3934   16.8417   21.4550 H   0  0  0  0  0  0  0  0  0  0  0  0
    7.7722   14.1382   26.0158 H   0  0  0  0  0  0  0  0  0  0  0  0
    9.9163   14.4424   21.0664 H   0  0  0  0  0  0  0  0  0  0  0  0
    6.1974   13.5735   27.8249 H   0  0  0  0  0  0  0  0  0  0  0  0
    9.1935   13.4024   24.1036 H   0  0  0  0  0  0  0  0  0  0  0  0
    6.3601    9.4423   26.6994 H   0  0  0  0  0  0  0  0  0  0  0  0
   11.1011   18.2577   22.6074 H   0  0  0  0  0  0  0  0  0  0  0  0
   13.7096   15.0980   22.9729 H   0  0  0  0  0  0  0  0  0  0  0  0
   12.2063    9.7915   23.8303 H   0  0  0  0  0  0  0  0  0  0  0  0
   12.3397   10.4336   25.5301 H   0  0  0  0  0  0  0  0  0  0  0  0
   14.2342   11.9196   24.8154 H   0  0  0  0  0  0  0  0  0  0  0  0
   14.0961   11.2757   23.1164 H   0  0  0  0  0  0  0  0  0  0  0  0
   11.8854   12.7488   24.7272 H   0  0  0  0  0  0  0  0  0  0  0  0
   10.2784    8.4964   23.3170 H   0  0  0  0  0  0  0  0  0  0  0  0
    8.6034    8.1492   22.8219 H   0  0  0  0  0  0  0  0  0  0  0  0
    9.5861    9.2530   21.8610 H   0  0  0  0  0  0  0  0  0  0  0  0
   11.9592   12.8178   20.7553 H   0  0  0  0  0  0  0  0  0  0  0  0
   13.2900   12.9648   21.9039 H   0  0  0  0  0  0  0  0  0  0  0  0
  1  3  2  0  0  0  0
  1  7  1  0  0  0  0
  2  4  2  0  0  0  0
  2  9  1  0  0  0  0
  3 11  1  0  0  0  0
  4 13  1  0  0  0  0
  5  9  2  0  0  0  0
  5 10  1  0  0  0  0
  6 12  1  0  0  0  0
  6 13  2  0  0  0  0
  7 21  2  0  0  0  0
  8 11  2  0  0  0  0
  8 21  1  0  0  0  0
  9 12  1  0  0  0  0
 10 14  2  0  0  0  0
 10 15  1  0  0  0  0
 11 20  1  0  0  0  0
 12 22  2  0  0  0  0
 13 25  1  0  0  0  0
 14 19  1  0  0  0  0
 14 22  1  0  0  0  0
 15 23  1  0  0  0  0
 15 24  2  0  0  0  0
 16 17  1  0  0  0  0
 16 18  1  0  0  0  0
 17 18  1  0  0  0  0
 18 23  1  0  0  0  0
 20 23  1  0  0  0  0
  1 26  1  0  0  0  0
  2 27  1  0  0  0  0
  3 28  1  0  0  0  0
  4 29  1  0  0  0  0
  5 30  1  0  0  0  0
  6 31  1  0  0  0  0
  7 32  1  0  0  0  0
  8 33  1  0  0  0  0
 16 34  1  0  0  0  0
 16 35  1  0  0  0  0
 17 36  1  0  0  0  0
 17 37  1  0  0  0  0
 18 38  1  0  0  0  0
 19 39  1  0  0  0  0
 19 40  1  0  0  0  0
 19 41  1  0  0  0  0
 20 42  1  0  0  0  0
 20 43  1  0  0  0  0
M  END
> <idnumber>
Z200312180

> <heavy_atoms>
25

> <LogS>
-3.884

> <LogP>
2.835

> <rotating_bonds>
4

> <PSA>
46.09

> <hb_acceptors>
3

> <hb_donors>
0

> <Collection>
HTS

> <link>
https://www.enaminestore.com/catalog/Z200312180

> <ROCS_ShapeQuery>
_x1140_x0812_0A_x1140_0A_x1097_0A_x0365_0A_x1097_0A_x0310_0A

> <ROCS_TanimotoCombo>
0.630 

> <ROCS_ShapeTanimoto>
0.288 

> <ROCS_ColorTanimoto>
0.342 

> <ROCS_RefTversky>
0.259 

> <ROCS_RefColorTversky>
0.452 

> <ROCS_RefTverskyCombo>
0.711 

> <ROCS_FitTversky>
1.629 

> <ROCS_FitColorTversky>
0.585 

> <ROCS_FitTverskyCombo>
2.214 

> <ROCS_ColorScore>
-3.573

> <ROCS_Overlap>
2660.891

> <ROCS_Rank>
357                 

$$$$
untitled-dbase-1135999_48
  -OEChem-02092421083D

 41 42  0     0  0  0  0  0  0999 V2000
    9.6158   13.8908   22.8474 C   0  0  0  0  0  0  0  0  0  0  0  0
   10.4055   14.9750   22.4647 C   0  0  0  0  0  0  0  0  0  0  0  0
   11.8551   14.5877   24.3583 C   0  0  0  0  0  0  0  0  0  0  0  0
    9.9457   13.1550   23.9857 C   0  0  0  0  0  0  0  0  0  0  0  0
    9.1150   12.0417   24.3589 C   0  0  0  0  0  0  0  0  0  0  0  0
   11.0654   13.5035   24.7411 C   0  0  0  0  0  0  0  0  0  0  0  0
   11.5251   15.3234   23.2201 C   0  0  0  0  0  0  0  0  0  0  0  0
    9.1779   10.6794   24.0096 C   0  0  0  0  0  0  0  0  0  0  0  0
    8.0245   12.1333   25.1890 C   0  0  0  0  0  0  0  0  0  0  0  0
   10.6949   10.8988   22.0150 C   0  0  0  0  0  0  0  0  0  0  0  0
   11.4513   12.7385   25.9665 C   0  0  0  0  0  0  0  0  0  0  0  0
    7.4197   13.2814   25.8937 C   0  0  0  0  0  0  0  0  0  0  0  0
    6.3674   10.4488   26.0448 C   0  0  0  0  0  0  0  0  0  0  0  0
   11.8983   17.0919   21.6744 C   0  0  0  0  0  0  0  0  0  0  0  0
   12.6914   11.7693   21.0890 C   0  0  0  0  0  0  0  0  0  0  0  0
   10.1566   10.0132   23.1315 C   0  0  0  0  0  0  0  0  0  0  0  0
    8.2050    9.9574   24.5718 N   0  0  0  0  0  0  0  0  0  0  0  0
    7.5204   10.8695   25.2830 N   0  0  0  0  0  0  0  0  0  0  0  0
    9.9955   11.4631   21.1847 O   0  0  0  0  0  0  0  0  0  0  0  0
   12.2944   16.3826   22.8473 O   0  0  0  0  0  0  0  0  0  0  0  0
   12.0582   10.9626   22.0875 O   0  0  0  0  0  0  0  0  0  0  0  0
    8.7460   13.6334   22.2474 H   0  0  0  0  0  0  0  0  0  0  0  0
   10.1427   15.5451   21.5778 H   0  0  0  0  0  0  0  0  0  0  0  0
   12.7285   14.8629   24.9447 H   0  0  0  0  0  0  0  0  0  0  0  0
   10.9680   13.1705   26.8497 H   0  0  0  0  0  0  0  0  0  0  0  0
   11.1556   11.6860   25.8841 H   0  0  0  0  0  0  0  0  0  0  0  0
   12.5372   12.7557   26.1167 H   0  0  0  0  0  0  0  0  0  0  0  0
    6.6539   13.7708   25.2703 H   0  0  0  0  0  0  0  0  0  0  0  0
    6.9396   12.9792   26.8398 H   0  0  0  0  0  0  0  0  0  0  0  0
    8.1709   14.0434   26.1626 H   0  0  0  0  0  0  0  0  0  0  0  0
    5.4884   10.5327   25.4003 H   0  0  0  0  0  0  0  0  0  0  0  0
    6.5045    9.4143   26.3716 H   0  0  0  0  0  0  0  0  0  0  0  0
    6.2610   11.0909   26.9236 H   0  0  0  0  0  0  0  0  0  0  0  0
   12.5968   17.9118   21.4901 H   0  0  0  0  0  0  0  0  0  0  0  0
   10.8870   17.4838   21.8086 H   0  0  0  0  0  0  0  0  0  0  0  0
   11.9115   16.4069   20.8233 H   0  0  0  0  0  0  0  0  0  0  0  0
   13.7738   11.7515   21.2376 H   0  0  0  0  0  0  0  0  0  0  0  0
   12.3202   12.7949   21.1586 H   0  0  0  0  0  0  0  0  0  0  0  0
   12.4546   11.3644   20.1022 H   0  0  0  0  0  0  0  0  0  0  0  0
   11.0294    9.6524   23.7109 H   0  0  0  0  0  0  0  0  0  0  0  0
    9.7152    9.1170   22.6528 H   0  0  0  0  0  0  0  0  0  0  0  0
  1  2  2  0  0  0  0
  1  4  1  0  0  0  0
  2  7  1  0  0  0  0
  3  6  1  0  0  0  0
  3  7  2  0  0  0  0
  4  5  1  0  0  0  0
  4  6  2  0  0  0  0
  5  8  1  0  0  0  0
  5  9  2  0  0  0  0
  6 11  1  0  0  0  0
  7 20  1  0  0  0  0
  8 16  1  0  0  0  0
  8 17  2  0  0  0  0
  9 12  1  0  0  0  0
  9 18  1  0  0  0  0
 10 16  1  0  0  0  0
 10 19  2  0  0  0  0
 10 21  1  0  0  0  0
 13 18  1  0  0  0  0
 14 20  1  0  0  0  0
 15 21  1  0  0  0  0
 17 18  1  0  0  0  0
  1 22  1  0  0  0  0
  2 23  1  0  0  0  0
  3 24  1  0  0  0  0
 11 25  1  0  0  0  0
 11 26  1  0  0  0  0
 11 27  1  0  0  0  0
 12 28  1  0  0  0  0
 12 29  1  0  0  0  0
 12 30  1  0  0  0  0
 13 31  1  0  0  0  0
 13 32  1  0  0  0  0
 13 33  1  0  0  0  0
 14 34  1  0  0  0  0
 14 35  1  0  0  0  0
 14 36  1  0  0  0  0
 15 37  1  0  0  0  0
 15 38  1  0  0  0  0
 15 39  1  0  0  0  0
 16 40  1  0  0  0  0
 16 41  1  0  0  0  0
M  END
> <idnumber>
Z6214401063

> <heavy_atoms>
21

> <LogS>
-2.82

> <LogP>
1.665

> <rotating_bonds>
4

> <PSA>
53.35

> <hb_acceptors>
3

> <hb_donors>
0

> <Collection>
Advanced

> <link>
https://www.enaminestore.com/catalog/Z6214401063

> <ROCS_ShapeQuery>
_x1140_x0812_0A_x1140_0A_x1097_0A_x0365_0A_x1097_0A_x0310_0A

> <ROCS_TanimotoCombo>
0.630 

> <ROCS_ShapeTanimoto>
0.249 

> <ROCS_ColorTanimoto>
0.381 

> <ROCS_RefTversky>
0.227 

> <ROCS_RefColorTversky>
0.457 

> <ROCS_RefTverskyCombo>
0.684 

> <ROCS_FitTversky>
1.630 

> <ROCS_FitColorTversky>
0.696 

> <ROCS_FitTverskyCombo>
2.326 

> <ROCS_ColorScore>
-3.584

> <ROCS_Overlap>
2335.029

> <ROCS_Rank>
358                 

$$$$
untitled-dbase-1021181_169
  -OEChem-02092421083D

 33 34  0     1  0  0  0  0  0999 V2000
    8.8754   12.2857   25.0199 C   0  0  0  0  0  0  0  0  0  0  0  0
    9.7004   11.4740   24.2683 C   0  0  0  0  0  0  0  0  0  0  0  0
    9.2474   10.1865   24.0652 C   0  0  0  0  0  0  0  0  0  0  0  0
    7.3657   10.6047   25.2701 C   0  0  0  0  0  0  0  0  0  0  0  0
    9.0020   15.7524   18.9425 C   0  0  0  0  0  0  0  0  0  0  0  0
    9.6152   15.9883   20.1105 C   0  0  0  0  0  0  0  0  0  0  0  0
   10.1462   12.4492   21.4306 C   0  0  0  0  0  0  0  0  0  0  0  0
    8.6720   14.3740   18.4530 C   0  0  0  0  0  0  0  0  0  0  0  0
   10.0677   14.8974   21.0357 C   0  0  0  0  0  0  0  0  0  0  0  0
    8.7973   13.3040   19.5407 C   0  0  0  0  0  0  0  0  0  0  0  0
   10.0599   13.5114   20.3783 C   0  0  2  0  0  0  0  0  0  0  0  0
   11.0026   11.9785   23.7169 C   0  0  0  0  0  0  0  0  0  0  0  0
    7.6968   11.8822   25.5381 N   0  0  0  0  0  0  0  0  0  0  0  0
    8.0807    9.7166   24.5534 N   0  0  0  0  0  0  0  0  0  0  0  0
   10.8078   12.8456   22.5772 N   0  0  0  0  0  0  0  0  0  0  0  0
    9.6482   11.3493   21.2210 O   0  0  0  0  0  0  0  0  0  0  0  0
   10.0010    9.3074   23.3327 O   0  0  0  0  0  0  0  0  0  0  0  0
    6.1692   10.1599   25.7820 O   0  0  0  0  0  0  0  0  0  0  0  0
    9.1395   13.3161   25.2356 H   0  0  0  0  0  0  0  0  0  0  0  0
    8.7259   16.5899   18.3097 H   0  0  0  0  0  0  0  0  0  0  0  0
    9.7957   17.0128   20.4166 H   0  0  0  0  0  0  0  0  0  0  0  0
    7.6524   14.3843   18.0530 H   0  0  0  0  0  0  0  0  0  0  0  0
    9.3384   14.1158   17.6232 H   0  0  0  0  0  0  0  0  0  0  0  0
   11.0850   15.1358   21.3554 H   0  0  0  0  0  0  0  0  0  0  0  0
    9.4360   14.9037   21.9259 H   0  0  0  0  0  0  0  0  0  0  0  0
    7.9049   13.3155   20.1661 H   0  0  0  0  0  0  0  0  0  0  0  0
    8.8515   12.3226   19.0658 H   0  0  0  0  0  0  0  0  0  0  0  0
   10.9386   13.3999   19.7581 H   0  0  0  0  0  0  0  0  0  0  0  0
   11.5523   12.5416   24.4791 H   0  0  0  0  0  0  0  0  0  0  0  0
   11.6432   11.1486   23.4006 H   0  0  0  0  0  0  0  0  0  0  0  0
   11.1747   13.7916   22.6211 H   0  0  0  0  0  0  0  0  0  0  0  0
    9.5500    8.4530   23.2820 H   0  0  0  0  0  0  0  0  0  0  0  0
    5.7439   10.8739   26.2736 H   0  0  0  0  0  0  0  0  0  0  0  0
  1  2  1  0  0  0  0
  1 13  2  0  0  0  0
  2  3  2  0  0  0  0
  2 12  1  0  0  0  0
  3 14  1  0  0  0  0
  3 17  1  0  0  0  0
  4 13  1  0  0  0  0
  4 14  2  0  0  0  0
  4 18  1  0  0  0  0
  5  6  2  0  0  0  0
  5  8  1  0  0  0  0
  6  9  1  0  0  0  0
  7 11  1  1  0  0  0
  7 15  1  0  0  0  0
  7 16  2  0  0  0  0
  8 10  1  0  0  0  0
  9 11  1  0  0  0  0
 10 11  1  0  0  0  0
 12 15  1  0  0  0  0
  1 19  1  0  0  0  0
  5 20  1  0  0  0  0
  6 21  1  0  0  0  0
  8 22  1  0  0  0  0
  8 23  1  0  0  0  0
  9 24  1  0  0  0  0
  9 25  1  0  0  0  0
 10 26  1  0  0  0  0
 10 27  1  0  0  0  0
 11 28  1  0  0  0  0
 12 29  1  0  0  0  0
 12 30  1  0  0  0  0
 15 31  1  0  0  0  0
 17 32  1  0  0  0  0
 18 33  1  0  0  0  0
M  END
> <idnumber>
Z3324609905

> <heavy_atoms>
18

> <LogS>
-2.139

> <LogP>
1.235

> <rotating_bonds>
3

> <PSA>
95.34

> <hb_acceptors>
5

> <hb_donors>
3

> <Collection>
Advanced

> <link>
https://www.enaminestore.com/catalog/Z3324609905

> <ROCS_ShapeQuery>
_x1140_x0812_0A_x1140_0A_x1097_0A_x0365_0A_x1097_0A_x0310_0A

> <ROCS_TanimotoCombo>
0.630 

> <ROCS_ShapeTanimoto>
0.225 

> <ROCS_ColorTanimoto>
0.405 

> <ROCS_RefTversky>
0.207 

> <ROCS_RefColorTversky>
0.641 

> <ROCS_RefTverskyCombo>
0.848 

> <ROCS_FitTversky>
1.638 

> <ROCS_FitColorTversky>
0.523 

> <ROCS_FitTverskyCombo>
2.161 

> <ROCS_ColorScore>
-5.195

> <ROCS_Overlap>
2125.568

> <ROCS_Rank>
359                 

$$$$
untitled-dbase-98334_108
  -OEChem-02092421083D

 31 32  0     0  0  0  0  0  0999 V2000
   10.1112   14.4847   18.4257 C   0  0  0  0  0  0  0  0  0  0  0  0
   10.4938   13.1821   18.1059 C   0  0  0  0  0  0  0  0  0  0  0  0
    9.6829   14.7884   19.7181 C   0  0  0  0  0  0  0  0  0  0  0  0
   10.4481   12.1831   19.0782 C   0  0  0  0  0  0  0  0  0  0  0  0
    9.6372   13.7894   20.6904 C   0  0  0  0  0  0  0  0  0  0  0  0
    9.6042   11.5816   24.1161 C   0  0  0  0  0  0  0  0  0  0  0  0
   10.0198   12.4867   20.3706 C   0  0  0  0  0  0  0  0  0  0  0  0
    9.2086   10.2658   23.9867 C   0  0  0  0  0  0  0  0  0  0  0  0
    8.7761   12.3819   24.8763 C   0  0  0  0  0  0  0  0  0  0  0  0
    7.3692   10.6401   25.2687 C   0  0  0  0  0  0  0  0  0  0  0  0
   11.2436    9.9125   22.5867 C   0  0  0  0  0  0  0  0  0  0  0  0
   10.9181   10.4488   21.2047 C   0  0  0  0  0  0  0  0  0  0  0  0
    8.0929    9.7595   24.5516 N   0  0  0  0  0  0  0  0  0  0  0  0
    7.6466   11.9426   25.4692 N   0  0  0  0  0  0  0  0  0  0  0  0
    6.1942   10.1452   25.8750 N   0  0  0  0  0  0  0  0  0  0  0  0
   10.0020    9.4411   23.2417 N   0  0  0  0  0  0  0  0  0  0  0  0
    9.9735   11.5120   21.3193 O   0  0  0  0  0  0  0  0  0  0  0  0
    9.1289   14.0408   25.1318 Cl  0  0  0  0  0  0  0  0  0  0  0  0
   10.1472   15.2629   17.6690 H   0  0  0  0  0  0  0  0  0  0  0  0
   10.8272   12.9454   17.0995 H   0  0  0  0  0  0  0  0  0  0  0  0
    9.3853   15.8030   19.9665 H   0  0  0  0  0  0  0  0  0  0  0  0
   10.7461   11.1700   18.8222 H   0  0  0  0  0  0  0  0  0  0  0  0
    9.3010   14.0313   21.6950 H   0  0  0  0  0  0  0  0  0  0  0  0
   10.5063   11.9627   23.6517 H   0  0  0  0  0  0  0  0  0  0  0  0
   11.9427    9.0721   22.5318 H   0  0  0  0  0  0  0  0  0  0  0  0
   11.6790   10.7008   23.2083 H   0  0  0  0  0  0  0  0  0  0  0  0
   10.4672    9.6607   20.5935 H   0  0  0  0  0  0  0  0  0  0  0  0
   11.8126   10.8255   20.6981 H   0  0  0  0  0  0  0  0  0  0  0  0
    5.9257    9.1964   25.7129 H   0  0  0  0  0  0  0  0  0  0  0  0
    5.6033   10.7758   26.3767 H   0  0  0  0  0  0  0  0  0  0  0  0
    9.7713    8.4803   23.1085 H   0  0  0  0  0  0  0  0  0  0  0  0
  1  2  1  0  0  0  0
  1  3  2  0  0  0  0
  2  4  2  0  0  0  0
  3  5  1  0  0  0  0
  4  7  1  0  0  0  0
  5  7  2  0  0  0  0
  6  8  2  0  0  0  0
  6  9  1  0  0  0  0
  7 17  1  0  0  0  0
  8 13  1  0  0  0  0
  8 16  1  0  0  0  0
  9 14  2  0  0  0  0
  9 18  1  0  0  0  0
 10 13  2  0  0  0  0
 10 14  1  0  0  0  0
 10 15  1  0  0  0  0
 11 12  1  0  0  0  0
 11 16  1  0  0  0  0
 12 17  1  0  0  0  0
  1 19  1  0  0  0  0
  2 20  1  0  0  0  0
  3 21  1  0  0  0  0
  4 22  1  0  0  0  0
  5 23  1  0  0  0  0
  6 24  1  0  0  0  0
 11 25  1  0  0  0  0
 11 26  1  0  0  0  0
 12 27  1  0  0  0  0
 12 28  1  0  0  0  0
 15 29  1  0  0  0  0
 15 30  1  0  0  0  0
 16 31  1  0  0  0  0
M  END
> <idnumber>
Z285761062

> <heavy_atoms>
18

> <LogS>
-4.452

> <LogP>
3.044

> <rotating_bonds>
5

> <PSA>
73.06

> <hb_acceptors>
5

> <hb_donors>
2

> <Collection>
Legacy

> <link>
https://www.enaminestore.com/catalog/Z285761062

> <ROCS_ShapeQuery>
_x1140_x0812_0A_x1140_0A_x1097_0A_x0365_0A_x1097_0A_x0310_0A

> <ROCS_TanimotoCombo>
0.630 

> <ROCS_ShapeTanimoto>
0.208 

> <ROCS_ColorTanimoto>
0.422 

> <ROCS_RefTversky>
0.194 

> <ROCS_RefColorTversky>
0.594 

> <ROCS_RefTverskyCombo>
0.788 

> <ROCS_FitTversky>
1.539 

> <ROCS_FitColorTversky>
0.592 

> <ROCS_FitTverskyCombo>
2.131 

> <ROCS_ColorScore>
-4.751

> <ROCS_Overlap>
1992.065

> <ROCS_Rank>
360                 

$$$$
untitled-dbase-1139466_69
  -OEChem-02092421083D

 44 46  0     0  0  0  0  0  0999 V2000
    7.2557   11.8204   25.0965 C   0  0  0  0  0  0  0  0  0  0  0  0
   11.3349    7.7400   20.1444 C   0  0  0  0  0  0  0  0  0  0  0  0
    9.1508    8.6585   19.6721 C   0  0  0  0  0  0  0  0  0  0  0  0
    8.2449   12.4653   24.3624 C   0  0  0  0  0  0  0  0  0  0  0  0
   11.2868    8.2851   21.4274 C   0  0  0  0  0  0  0  0  0  0  0  0
    9.1026    9.2036   20.9552 C   0  0  0  0  0  0  0  0  0  0  0  0
    7.2751   10.4355   25.1345 C   0  0  0  0  0  0  0  0  0  0  0  0
   10.2669    7.9267   19.2667 C   0  0  0  0  0  0  0  0  0  0  0  0
   10.1706    9.0169   21.8328 C   0  0  0  0  0  0  0  0  0  0  0  0
    9.2096   11.7161   23.6980 C   0  0  0  0  0  0  0  0  0  0  0  0
    9.1416   10.3359   23.7987 C   0  0  0  0  0  0  0  0  0  0  0  0
   10.1200   13.5932   22.2937 C   0  0  0  0  0  0  0  0  0  0  0  0
   11.2691   15.2768   20.8746 C   0  0  0  0  0  0  0  0  0  0  0  0
   12.5418   13.9896   22.6431 C   0  0  0  0  0  0  0  0  0  0  0  0
   11.3361   16.4739   21.8173 C   0  0  0  0  0  0  0  0  0  0  0  0
   12.5228   15.2711   23.4695 C   0  0  0  0  0  0  0  0  0  0  0  0
   11.4273   13.9479   21.6040 C   0  0  0  0  0  0  0  0  0  0  0  0
   10.3177    7.3446   17.8946 C   0  0  0  0  0  0  0  0  0  0  0  0
    8.1959    9.6739   24.5022 N   0  0  0  0  0  0  0  0  0  0  0  0
   10.1210    9.5639   23.1243 N   0  0  0  0  0  0  0  0  0  0  0  0
   10.2155   12.3726   22.9499 N   0  0  0  0  0  0  0  0  0  0  0  0
    9.1530   14.3456   22.2322 O   0  0  0  0  0  0  0  0  0  0  0  0
   12.5102   16.4195   22.6245 O   0  0  0  0  0  0  0  0  0  0  0  0
    6.4939   12.3840   25.6229 H   0  0  0  0  0  0  0  0  0  0  0  0
   12.2088    7.1722   19.8366 H   0  0  0  0  0  0  0  0  0  0  0  0
    8.3149    8.8106   18.9947 H   0  0  0  0  0  0  0  0  0  0  0  0
    8.2531   13.5511   24.3163 H   0  0  0  0  0  0  0  0  0  0  0  0
   12.1250    8.1348   22.1028 H   0  0  0  0  0  0  0  0  0  0  0  0
    8.2283    9.7727   21.2603 H   0  0  0  0  0  0  0  0  0  0  0  0
    6.5257    9.8839   25.6924 H   0  0  0  0  0  0  0  0  0  0  0  0
   10.3361   15.3087   20.3004 H   0  0  0  0  0  0  0  0  0  0  0  0
   12.0950   15.3645   20.1568 H   0  0  0  0  0  0  0  0  0  0  0  0
   13.4996   13.9444   22.1086 H   0  0  0  0  0  0  0  0  0  0  0  0
   12.4991   13.1189   23.3074 H   0  0  0  0  0  0  0  0  0  0  0  0
   11.3729   17.4010   21.2362 H   0  0  0  0  0  0  0  0  0  0  0  0
   10.4510   16.5266   22.4619 H   0  0  0  0  0  0  0  0  0  0  0  0
   11.6605   15.3041   24.1452 H   0  0  0  0  0  0  0  0  0  0  0  0
   13.4236   15.3237   24.0895 H   0  0  0  0  0  0  0  0  0  0  0  0
   11.6109   13.1511   20.8946 H   0  0  0  0  0  0  0  0  0  0  0  0
    9.8927    6.3334   17.8927 H   0  0  0  0  0  0  0  0  0  0  0  0
    9.7556    7.9596   17.1798 H   0  0  0  0  0  0  0  0  0  0  0  0
   11.3493    7.2892   17.5232 H   0  0  0  0  0  0  0  0  0  0  0  0
   10.9401    9.3755   23.6895 H   0  0  0  0  0  0  0  0  0  0  0  0
   11.1067   11.8840   22.8950 H   0  0  0  0  0  0  0  0  0  0  0  0
  1  4  2  0  0  0  0
  1  7  1  0  0  0  0
  2  5  2  0  0  0  0
  2  8  1  0  0  0  0
  3  6  1  0  0  0  0
  3  8  2  0  0  0  0
  4 10  1  0  0  0  0
  5  9  1  0  0  0  0
  6  9  2  0  0  0  0
  7 19  2  0  0  0  0
  8 18  1  0  0  0  0
  9 20  1  0  0  0  0
 10 11  2  0  0  0  0
 10 21  1  0  0  0  0
 11 19  1  0  0  0  0
 11 20  1  0  0  0  0
 12 17  1  0  0  0  0
 12 21  1  0  0  0  0
 12 22  2  0  0  0  0
 13 15  1  0  0  0  0
 13 17  1  0  0  0  0
 14 16  1  0  0  0  0
 14 17  1  0  0  0  0
 15 23  1  0  0  0  0
 16 23  1  0  0  0  0
  1 24  1  0  0  0  0
  2 25  1  0  0  0  0
  3 26  1  0  0  0  0
  4 27  1  0  0  0  0
  5 28  1  0  0  0  0
  6 29  1  0  0  0  0
  7 30  1  0  0  0  0
 13 31  1  0  0  0  0
 13 32  1  0  0  0  0
 14 33  1  0  0  0  0
 14 34  1  0  0  0  0
 15 35  1  0  0  0  0
 15 36  1  0  0  0  0
 16 37  1  0  0  0  0
 16 38  1  0  0  0  0
 17 39  1  0  0  0  0
 18 40  1  0  0  0  0
 18 41  1  0  0  0  0
 18 42  1  0  0  0  0
 20 43  1  0  0  0  0
 21 44  1  0  0  0  0
M  END
> <idnumber>
Z6374928903

> <heavy_atoms>
23

> <LogS>
-3.588

> <LogP>
3.073

> <rotating_bonds>
4

> <PSA>
63.25

> <hb_acceptors>
4

> <hb_donors>
2

> <Collection>
Advanced

> <link>
https://www.enaminestore.com/catalog/Z6374928903

> <ROCS_ShapeQuery>
_x1140_x0812_0A_x1140_0A_x1097_0A_x0365_0A_x1097_0A_x0310_0A

> <ROCS_TanimotoCombo>
0.630 

> <ROCS_ShapeTanimoto>
0.244 

> <ROCS_ColorTanimoto>
0.386 

> <ROCS_RefTversky>
0.225 

> <ROCS_RefColorTversky>
0.557 

> <ROCS_RefTverskyCombo>
0.782 

> <ROCS_FitTversky>
1.520 

> <ROCS_FitColorTversky>
0.557 

> <ROCS_FitTverskyCombo>
2.077 

> <ROCS_ColorScore>
-4.455

> <ROCS_Overlap>
2312.990

> <ROCS_Rank>
361                 

$$$$
untitled-dbase-251545_19
  -OEChem-02092421083D

 21 21  0     0  0  0  0  0  0999 V2000
    8.6504   12.2422   25.1399 C   0  0  0  0  0  0  0  0  0  0  0  0
    9.2148   12.4036   23.9463 C   0  0  0  0  0  0  0  0  0  0  0  0
    8.0238   10.9359   25.4003 C   0  0  0  0  0  0  0  0  0  0  0  0
    9.1975   11.3081   22.9524 C   0  0  0  0  0  0  0  0  0  0  0  0
    9.6220    8.9056   20.1971 C   0  0  0  0  0  0  0  0  0  0  0  0
    9.7031    8.9045   21.5346 C   0  0  0  0  0  0  0  0  0  0  0  0
    8.5004    9.0027   22.4312 C   0  0  0  0  0  0  0  0  0  0  0  0
    7.3850   10.7518   26.7524 C   0  0  0  0  0  0  0  0  0  0  0  0
    7.9870    9.9517   24.5618 N   0  0  0  0  0  0  0  0  0  0  0  0
    8.5706   10.1320   23.3391 N   0  0  0  0  0  0  0  0  0  0  0  0
    9.7281   11.4913   21.8571 O   0  0  0  0  0  0  0  0  0  0  0  0
    7.5165   11.8667   27.4938 F   0  0  0  0  0  0  0  0  0  0  0  0
    6.0728   10.4832   26.6253 F   0  0  0  0  0  0  0  0  0  0  0  0
    7.9601    9.7336   27.4177 F   0  0  0  0  0  0  0  0  0  0  0  0
   11.3608    8.8529   22.4072 Br  0  0  0  0  0  0  0  0  0  0  0  0
    8.6406   13.0169   25.8947 H   0  0  0  0  0  0  0  0  0  0  0  0
    9.6980   13.3344   23.6730 H   0  0  0  0  0  0  0  0  0  0  0  0
   10.5070    8.8546   19.5713 H   0  0  0  0  0  0  0  0  0  0  0  0
    8.6623    8.9560   19.6933 H   0  0  0  0  0  0  0  0  0  0  0  0
    7.5866    9.0722   21.8290 H   0  0  0  0  0  0  0  0  0  0  0  0
    8.4017    8.0909   23.0323 H   0  0  0  0  0  0  0  0  0  0  0  0
  1  2  2  0  0  0  0
  1  3  1  0  0  0  0
  2  4  1  0  0  0  0
  3  8  1  0  0  0  0
  3  9  2  0  0  0  0
  4 10  1  0  0  0  0
  4 11  2  0  0  0  0
  5  6  2  0  0  0  0
  6  7  1  0  0  0  0
  6 15  1  0  0  0  0
  7 10  1  0  0  0  0
  8 12  1  0  0  0  0
  8 13  1  0  0  0  0
  8 14  1  0  0  0  0
  9 10  1  0  0  0  0
  1 16  1  0  0  0  0
  2 17  1  0  0  0  0
  5 18  1  0  0  0  0
  5 19  1  0  0  0  0
  7 20  1  0  0  0  0
  7 21  1  0  0  0  0
M  END
> <idnumber>
Z1513971109

> <heavy_atoms>
15

> <LogS>
-2.446

> <LogP>
1.027

> <rotating_bonds>
3

> <PSA>
32.67

> <hb_acceptors>
2

> <hb_donors>
0

> <Collection>
Legacy

> <link>
https://www.enaminestore.com/catalog/Z1513971109

> <ROCS_ShapeQuery>
_x1140_x0812_0A_x1140_0A_x1097_0A_x0365_0A_x1097_0A_x0310_0A

> <ROCS_TanimotoCombo>
0.630 

> <ROCS_ShapeTanimoto>
0.205 

> <ROCS_ColorTanimoto>
0.424 

> <ROCS_RefTversky>
0.190 

> <ROCS_RefColorTversky>
0.458 

> <ROCS_RefTverskyCombo>
0.648 

> <ROCS_FitTversky>
1.672 

> <ROCS_FitColorTversky>
0.851 

> <ROCS_FitTverskyCombo>
2.523 

> <ROCS_ColorScore>
-3.576

> <ROCS_Overlap>
1945.090

> <ROCS_Rank>
362                 

$$$$
untitled-dbase-14954_0
  -OEChem-02092421083D

 22 23  0     0  0  0  0  0  0999 V2000
    8.5524   12.6143   24.2119 C   0  0  0  0  0  0  0  0  0  0  0  0
    7.4492   10.7896   25.2450 C   0  0  0  0  0  0  0  0  0  0  0  0
    7.5644   12.1545   25.0719 C   0  0  0  0  0  0  0  0  0  0  0  0
    9.3961   11.7108   23.5592 C   0  0  0  0  0  0  0  0  0  0  0  0
    9.1856   10.3386   23.7727 C   0  0  0  0  0  0  0  0  0  0  0  0
   11.3936   11.2201   22.2420 C   0  0  0  0  0  0  0  0  0  0  0  0
   10.7734    9.8548   21.9679 C   0  0  0  0  0  0  0  0  0  0  0  0
    6.6645   13.1003   25.7834 C   0  0  0  0  0  0  0  0  0  0  0  0
    8.2303    9.8801   24.6214 N   0  0  0  0  0  0  0  0  0  0  0  0
   10.3873   12.1602   22.6968 N   0  0  0  0  0  0  0  0  0  0  0  0
    9.9826    9.4158   23.1003 N   0  0  0  0  0  0  0  0  0  0  0  0
    8.6756   13.6836   24.0531 H   0  0  0  0  0  0  0  0  0  0  0  0
    6.7015   10.3660   25.9084 H   0  0  0  0  0  0  0  0  0  0  0  0
   12.1766   11.1309   23.0049 H   0  0  0  0  0  0  0  0  0  0  0  0
   11.8682   11.6056   21.3335 H   0  0  0  0  0  0  0  0  0  0  0  0
   10.1360    9.9025   21.0765 H   0  0  0  0  0  0  0  0  0  0  0  0
   11.5593    9.1195   21.7654 H   0  0  0  0  0  0  0  0  0  0  0  0
    5.7670   13.3049   25.1840 H   0  0  0  0  0  0  0  0  0  0  0  0
    6.3448   12.6985   26.7555 H   0  0  0  0  0  0  0  0  0  0  0  0
    7.1665   14.0567   25.9891 H   0  0  0  0  0  0  0  0  0  0  0  0
   10.5628   13.1545   22.6166 H   0  0  0  0  0  0  0  0  0  0  0  0
    9.8058    8.4299   23.2460 H   0  0  0  0  0  0  0  0  0  0  0  0
  1  3  2  0  0  0  0
  1  4  1  0  0  0  0
  2  3  1  0  0  0  0
  2  9  2  0  0  0  0
  3  8  1  0  0  0  0
  4  5  2  0  0  0  0
  4 10  1  0  0  0  0
  5  9  1  0  0  0  0
  5 11  1  0  0  0  0
  6  7  1  0  0  0  0
  6 10  1  0  0  0  0
  7 11  1  0  0  0  0
  1 12  1  0  0  0  0
  2 13  1  0  0  0  0
  6 14  1  0  0  0  0
  6 15  1  0  0  0  0
  7 16  1  0  0  0  0
  7 17  1  0  0  0  0
  8 18  1  0  0  0  0
  8 19  1  0  0  0  0
  8 20  1  0  0  0  0
 10 21  1  0  0  0  0
 11 22  1  0  0  0  0
M  END
> <idnumber>
Z1255460712

> <heavy_atoms>
11

> <LogS>
-0.6

> <LogP>
2.002

> <rotating_bonds>
0

> <PSA>
36.95

> <hb_acceptors>
3

> <hb_donors>
2

> <Collection>
Advanced

> <link>
https://www.enaminestore.com/catalog/Z1255460712

> <ROCS_ShapeQuery>
_x1140_x0812_0A_x1140_0A_x1097_0A_x0365_0A_x1097_0A_x0310_0A

> <ROCS_TanimotoCombo>
0.630 

> <ROCS_ShapeTanimoto>
0.223 

> <ROCS_ColorTanimoto>
0.407 

> <ROCS_RefTversky>
0.200 

> <ROCS_RefColorTversky>
0.479 

> <ROCS_RefTverskyCombo>
0.679 

> <ROCS_FitTversky>
2.036 

> <ROCS_FitColorTversky>
0.729 

> <ROCS_FitTverskyCombo>
2.765 

> <ROCS_ColorScore>
-3.760

> <ROCS_Overlap>
2053.818

> <ROCS_Rank>
363                 

$$$$
untitled-dbase-980976_129
  -OEChem-02092421083D

 45 47  0     1  0  0  0  0  0999 V2000
    5.9942   12.5130   26.9676 C   0  0  0  0  0  0  0  0  0  0  0  0
    5.8970   11.1508   27.2424 C   0  0  0  0  0  0  0  0  0  0  0  0
    6.8100   12.9582   25.9270 C   0  0  0  0  0  0  0  0  0  0  0  0
    6.6212   10.2338   26.4820 C   0  0  0  0  0  0  0  0  0  0  0  0
   14.1020   15.4641   24.0324 C   0  0  0  0  0  0  0  0  0  0  0  0
   11.9831   15.1633   22.3397 C   0  0  0  0  0  0  0  0  0  0  0  0
    7.5335   12.0436   25.1500 C   0  0  0  0  0  0  0  0  0  0  0  0
   13.7544   14.1911   23.5943 C   0  0  0  0  0  0  0  0  0  0  0  0
   12.6760   14.0292   22.7316 C   0  0  0  0  0  0  0  0  0  0  0  0
    7.4486   10.6793   25.4478 C   0  0  0  0  0  0  0  0  0  0  0  0
   13.3454   16.5339   23.5820 C   0  0  0  0  0  0  0  0  0  0  0  0
    9.9069   11.8662   22.2108 C   0  0  0  0  0  0  0  0  0  0  0  0
    8.4061   12.5373   24.0334 C   0  0  0  0  0  0  0  0  0  0  0  0
    8.7949   11.3936   23.0972 C   0  0  2  0  0  0  0  0  0  0  0  0
    9.2046   10.1738   23.9304 C   0  0  2  0  0  0  0  0  0  0  0  0
   14.5499   13.0173   24.0609 C   0  0  0  0  0  0  0  0  0  0  0  0
   13.6895   17.9145   24.0319 C   0  0  0  0  0  0  0  0  0  0  0  0
   12.2570   12.6782   22.2284 C   0  0  0  0  0  0  0  0  0  0  0  0
    9.6089    8.9887   23.0543 C   0  0  0  0  0  0  0  0  0  0  0  0
   12.2911   16.4159   22.7441 N   0  0  0  0  0  0  0  0  0  0  0  0
   11.0633   12.2012   22.8891 N   0  0  0  0  0  0  0  0  0  0  0  0
    9.7316   11.9223   20.9993 O   0  0  0  0  0  0  0  0  0  0  0  0
    8.1161    9.7100   24.7479 O   0  0  0  0  0  0  0  0  0  0  0  0
    8.5408    8.6439   22.3188 F   0  0  0  0  0  0  0  0  0  0  0  0
    9.9143    7.9667   23.8683 F   0  0  0  0  0  0  0  0  0  0  0  0
    5.4362   13.2288   27.5644 H   0  0  0  0  0  0  0  0  0  0  0  0
    5.2556   10.8031   28.0470 H   0  0  0  0  0  0  0  0  0  0  0  0
    6.8816   14.0243   25.7282 H   0  0  0  0  0  0  0  0  0  0  0  0
    6.5316    9.1727   26.6972 H   0  0  0  0  0  0  0  0  0  0  0  0
   14.9403   15.6139   24.7054 H   0  0  0  0  0  0  0  0  0  0  0  0
   11.1319   15.0995   21.6688 H   0  0  0  0  0  0  0  0  0  0  0  0
    7.8485   13.2939   23.4730 H   0  0  0  0  0  0  0  0  0  0  0  0
    9.3026   13.0129   24.4427 H   0  0  0  0  0  0  0  0  0  0  0  0
    7.9570   11.1643   22.4534 H   0  0  0  0  0  0  0  0  0  0  0  0
   10.0032   10.4148   24.5803 H   0  0  0  0  0  0  0  0  0  0  0  0
   14.1237   12.6123   24.9863 H   0  0  0  0  0  0  0  0  0  0  0  0
   14.5639   12.2216   23.3056 H   0  0  0  0  0  0  0  0  0  0  0  0
   15.5944   13.2955   24.2501 H   0  0  0  0  0  0  0  0  0  0  0  0
   14.4068   18.3729   23.3407 H   0  0  0  0  0  0  0  0  0  0  0  0
   12.7968   18.5509   24.0806 H   0  0  0  0  0  0  0  0  0  0  0  0
   14.1300   17.9068   25.0372 H   0  0  0  0  0  0  0  0  0  0  0  0
   12.0560   12.7124   21.1521 H   0  0  0  0  0  0  0  0  0  0  0  0
   13.0471   11.9369   22.3883 H   0  0  0  0  0  0  0  0  0  0  0  0
   10.4442    9.2541   22.4299 H   0  0  0  0  0  0  0  0  0  0  0  0
   11.0750   12.1077   23.9003 H   0  0  0  0  0  0  0  0  0  0  0  0
  1  2  1  0  0  0  0
  1  3  2  0  0  0  0
  2  4  2  0  0  0  0
  3  7  1  0  0  0  0
  4 10  1  0  0  0  0
  5  8  2  0  0  0  0
  5 11  1  0  0  0  0
  6  9  2  0  0  0  0
  6 20  1  0  0  0  0
  7 10  2  0  0  0  0
  7 13  1  0  0  0  0
  8  9  1  0  0  0  0
  8 16  1  0  0  0  0
  9 18  1  0  0  0  0
 10 23  1  0  0  0  0
 11 17  1  0  0  0  0
 11 20  2  0  0  0  0
 12 14  1  6  0  0  0
 12 21  1  0  0  0  0
 12 22  2  0  0  0  0
 13 14  1  0  0  0  0
 14 15  1  0  0  0  0
 15 19  1  1  0  0  0
 15 23  1  0  0  0  0
 18 21  1  0  0  0  0
 19 24  1  0  0  0  0
 19 25  1  0  0  0  0
  1 26  1  0  0  0  0
  2 27  1  0  0  0  0
  3 28  1  0  0  0  0
  4 29  1  0  0  0  0
  5 30  1  0  0  0  0
  6 31  1  0  0  0  0
 13 32  1  0  0  0  0
 13 33  1  0  0  0  0
 14 34  1  0  0  0  0
 15 35  1  0  0  0  0
 16 36  1  0  0  0  0
 16 37  1  0  0  0  0
 16 38  1  0  0  0  0
 17 39  1  0  0  0  0
 17 40  1  0  0  0  0
 17 41  1  0  0  0  0
 18 42  1  0  0  0  0
 18 43  1  0  0  0  0
 19 44  1  0  0  0  0
 21 45  1  0  0  0  0
M  END
> <idnumber>
Z2960233071

> <heavy_atoms>
25

> <LogS>
-4.046

> <LogP>
3.056

> <rotating_bonds>
4

> <PSA>
51.22

> <hb_acceptors>
3

> <hb_donors>
1

> <Collection>
HTS

> <link>
https://www.enaminestore.com/catalog/Z2960233071

> <ROCS_ShapeQuery>
_x1140_x0812_0A_x1140_0A_x1097_0A_x0365_0A_x1097_0A_x0310_0A

> <ROCS_TanimotoCombo>
0.630 

> <ROCS_ShapeTanimoto>
0.289 

> <ROCS_ColorTanimoto>
0.341 

> <ROCS_RefTversky>
0.259 

> <ROCS_RefColorTversky>
0.480 

> <ROCS_RefTverskyCombo>
0.739 

> <ROCS_FitTversky>
1.643 

> <ROCS_FitColorTversky>
0.541 

> <ROCS_FitTverskyCombo>
2.184 

> <ROCS_ColorScore>
-3.817

> <ROCS_Overlap>
2665.195

> <ROCS_Rank>
364                 

$$$$
untitled-dbase-592474_51
  -OEChem-02092421083D

 33 35  0     0  0  0  0  0  0999 V2000
    7.4251   12.0096   25.0951 C   0  0  0  0  0  0  0  0  0  0  0  0
    8.2821   12.4296   24.0840 C   0  0  0  0  0  0  0  0  0  0  0  0
    7.4240   10.6644   25.4272 C   0  0  0  0  0  0  0  0  0  0  0  0
    9.1003   11.5047   23.4449 C   0  0  0  0  0  0  0  0  0  0  0  0
    9.0243   10.1822   23.8511 C   0  0  0  0  0  0  0  0  0  0  0  0
   10.0179   11.9459   22.3631 C   0  0  0  0  0  0  0  0  0  0  0  0
   13.6933   13.2214   23.6892 C   0  0  0  0  0  0  0  0  0  0  0  0
   13.5829   11.8670   23.0466 C   0  0  0  0  0  0  0  0  0  0  0  0
   10.2994   15.5081   21.7141 C   0  0  0  0  0  0  0  0  0  0  0  0
   11.2346   15.7246   22.8709 C   0  0  0  0  0  0  0  0  0  0  0  0
   13.3229   13.1066   22.2365 C   0  0  0  0  0  0  0  0  0  0  0  0
   11.6913   14.9410   21.6717 C   0  0  0  0  0  0  0  0  0  0  0  0
   11.9108   13.4389   21.7766 C   0  0  0  0  0  0  0  0  0  0  0  0
    8.2043    9.7365   24.8291 N   0  0  0  0  0  0  0  0  0  0  0  0
   10.9394   12.8781   22.7470 N   0  0  0  0  0  0  0  0  0  0  0  0
    9.8829   11.4802   21.2347 O   0  0  0  0  0  0  0  0  0  0  0  0
    9.8139    9.2383   23.2467 O   0  0  0  0  0  0  0  0  0  0  0  0
    6.7790   12.7126   25.6084 H   0  0  0  0  0  0  0  0  0  0  0  0
    8.3041   13.4790   23.8023 H   0  0  0  0  0  0  0  0  0  0  0  0
    6.7745   10.2855   26.2095 H   0  0  0  0  0  0  0  0  0  0  0  0
   12.9267   13.5059   24.3993 H   0  0  0  0  0  0  0  0  0  0  0  0
   14.6846   13.5862   23.9291 H   0  0  0  0  0  0  0  0  0  0  0  0
   14.5000   11.3235   22.8552 H   0  0  0  0  0  0  0  0  0  0  0  0
   12.7423   11.2440   23.3264 H   0  0  0  0  0  0  0  0  0  0  0  0
    9.4672   14.8304   21.8594 H   0  0  0  0  0  0  0  0  0  0  0  0
   10.0813   16.3562   21.0767 H   0  0  0  0  0  0  0  0  0  0  0  0
   11.6440   16.7178   23.0092 H   0  0  0  0  0  0  0  0  0  0  0  0
   11.0288   15.1920   23.7912 H   0  0  0  0  0  0  0  0  0  0  0  0
   14.0675   13.3941   21.5040 H   0  0  0  0  0  0  0  0  0  0  0  0
   12.4051   15.4108   21.0059 H   0  0  0  0  0  0  0  0  0  0  0  0
   11.7229   12.9738   20.8027 H   0  0  0  0  0  0  0  0  0  0  0  0
   10.9748   13.2779   23.6609 H   0  0  0  0  0  0  0  0  0  0  0  0
   10.3592    9.6561   22.5659 H   0  0  0  0  0  0  0  0  0  0  0  0
  1  2  2  0  0  0  0
  1  3  1  0  0  0  0
  2  4  1  0  0  0  0
  3 14  2  0  0  0  0
  4  5  2  0  0  0  0
  4  6  1  0  0  0  0
  5 14  1  0  0  0  0
  5 17  1  0  0  0  0
  6 15  1  0  0  0  0
  6 16  2  0  0  0  0
  7  8  1  0  0  0  0
  7 11  1  0  0  0  0
  8 11  1  0  0  0  0
  9 10  1  0  0  0  0
  9 12  1  0  0  0  0
 10 12  1  0  0  0  0
 11 13  1  0  0  0  0
 12 13  1  0  0  0  0
 13 15  1  0  0  0  0
  1 18  1  0  0  0  0
  2 19  1  0  0  0  0
  3 20  1  0  0  0  0
  7 21  1  0  0  0  0
  7 22  1  0  0  0  0
  8 23  1  0  0  0  0
  8 24  1  0  0  0  0
  9 25  1  0  0  0  0
  9 26  1  0  0  0  0
 10 27  1  0  0  0  0
 10 28  1  0  0  0  0
 11 29  1  0  0  0  0
 12 30  1  0  0  0  0
 13 31  1  0  0  0  0
 15 32  1  0  0  0  0
 17 33  1  0  0  0  0
M  END
> <idnumber>
Z295752032

> <heavy_atoms>
17

> <LogS>
-2.12

> <LogP>
3.123

> <rotating_bonds>
4

> <PSA>
62.22

> <hb_acceptors>
3

> <hb_donors>
2

> <Collection>
Legacy

> <link>
https://www.enaminestore.com/catalog/Z295752032

> <ROCS_ShapeQuery>
_x1140_x0812_0A_x1140_0A_x1097_0A_x0365_0A_x1097_0A_x0310_0A

> <ROCS_TanimotoCombo>
0.630 

> <ROCS_ShapeTanimoto>
0.233 

> <ROCS_ColorTanimoto>
0.397 

> <ROCS_RefTversky>
0.212 

> <ROCS_RefColorTversky>
0.504 

> <ROCS_RefTverskyCombo>
0.716 

> <ROCS_FitTversky>
1.738 

> <ROCS_FitColorTversky>
0.652 

> <ROCS_FitTverskyCombo>
2.389 

> <ROCS_ColorScore>
-3.981

> <ROCS_Overlap>
2171.537

> <ROCS_Rank>
365                 

$$$$
untitled-dbase-1164144_6
  -OEChem-02092421083D

 34 37  0     0  0  0  0  0  0999 V2000
   12.6853   15.1939   21.0091 C   0  0  0  0  0  0  0  0  0  0  0  0
    6.1095   12.0683   26.3924 C   0  0  0  0  0  0  0  0  0  0  0  0
    8.0553   12.6765   24.7522 C   0  0  0  0  0  0  0  0  0  0  0  0
   10.3736   14.0524   23.6712 C   0  0  0  0  0  0  0  0  0  0  0  0
   11.2979   13.1800   21.1851 C   0  0  0  0  0  0  0  0  0  0  0  0
   13.0991   16.3841   21.5876 C   0  0  0  0  0  0  0  0  0  0  0  0
   11.7843   16.0521   23.4413 C   0  0  0  0  0  0  0  0  0  0  0  0
    8.9434   10.6737   23.7870 C   0  0  0  0  0  0  0  0  0  0  0  0
    5.5945   10.8337   26.7242 C   0  0  0  0  0  0  0  0  0  0  0  0
   11.7658   14.3987   21.7030 C   0  0  0  0  0  0  0  0  0  0  0  0
    7.1578   11.8587   25.4577 C   0  0  0  0  0  0  0  0  0  0  0  0
   11.2966   14.8359   22.9589 C   0  0  0  0  0  0  0  0  0  0  0  0
    8.9664   12.0574   23.8984 C   0  0  0  0  0  0  0  0  0  0  0  0
    9.9195   12.8447   23.1419 C   0  0  0  0  0  0  0  0  0  0  0  0
   10.3805   12.4094   21.9016 C   0  0  0  0  0  0  0  0  0  0  0  0
    7.2450   10.4851   25.2511 C   0  0  0  0  0  0  0  0  0  0  0  0
   10.4820   10.8741   20.0883 C   0  0  0  0  0  0  0  0  0  0  0  0
   12.6721   16.8342   22.7867 N   0  0  0  0  0  0  0  0  0  0  0  0
    8.1035    9.8377   24.4406 N   0  0  0  0  0  0  0  0  0  0  0  0
    6.2908    9.8809   26.0266 N   0  0  0  0  0  0  0  0  0  0  0  0
    9.9519   11.2322   21.3621 O   0  0  0  0  0  0  0  0  0  0  0  0
   13.0740   14.8977   20.0395 H   0  0  0  0  0  0  0  0  0  0  0  0
    5.7657   13.0162   26.7832 H   0  0  0  0  0  0  0  0  0  0  0  0
    8.0335   13.7555   24.8741 H   0  0  0  0  0  0  0  0  0  0  0  0
   10.0129   14.3919   24.6411 H   0  0  0  0  0  0  0  0  0  0  0  0
   11.6486   12.8274   20.2168 H   0  0  0  0  0  0  0  0  0  0  0  0
   13.8107   17.0285   21.0817 H   0  0  0  0  0  0  0  0  0  0  0  0
   11.4631   16.4469   24.4014 H   0  0  0  0  0  0  0  0  0  0  0  0
    9.6412   10.1606   23.1283 H   0  0  0  0  0  0  0  0  0  0  0  0
    4.7955   10.5492   27.3945 H   0  0  0  0  0  0  0  0  0  0  0  0
   10.0599    9.9167   19.7732 H   0  0  0  0  0  0  0  0  0  0  0  0
   11.5706   10.8007   20.1532 H   0  0  0  0  0  0  0  0  0  0  0  0
   10.2134   11.6448   19.3620 H   0  0  0  0  0  0  0  0  0  0  0  0
    6.1261    8.8852   26.0772 H   0  0  0  0  0  0  0  0  0  0  0  0
  1  6  2  0  0  0  0
  1 10  1  0  0  0  0
  2  9  2  0  0  0  0
  2 11  1  0  0  0  0
  3 11  1  0  0  0  0
  3 13  2  0  0  0  0
  4 12  2  0  0  0  0
  4 14  1  0  0  0  0
  5 10  2  0  0  0  0
  5 15  1  0  0  0  0
  6 18  1  0  0  0  0
  7 12  1  0  0  0  0
  7 18  2  0  0  0  0
  8 13  1  0  0  0  0
  8 19  2  0  0  0  0
  9 20  1  0  0  0  0
 10 12  1  0  0  0  0
 11 16  2  0  0  0  0
 13 14  1  0  0  0  0
 14 15  2  0  0  0  0
 15 21  1  0  0  0  0
 16 19  1  0  0  0  0
 16 20  1  0  0  0  0
 17 21  1  0  0  0  0
  1 22  1  0  0  0  0
  2 23  1  0  0  0  0
  3 24  1  0  0  0  0
  4 25  1  0  0  0  0
  5 26  1  0  0  0  0
  6 27  1  0  0  0  0
  7 28  1  0  0  0  0
  8 29  1  0  0  0  0
  9 30  1  0  0  0  0
 17 31  1  0  0  0  0
 17 32  1  0  0  0  0
 17 33  1  0  0  0  0
 20 34  1  0  0  0  0
M  END
> <idnumber>
Z8222129824

> <heavy_atoms>
21

> <LogS>
-5.139

> <LogP>
2.509

> <rotating_bonds>
2

> <PSA>
50.8

> <hb_acceptors>
3

> <hb_donors>
1

> <Collection>
Advanced

> <link>
https://www.enaminestore.com/catalog/Z8222129824

> <ROCS_ShapeQuery>
_x1140_x0812_0A_x1140_0A_x1097_0A_x0365_0A_x1097_0A_x0310_0A

> <ROCS_TanimotoCombo>
0.630 

> <ROCS_ShapeTanimoto>
0.262 

> <ROCS_ColorTanimoto>
0.368 

> <ROCS_RefTversky>
0.238 

> <ROCS_RefColorTversky>
0.538 

> <ROCS_RefTverskyCombo>
0.776 

> <ROCS_FitTversky>
1.639 

> <ROCS_FitColorTversky>
0.537 

> <ROCS_FitTverskyCombo>
2.176 

> <ROCS_ColorScore>
-4.309

> <ROCS_Overlap>
2440.561

> <ROCS_Rank>
366                 

$$$$
untitled-dbase-768042_21
  -OEChem-02092421083D

 29 30  0     0  0  0  0  0  0999 V2000
    8.9656   12.3692   24.5619 C   0  0  0  0  0  0  0  0  0  0  0  0
   12.1755   14.9684   20.9076 C   0  0  0  0  0  0  0  0  0  0  0  0
    7.5996   10.6669   25.5069 C   0  0  0  0  0  0  0  0  0  0  0  0
    9.4063   11.4488   23.6173 C   0  0  0  0  0  0  0  0  0  0  0  0
    8.0451   11.9787   25.5281 C   0  0  0  0  0  0  0  0  0  0  0  0
   12.1146   16.2876   21.3888 C   0  0  0  0  0  0  0  0  0  0  0  0
   12.3905   14.2203   22.0347 C   0  0  0  0  0  0  0  0  0  0  0  0
    8.9000   10.1607   23.6818 C   0  0  0  0  0  0  0  0  0  0  0  0
   10.3700   11.8685   22.6101 C   0  0  0  0  0  0  0  0  0  0  0  0
   11.9010   17.5209   20.6148 C   0  0  0  0  0  0  0  0  0  0  0  0
   12.5618   12.7515   22.2896 C   0  0  0  0  0  0  0  0  0  0  0  0
    7.5530   12.9394   26.5515 C   0  0  0  0  0  0  0  0  0  0  0  0
    8.0048    9.7445   24.6054 N   0  0  0  0  0  0  0  0  0  0  0  0
   12.2793   16.3528   22.7129 N   0  0  0  0  0  0  0  0  0  0  0  0
   10.1658   11.8336   21.3902 O   0  0  0  0  0  0  0  0  0  0  0  0
   12.4544   15.0352   23.1186 O   0  0  0  0  0  0  0  0  0  0  0  0
   11.5324   12.3087   23.1806 O   0  0  0  0  0  0  0  0  0  0  0  0
    8.0884   14.1924   26.4343 F   0  0  0  0  0  0  0  0  0  0  0  0
    6.1993   13.1305   26.5216 F   0  0  0  0  0  0  0  0  0  0  0  0
    7.8351   12.5428   27.8283 F   0  0  0  0  0  0  0  0  0  0  0  0
    9.3654    8.9295   22.5729 Cl  0  0  0  0  0  0  0  0  0  0  0  0
    9.3361   13.3916   24.5469 H   0  0  0  0  0  0  0  0  0  0  0  0
   12.0781   14.6129   19.8923 H   0  0  0  0  0  0  0  0  0  0  0  0
    6.8819   10.3043   26.2364 H   0  0  0  0  0  0  0  0  0  0  0  0
   10.8271   17.7633   20.5336 H   0  0  0  0  0  0  0  0  0  0  0  0
   12.4040   18.3930   21.0704 H   0  0  0  0  0  0  0  0  0  0  0  0
   12.3022   17.4449   19.5878 H   0  0  0  0  0  0  0  0  0  0  0  0
   12.4959   12.1817   21.3565 H   0  0  0  0  0  0  0  0  0  0  0  0
   13.5391   12.5476   22.7401 H   0  0  0  0  0  0  0  0  0  0  0  0
  1  4  1  0  0  0  0
  1  5  2  0  0  0  0
  2  6  1  0  0  0  0
  2  7  2  0  0  0  0
  3  5  1  0  0  0  0
  3 13  2  0  0  0  0
  4  8  2  0  0  0  0
  4  9  1  0  0  0  0
  5 12  1  0  0  0  0
  6 10  1  0  0  0  0
  6 14  2  0  0  0  0
  7 11  1  0  0  0  0
  7 16  1  0  0  0  0
  8 13  1  0  0  0  0
  8 21  1  0  0  0  0
  9 15  2  0  0  0  0
  9 17  1  0  0  0  0
 11 17  1  0  0  0  0
 12 18  1  0  0  0  0
 12 19  1  0  0  0  0
 12 20  1  0  0  0  0
 14 16  1  0  0  0  0
  1 22  1  0  0  0  0
  2 23  1  0  0  0  0
  3 24  1  0  0  0  0
 10 25  1  0  0  0  0
 10 26  1  0  0  0  0
 10 27  1  0  0  0  0
 11 28  1  0  0  0  0
 11 29  1  0  0  0  0
M  END
> <idnumber>
Z1920416900

> <heavy_atoms>
21

> <LogS>
-3.597

> <LogP>
2.061

> <rotating_bonds>
5

> <PSA>
65.22

> <hb_acceptors>
3

> <hb_donors>
0

> <Collection>
Functional

> <link>
https://www.enaminestore.com/catalog/Z1920416900

> <ROCS_ShapeQuery>
_x1140_x0812_0A_x1140_0A_x1097_0A_x0365_0A_x1097_0A_x0310_0A

> <ROCS_TanimotoCombo>
0.630 

> <ROCS_ShapeTanimoto>
0.249 

> <ROCS_ColorTanimoto>
0.380 

> <ROCS_RefTversky>
0.228 

> <ROCS_RefColorTversky>
0.456 

> <ROCS_RefTverskyCombo>
0.684 

> <ROCS_FitTversky>
1.621 

> <ROCS_FitColorTversky>
0.695 

> <ROCS_FitTverskyCombo>
2.317 

> <ROCS_ColorScore>
-3.581

> <ROCS_Overlap>
2336.698

> <ROCS_Rank>
367                 

$$$$
untitled-dbase-788250_183
  -OEChem-02092421083D

 40 42  0     0  0  0  0  0  0999 V2000
    9.7548   14.2564   20.9186 C   0  0  0  0  0  0  0  0  0  0  0  0
    9.5261   15.0980   19.8300 C   0  0  0  0  0  0  0  0  0  0  0  0
    8.5228   12.6219   24.3887 C   0  0  0  0  0  0  0  0  0  0  0  0
   11.1152   16.6841   20.7223 C   0  0  0  0  0  0  0  0  0  0  0  0
    9.1746   10.4417   23.6276 C   0  0  0  0  0  0  0  0  0  0  0  0
    7.5336   11.9762   25.1408 C   0  0  0  0  0  0  0  0  0  0  0  0
   10.6637   14.6287   21.9091 C   0  0  0  0  0  0  0  0  0  0  0  0
    9.3610   11.8200   23.6139 C   0  0  0  0  0  0  0  0  0  0  0  0
   10.2063   16.3118   19.7318 C   0  0  0  0  0  0  0  0  0  0  0  0
   11.3439   15.8425   21.8109 C   0  0  0  0  0  0  0  0  0  0  0  0
    6.4998   12.3277   26.0315 C   0  0  0  0  0  0  0  0  0  0  0  0
    7.4572   10.5944   25.0632 C   0  0  0  0  0  0  0  0  0  0  0  0
    6.1197   13.6774   26.4835 C   0  0  0  0  0  0  0  0  0  0  0  0
    9.0395   16.6909   17.6945 C   0  0  0  0  0  0  0  0  0  0  0  0
   12.8853   17.4774   22.5900 C   0  0  0  0  0  0  0  0  0  0  0  0
   10.8977   13.7098   23.0732 C   0  0  0  0  0  0  0  0  0  0  0  0
    8.2342    9.7719   24.3370 N   0  0  0  0  0  0  0  0  0  0  0  0
    5.8225   11.2671   26.4836 N   0  0  0  0  0  0  0  0  0  0  0  0
    6.4267   10.2287   25.8781 N   0  0  0  0  0  0  0  0  0  0  0  0
   10.3790   12.3971   22.8323 N   0  0  0  0  0  0  0  0  0  0  0  0
    9.9823   17.1330   18.6700 O   0  0  0  0  0  0  0  0  0  0  0  0
   12.2349   16.2210   22.7697 O   0  0  0  0  0  0  0  0  0  0  0  0
    9.2205   13.3123   20.9862 H   0  0  0  0  0  0  0  0  0  0  0  0
    8.8173   14.8026   19.0612 H   0  0  0  0  0  0  0  0  0  0  0  0
    8.6319   13.7017   24.4081 H   0  0  0  0  0  0  0  0  0  0  0  0
   11.6446   17.6307   20.6459 H   0  0  0  0  0  0  0  0  0  0  0  0
    9.8167    9.7961   23.0326 H   0  0  0  0  0  0  0  0  0  0  0  0
    5.3632   14.1245   25.8162 H   0  0  0  0  0  0  0  0  0  0  0  0
    5.7005   13.6719   27.5053 H   0  0  0  0  0  0  0  0  0  0  0  0
    6.9837   14.3648   26.5150 H   0  0  0  0  0  0  0  0  0  0  0  0
    8.9558   17.4389   16.9023 H   0  0  0  0  0  0  0  0  0  0  0  0
    8.0673   16.5373   18.1695 H   0  0  0  0  0  0  0  0  0  0  0  0
    9.3868   15.7475   17.2665 H   0  0  0  0  0  0  0  0  0  0  0  0
   13.5684   17.6575   23.4237 H   0  0  0  0  0  0  0  0  0  0  0  0
   12.1369   18.2723   22.5399 H   0  0  0  0  0  0  0  0  0  0  0  0
   13.4521   17.4539   21.6562 H   0  0  0  0  0  0  0  0  0  0  0  0
   11.9691   13.6161   23.2817 H   0  0  0  0  0  0  0  0  0  0  0  0
   10.4223   14.0964   23.9807 H   0  0  0  0  0  0  0  0  0  0  0  0
    6.0839    9.2953   26.0678 H   0  0  0  0  0  0  0  0  0  0  0  0
   10.7429   11.8464   22.0759 H   0  0  0  0  0  0  0  0  0  0  0  0
  1  2  2  0  0  0  0
  1  7  1  0  0  0  0
  2  9  1  0  0  0  0
  3  6  1  0  0  0  0
  3  8  2  0  0  0  0
  4  9  2  0  0  0  0
  4 10  1  0  0  0  0
  5  8  1  0  0  0  0
  5 17  2  0  0  0  0
  6 11  1  0  0  0  0
  6 12  2  0  0  0  0
  7 10  2  0  0  0  0
  7 16  1  0  0  0  0
  8 20  1  0  0  0  0
  9 21  1  0  0  0  0
 10 22  1  0  0  0  0
 11 13  1  0  0  0  0
 11 18  2  0  0  0  0
 12 17  1  0  0  0  0
 12 19  1  0  0  0  0
 14 21  1  0  0  0  0
 15 22  1  0  0  0  0
 16 20  1  0  0  0  0
 18 19  1  0  0  0  0
  1 23  1  0  0  0  0
  2 24  1  0  0  0  0
  3 25  1  0  0  0  0
  4 26  1  0  0  0  0
  5 27  1  0  0  0  0
 13 28  1  0  0  0  0
 13 29  1  0  0  0  0
 13 30  1  0  0  0  0
 14 31  1  0  0  0  0
 14 32  1  0  0  0  0
 14 33  1  0  0  0  0
 15 34  1  0  0  0  0
 15 35  1  0  0  0  0
 15 36  1  0  0  0  0
 16 37  1  0  0  0  0
 16 38  1  0  0  0  0
 19 39  1  0  0  0  0
 20 40  1  0  0  0  0
M  END
> <idnumber>
Z1802346605

> <heavy_atoms>
22

> <LogS>
-3.185

> <LogP>
3.162

> <rotating_bonds>
5

> <PSA>
72.06

> <hb_acceptors>
5

> <hb_donors>
2

> <Collection>
Advanced

> <link>
https://www.enaminestore.com/catalog/Z1802346605

> <ROCS_ShapeQuery>
_x1140_x0812_0A_x1140_0A_x1097_0A_x0365_0A_x1097_0A_x0310_0A

> <ROCS_TanimotoCombo>
0.630 

> <ROCS_ShapeTanimoto>
0.254 

> <ROCS_ColorTanimoto>
0.376 

> <ROCS_RefTversky>
0.232 

> <ROCS_RefColorTversky>
0.578 

> <ROCS_RefTverskyCombo>
0.809 

> <ROCS_FitTversky>
1.588 

> <ROCS_FitColorTversky>
0.518 

> <ROCS_FitTverskyCombo>
2.106 

> <ROCS_ColorScore>
-4.650

> <ROCS_Overlap>
2381.909

> <ROCS_Rank>
368                 

$$$$
untitled-dbase-411027_22
  -OEChem-02092421083D

 46 49  0     0  0  0  0  0  0999 V2000
   10.3387   16.4216   21.7800 C   0  0  0  0  0  0  0  0  0  0  0  0
   10.6387   15.0809   21.5657 C   0  0  0  0  0  0  0  0  0  0  0  0
    6.1891   11.4675   27.3678 C   0  0  0  0  0  0  0  0  0  0  0  0
    6.6858   10.4642   26.5321 C   0  0  0  0  0  0  0  0  0  0  0  0
    8.8689   12.3758   24.2776 C   0  0  0  0  0  0  0  0  0  0  0  0
    7.4727   13.0989   26.1562 C   0  0  0  0  0  0  0  0  0  0  0  0
   11.2870   17.2045   22.4183 C   0  0  0  0  0  0  0  0  0  0  0  0
   12.7411   15.4371   22.6191 C   0  0  0  0  0  0  0  0  0  0  0  0
    7.9720   12.0895   25.3157 C   0  0  0  0  0  0  0  0  0  0  0  0
    9.3438   11.3567   23.4647 C   0  0  0  0  0  0  0  0  0  0  0  0
    6.5828   12.7866   27.1800 C   0  0  0  0  0  0  0  0  0  0  0  0
   11.8608   14.5713   21.9903 C   0  0  0  0  0  0  0  0  0  0  0  0
    7.5765   10.7481   25.5005 C   0  0  0  0  0  0  0  0  0  0  0  0
    8.8999   10.0756   23.7225 C   0  0  0  0  0  0  0  0  0  0  0  0
   10.2740   11.6591   22.3878 C   0  0  0  0  0  0  0  0  0  0  0  0
   12.4589   10.6258   24.4692 C   0  0  0  0  0  0  0  0  0  0  0  0
   13.5912   11.5143   24.0415 C   0  0  0  0  0  0  0  0  0  0  0  0
   12.1774   12.0172   23.9782 C   0  0  0  0  0  0  0  0  0  0  0  0
    6.0554   13.8604   28.0691 C   0  0  0  0  0  0  0  0  0  0  0  0
    9.3693    8.9302   22.8856 C   0  0  0  0  0  0  0  0  0  0  0  0
   12.2146   13.1285   21.7731 C   0  0  0  0  0  0  0  0  0  0  0  0
   12.4848   16.7451   22.8450 N   0  0  0  0  0  0  0  0  0  0  0  0
    8.0358    9.7570   24.7133 N   0  0  0  0  0  0  0  0  0  0  0  0
   11.5123   12.2472   22.7034 N   0  0  0  0  0  0  0  0  0  0  0  0
    9.9184   11.3633   21.2395 O   0  0  0  0  0  0  0  0  0  0  0  0
    9.3924   16.8406   21.4573 H   0  0  0  0  0  0  0  0  0  0  0  0
    9.9152   14.4414   21.0674 H   0  0  0  0  0  0  0  0  0  0  0  0
    5.4961   11.2047   28.1627 H   0  0  0  0  0  0  0  0  0  0  0  0
    6.3629    9.4385   26.7003 H   0  0  0  0  0  0  0  0  0  0  0  0
    9.1955   13.3999   24.1056 H   0  0  0  0  0  0  0  0  0  0  0  0
    7.7799   14.1329   26.0103 H   0  0  0  0  0  0  0  0  0  0  0  0
   11.1007   18.2562   22.6093 H   0  0  0  0  0  0  0  0  0  0  0  0
   13.7095   15.0965   22.9721 H   0  0  0  0  0  0  0  0  0  0  0  0
   12.2071    9.7897   23.8283 H   0  0  0  0  0  0  0  0  0  0  0  0
   12.3413   10.4311   25.5283 H   0  0  0  0  0  0  0  0  0  0  0  0
   14.2353   11.9174   24.8131 H   0  0  0  0  0  0  0  0  0  0  0  0
   14.0963   11.2742   23.1139 H   0  0  0  0  0  0  0  0  0  0  0  0
   11.8865   12.7466   24.7266 H   0  0  0  0  0  0  0  0  0  0  0  0
    6.7096   13.9920   28.9400 H   0  0  0  0  0  0  0  0  0  0  0  0
    5.9859   14.8195   27.5391 H   0  0  0  0  0  0  0  0  0  0  0  0
    5.0448   13.6221   28.4268 H   0  0  0  0  0  0  0  0  0  0  0  0
   10.2789    8.4948   23.3147 H   0  0  0  0  0  0  0  0  0  0  0  0
    8.6036    8.1478   22.8204 H   0  0  0  0  0  0  0  0  0  0  0  0
    9.5856    9.2523   21.8596 H   0  0  0  0  0  0  0  0  0  0  0  0
   11.9580   12.8171   20.7546 H   0  0  0  0  0  0  0  0  0  0  0  0
   13.2895   12.9637   21.9025 H   0  0  0  0  0  0  0  0  0  0  0  0
  1  2  2  0  0  0  0
  1  7  1  0  0  0  0
  2 12  1  0  0  0  0
  3  4  2  0  0  0  0
  3 11  1  0  0  0  0
  4 13  1  0  0  0  0
  5  9  1  0  0  0  0
  5 10  2  0  0  0  0
  6  9  1  0  0  0  0
  6 11  2  0  0  0  0
  7 22  2  0  0  0  0
  8 12  2  0  0  0  0
  8 22  1  0  0  0  0
  9 13  2  0  0  0  0
 10 14  1  0  0  0  0
 10 15  1  0  0  0  0
 11 19  1  0  0  0  0
 12 21  1  0  0  0  0
 13 23  1  0  0  0  0
 14 20  1  0  0  0  0
 14 23  2  0  0  0  0
 15 24  1  0  0  0  0
 15 25  2  0  0  0  0
 16 17  1  0  0  0  0
 16 18  1  0  0  0  0
 17 18  1  0  0  0  0
 18 24  1  0  0  0  0
 21 24  1  0  0  0  0
  1 26  1  0  0  0  0
  2 27  1  0  0  0  0
  3 28  1  0  0  0  0
  4 29  1  0  0  0  0
  5 30  1  0  0  0  0
  6 31  1  0  0  0  0
  7 32  1  0  0  0  0
  8 33  1  0  0  0  0
 16 34  1  0  0  0  0
 16 35  1  0  0  0  0
 17 36  1  0  0  0  0
 17 37  1  0  0  0  0
 18 38  1  0  0  0  0
 19 39  1  0  0  0  0
 19 40  1  0  0  0  0
 19 41  1  0  0  0  0
 20 42  1  0  0  0  0
 20 43  1  0  0  0  0
 20 44  1  0  0  0  0
 21 45  1  0  0  0  0
 21 46  1  0  0  0  0
M  END
> <idnumber>
Z197646230

> <heavy_atoms>
25

> <LogS>
-4.111

> <LogP>
3.163

> <rotating_bonds>
4

> <PSA>
46.09

> <hb_acceptors>
3

> <hb_donors>
0

> <Collection>
HTS

> <link>
https://www.enaminestore.com/catalog/Z197646230

> <ROCS_ShapeQuery>
_x1140_x0812_0A_x1140_0A_x1097_0A_x0365_0A_x1097_0A_x0310_0A

> <ROCS_TanimotoCombo>
0.629 

> <ROCS_ShapeTanimoto>
0.287 

> <ROCS_ColorTanimoto>
0.342 

> <ROCS_RefTversky>
0.258 

> <ROCS_RefColorTversky>
0.452 

> <ROCS_RefTverskyCombo>
0.711 

> <ROCS_FitTversky>
1.630 

> <ROCS_FitColorTversky>
0.585 

> <ROCS_FitTverskyCombo>
2.215 

> <ROCS_ColorScore>
-3.573

> <ROCS_Overlap>
2655.171

> <ROCS_Rank>
369                 

$$$$
untitled-dbase-71881_153
  -OEChem-02092421083D

 30 30  0     0  0  0  0  0  0999 V2000
    8.5228   12.1803   24.4700 C   0  0  0  0  0  0  0  0  0  0  0  0
    9.1915   11.4203   23.5264 C   0  0  0  0  0  0  0  0  0  0  0  0
    7.6828   11.5265   25.3488 C   0  0  0  0  0  0  0  0  0  0  0  0
    8.9760   10.0568   23.5243 C   0  0  0  0  0  0  0  0  0  0  0  0
   10.1061   12.0796   22.5590 C   0  0  0  0  0  0  0  0  0  0  0  0
   11.6739   14.9081   22.0981 C   0  0  0  0  0  0  0  0  0  0  0  0
    6.9396   12.2984   26.3846 C   0  0  0  0  0  0  0  0  0  0  0  0
   11.1805    9.2775   22.6191 C   0  0  0  0  0  0  0  0  0  0  0  0
    9.6602    9.1717   22.5370 C   0  0  0  0  0  0  0  0  0  0  0  0
   12.1356   13.4836   22.3021 C   0  0  0  0  0  0  0  0  0  0  0  0
    7.4908   10.1905   25.3237 N   0  0  0  0  0  0  0  0  0  0  0  0
    8.1483    9.4436   24.3966 N   0  0  0  0  0  0  0  0  0  0  0  0
   10.4601   14.9773   21.4486 N   0  0  0  0  0  0  0  0  0  0  0  0
   11.1811   12.7761   23.1042 N   0  0  0  0  0  0  0  0  0  0  0  0
    9.8669   11.9994   21.3569 O   0  0  0  0  0  0  0  0  0  0  0  0
   12.2861   15.8919   22.5046 O   0  0  0  0  0  0  0  0  0  0  0  0
    8.6536   13.2569   24.5190 H   0  0  0  0  0  0  0  0  0  0  0  0
    5.9659   12.6221   25.9958 H   0  0  0  0  0  0  0  0  0  0  0  0
    6.7701   11.6958   27.2868 H   0  0  0  0  0  0  0  0  0  0  0  0
    7.5011   13.1883   26.6990 H   0  0  0  0  0  0  0  0  0  0  0  0
   11.5113   10.3108   22.4686 H   0  0  0  0  0  0  0  0  0  0  0  0
   11.6538    8.6551   21.8533 H   0  0  0  0  0  0  0  0  0  0  0  0
   11.5451    8.9473   23.5977 H   0  0  0  0  0  0  0  0  0  0  0  0
    9.3631    8.1224   22.6924 H   0  0  0  0  0  0  0  0  0  0  0  0
    9.3366    9.4177   21.5130 H   0  0  0  0  0  0  0  0  0  0  0  0
   13.0990   13.4555   22.8184 H   0  0  0  0  0  0  0  0  0  0  0  0
   12.2165   12.9831   21.3334 H   0  0  0  0  0  0  0  0  0  0  0  0
    9.9733   14.1345   21.1621 H   0  0  0  0  0  0  0  0  0  0  0  0
   10.0079   15.8603   21.2338 H   0  0  0  0  0  0  0  0  0  0  0  0
   11.2711   12.8451   24.1181 H   0  0  0  0  0  0  0  0  0  0  0  0
  1  2  1  0  0  0  0
  1  3  2  0  0  0  0
  2  4  2  0  0  0  0
  2  5  1  0  0  0  0
  3  7  1  0  0  0  0
  3 11  1  0  0  0  0
  4  9  1  0  0  0  0
  4 12  1  0  0  0  0
  5 14  1  0  0  0  0
  5 15  2  0  0  0  0
  6 10  1  0  0  0  0
  6 13  1  0  0  0  0
  6 16  2  0  0  0  0
  8  9  1  0  0  0  0
 10 14  1  0  0  0  0
 11 12  2  0  0  0  0
  1 17  1  0  0  0  0
  7 18  1  0  0  0  0
  7 19  1  0  0  0  0
  7 20  1  0  0  0  0
  8 21  1  0  0  0  0
  8 22  1  0  0  0  0
  8 23  1  0  0  0  0
  9 24  1  0  0  0  0
  9 25  1  0  0  0  0
 10 26  1  0  0  0  0
 10 27  1  0  0  0  0
 13 28  1  0  0  0  0
 13 29  1  0  0  0  0
 14 30  1  0  0  0  0
M  END
> <idnumber>
Z1675289536

> <heavy_atoms>
16

> <LogS>
-1.293

> <LogP>
-0.655

> <rotating_bonds>
4

> <PSA>
97.97

> <hb_acceptors>
4

> <hb_donors>
2

> <Collection>
HTS

> <link>
https://www.enaminestore.com/catalog/Z1675289536

> <ROCS_ShapeQuery>
_x1140_x0812_0A_x1140_0A_x1097_0A_x0365_0A_x1097_0A_x0310_0A

> <ROCS_TanimotoCombo>
0.629 

> <ROCS_ShapeTanimoto>
0.258 

> <ROCS_ColorTanimoto>
0.372 

> <ROCS_RefTversky>
0.229 

> <ROCS_RefColorTversky>
0.551 

> <ROCS_RefTverskyCombo>
0.780 

> <ROCS_FitTversky>
1.958 

> <ROCS_FitColorTversky>
0.533 

> <ROCS_FitTverskyCombo>
2.491 

> <ROCS_ColorScore>
-4.420

> <ROCS_Overlap>
2347.795

> <ROCS_Rank>
370                 

$$$$
untitled-dbase-747882_91
  -OEChem-02092421083D

 37 39  0     0  0  0  0  0  0999 V2000
    7.4244   12.0087   25.0946 C   0  0  0  0  0  0  0  0  0  0  0  0
    8.2878   12.4248   24.0874 C   0  0  0  0  0  0  0  0  0  0  0  0
    7.4161   10.6636   25.4271 C   0  0  0  0  0  0  0  0  0  0  0  0
    9.1052   11.4963   23.4524 C   0  0  0  0  0  0  0  0  0  0  0  0
    9.0219   10.1743   23.8585 C   0  0  0  0  0  0  0  0  0  0  0  0
   10.0025   11.9413   22.3950 C   0  0  0  0  0  0  0  0  0  0  0  0
   12.2564    7.8309   22.0564 C   0  0  0  0  0  0  0  0  0  0  0  0
   12.8249    9.0883   22.7175 C   0  0  0  0  0  0  0  0  0  0  0  0
   11.2609    7.2447   23.0561 C   0  0  0  0  0  0  0  0  0  0  0  0
   12.1407    9.1927   24.0794 C   0  0  0  0  0  0  0  0  0  0  0  0
   11.5343   14.6123   20.9143 C   0  0  0  0  0  0  0  0  0  0  0  0
   12.5286   14.8050   22.0227 C   0  0  0  0  0  0  0  0  0  0  0  0
   10.8293    8.4270   23.9203 C   0  0  0  0  0  0  0  0  0  0  0  0
   11.9063   13.4565   21.7986 C   0  0  0  0  0  0  0  0  0  0  0  0
    8.1954    9.7323   24.8329 N   0  0  0  0  0  0  0  0  0  0  0  0
    9.8330    9.2409   23.2275 N   0  0  0  0  0  0  0  0  0  0  0  0
   10.9615   12.8995   22.7398 N   0  0  0  0  0  0  0  0  0  0  0  0
    9.8885   11.4914   21.2422 O   0  0  0  0  0  0  0  0  0  0  0  0
    6.7770   12.7147   25.6020 H   0  0  0  0  0  0  0  0  0  0  0  0
    8.3147   13.4742   23.8059 H   0  0  0  0  0  0  0  0  0  0  0  0
    6.7605   10.2883   26.2060 H   0  0  0  0  0  0  0  0  0  0  0  0
   11.7749    8.0540   21.0994 H   0  0  0  0  0  0  0  0  0  0  0  0
   13.0643    7.1171   21.8607 H   0  0  0  0  0  0  0  0  0  0  0  0
   13.9085    8.9840   22.8428 H   0  0  0  0  0  0  0  0  0  0  0  0
   12.6478    9.9832   22.1133 H   0  0  0  0  0  0  0  0  0  0  0  0
   10.4038    6.8219   22.5074 H   0  0  0  0  0  0  0  0  0  0  0  0
   11.7041    6.4320   23.6491 H   0  0  0  0  0  0  0  0  0  0  0  0
   12.7678    8.7872   24.8862 H   0  0  0  0  0  0  0  0  0  0  0  0
   11.9513   10.2533   24.3111 H   0  0  0  0  0  0  0  0  0  0  0  0
   10.5560   15.0617   21.0335 H   0  0  0  0  0  0  0  0  0  0  0  0
   11.9059   14.6090   19.8967 H   0  0  0  0  0  0  0  0  0  0  0  0
   13.5692   14.9312   21.7508 H   0  0  0  0  0  0  0  0  0  0  0  0
   12.2158   15.3817   22.8845 H   0  0  0  0  0  0  0  0  0  0  0  0
   10.4459    8.0963   24.8735 H   0  0  0  0  0  0  0  0  0  0  0  0
   12.5415   12.6944   21.3601 H   0  0  0  0  0  0  0  0  0  0  0  0
    9.7253    9.1204   22.2243 H   0  0  0  0  0  0  0  0  0  0  0  0
   10.9692   13.2790   23.6809 H   0  0  0  0  0  0  0  0  0  0  0  0
  1  2  2  0  0  0  0
  1  3  1  0  0  0  0
  2  4  1  0  0  0  0
  3 15  2  0  0  0  0
  4  5  2  0  0  0  0
  4  6  1  0  0  0  0
  5 15  1  0  0  0  0
  5 16  1  0  0  0  0
  6 17  1  0  0  0  0
  6 18  2  0  0  0  0
  7  8  1  0  0  0  0
  7  9  1  0  0  0  0
  8 10  1  0  0  0  0
  9 13  1  0  0  0  0
 10 13  1  0  0  0  0
 11 12  1  0  0  0  0
 11 14  1  0  0  0  0
 12 14  1  0  0  0  0
 13 16  1  0  0  0  0
 14 17  1  0  0  0  0
  1 19  1  0  0  0  0
  2 20  1  0  0  0  0
  3 21  1  0  0  0  0
  7 22  1  0  0  0  0
  7 23  1  0  0  0  0
  8 24  1  0  0  0  0
  8 25  1  0  0  0  0
  9 26  1  0  0  0  0
  9 27  1  0  0  0  0
 10 28  1  0  0  0  0
 10 29  1  0  0  0  0
 11 30  1  0  0  0  0
 11 31  1  0  0  0  0
 12 32  1  0  0  0  0
 12 33  1  0  0  0  0
 13 34  1  0  0  0  0
 14 35  1  0  0  0  0
 16 36  1  0  0  0  0
 17 37  1  0  0  0  0
M  END
> <idnumber>
Z1230117166

> <heavy_atoms>
18

> <LogS>
-2.867

> <LogP>
3.089

> <rotating_bonds>
4

> <PSA>
54.02

> <hb_acceptors>
3

> <hb_donors>
2

> <Collection>
Advanced

> <link>
https://www.enaminestore.com/catalog/Z1230117166

> <ROCS_ShapeQuery>
_x1140_x0812_0A_x1140_0A_x1097_0A_x0365_0A_x1097_0A_x0310_0A

> <ROCS_TanimotoCombo>
0.629 

> <ROCS_ShapeTanimoto>
0.236 

> <ROCS_ColorTanimoto>
0.393 

> <ROCS_RefTversky>
0.215 

> <ROCS_RefColorTversky>
0.500 

> <ROCS_RefTverskyCombo>
0.715 

> <ROCS_FitTversky>
1.703 

> <ROCS_FitColorTversky>
0.648 

> <ROCS_FitTverskyCombo>
2.351 

> <ROCS_ColorScore>
-3.951

> <ROCS_Overlap>
2206.976

> <ROCS_Rank>
371                 

$$$$
untitled-dbase-23475_6
  -OEChem-02092421083D

 22 22  0     0  0  0  0  0  0999 V2000
    8.4502   12.4159   24.2024 C   0  0  0  0  0  0  0  0  0  0  0  0
    7.4724   11.9634   25.0812 C   0  0  0  0  0  0  0  0  0  0  0  0
    8.9587   10.1511   23.6840 C   0  0  0  0  0  0  0  0  0  0  0  0
    9.2119   11.4990   23.4867 C   0  0  0  0  0  0  0  0  0  0  0  0
    7.2968   10.5947   25.2070 C   0  0  0  0  0  0  0  0  0  0  0  0
   10.2392   11.9411   22.5600 C   0  0  0  0  0  0  0  0  0  0  0  0
    5.1215   10.9065   26.3887 C   0  0  0  0  0  0  0  0  0  0  0  0
   12.2725   13.1790   22.3787 C   0  0  0  0  0  0  0  0  0  0  0  0
    8.0174    9.6737   24.5288 N   0  0  0  0  0  0  0  0  0  0  0  0
    6.2975   10.1494   26.1076 N   0  0  0  0  0  0  0  0  0  0  0  0
   10.2493   11.6836   21.3478 O   0  0  0  0  0  0  0  0  0  0  0  0
   11.2020   12.6830   23.1897 O   0  0  0  0  0  0  0  0  0  0  0  0
    8.6112   13.4840   24.0842 H   0  0  0  0  0  0  0  0  0  0  0  0
    6.8729   12.6720   25.6438 H   0  0  0  0  0  0  0  0  0  0  0  0
    9.5205    9.3875   23.1545 H   0  0  0  0  0  0  0  0  0  0  0  0
    5.1386   11.8406   25.8081 H   0  0  0  0  0  0  0  0  0  0  0  0
    4.2331   10.3196   26.1128 H   0  0  0  0  0  0  0  0  0  0  0  0
    5.0858   11.1430   27.4624 H   0  0  0  0  0  0  0  0  0  0  0  0
   12.9667   13.7503   22.9999 H   0  0  0  0  0  0  0  0  0  0  0  0
   11.8670   13.8147   21.5875 H   0  0  0  0  0  0  0  0  0  0  0  0
   12.7997   12.3337   21.9301 H   0  0  0  0  0  0  0  0  0  0  0  0
    6.4534    9.2659   26.5482 H   0  0  0  0  0  0  0  0  0  0  0  0
  1  2  2  0  0  0  0
  1  4  1  0  0  0  0
  2  5  1  0  0  0  0
  3  4  2  0  0  0  0
  3  9  1  0  0  0  0
  4  6  1  0  0  0  0
  5  9  2  0  0  0  0
  5 10  1  0  0  0  0
  6 11  2  0  0  0  0
  6 12  1  0  0  0  0
  7 10  1  0  0  0  0
  8 12  1  0  0  0  0
  1 13  1  0  0  0  0
  2 14  1  0  0  0  0
  3 15  1  0  0  0  0
  7 16  1  0  0  0  0
  7 17  1  0  0  0  0
  7 18  1  0  0  0  0
  8 19  1  0  0  0  0
  8 20  1  0  0  0  0
  8 21  1  0  0  0  0
 10 22  1  0  0  0  0
M  END
> <idnumber>
Z1262606783

> <heavy_atoms>
12

> <LogS>
-0.922

> <LogP>
1.324

> <rotating_bonds>
3

> <PSA>
51.22

> <hb_acceptors>
3

> <hb_donors>
1

> <Collection>
HTS

> <link>
https://www.enaminestore.com/catalog/Z1262606783

> <ROCS_ShapeQuery>
_x1140_x0812_0A_x1140_0A_x1097_0A_x0365_0A_x1097_0A_x0310_0A

> <ROCS_TanimotoCombo>
0.629 

> <ROCS_ShapeTanimoto>
0.224 

> <ROCS_ColorTanimoto>
0.405 

> <ROCS_RefTversky>
0.201 

> <ROCS_RefColorTversky>
0.444 

> <ROCS_RefTverskyCombo>
0.645 

> <ROCS_FitTversky>
1.991 

> <ROCS_FitColorTversky>
0.824 

> <ROCS_FitTverskyCombo>
2.815 

> <ROCS_ColorScore>
-3.460

> <ROCS_Overlap>
2064.336

> <ROCS_Rank>
372                 

$$$$
untitled-dbase-714021_40
  -OEChem-02092421083D

 33 35  0     0  0  0  0  0  0999 V2000
    3.1981   12.3018   27.9519 C   0  0  0  0  0  0  0  0  0  0  0  0
    3.3204   10.9215   28.1112 C   0  0  0  0  0  0  0  0  0  0  0  0
    4.0948   12.9920   27.1362 C   0  0  0  0  0  0  0  0  0  0  0  0
    4.3394   10.2313   27.4548 C   0  0  0  0  0  0  0  0  0  0  0  0
    5.1138   12.3018   26.4798 C   0  0  0  0  0  0  0  0  0  0  0  0
    8.3450   12.3199   23.9925 C   0  0  0  0  0  0  0  0  0  0  0  0
    5.2362   10.9215   26.6391 C   0  0  0  0  0  0  0  0  0  0  0  0
    9.2577   11.4345   23.4563 C   0  0  0  0  0  0  0  0  0  0  0  0
    9.0959   10.1144   23.8241 C   0  0  0  0  0  0  0  0  0  0  0  0
    7.2949   10.6402   25.1074 C   0  0  0  0  0  0  0  0  0  0  0  0
    9.7840    8.0198   21.0256 C   0  0  0  0  0  0  0  0  0  0  0  0
   10.5691    7.0939   21.9092 C   0  0  0  0  0  0  0  0  0  0  0  0
    9.5776    8.0467   22.5132 C   0  0  0  0  0  0  0  0  0  0  0  0
    7.3473   11.9558   24.8245 N   0  0  0  0  0  0  0  0  0  0  0  0
    8.1220    9.6805   24.6509 N   0  0  0  0  0  0  0  0  0  0  0  0
    6.2666   10.2239   25.9751 N   0  0  0  0  0  0  0  0  0  0  0  0
   10.0004    9.1525   23.3091 N   0  0  0  0  0  0  0  0  0  0  0  0
   10.2827   11.8878   22.5869 N   0  3  0  0  0  0  0  0  0  0  0  0
   11.3838   12.2422   23.0752 O   0  5  0  0  0  0  0  0  0  0  0  0
   10.0625   11.9234   21.3512 O   0  0  0  0  0  0  0  0  0  0  0  0
    2.4046   12.8392   28.4633 H   0  0  0  0  0  0  0  0  0  0  0  0
    2.6224   10.3845   28.7463 H   0  0  0  0  0  0  0  0  0  0  0  0
    3.9994   14.0669   27.0123 H   0  0  0  0  0  0  0  0  0  0  0  0
    4.4262    9.1558   27.5856 H   0  0  0  0  0  0  0  0  0  0  0  0
    5.8066   12.8502   25.8465 H   0  0  0  0  0  0  0  0  0  0  0  0
    8.3824   13.3819   23.7681 H   0  0  0  0  0  0  0  0  0  0  0  0
   10.3138    8.8435   20.5635 H   0  0  0  0  0  0  0  0  0  0  0  0
    8.9994    7.5901   20.4151 H   0  0  0  0  0  0  0  0  0  0  0  0
   10.3126    6.0419   21.8922 H   0  0  0  0  0  0  0  0  0  0  0  0
   11.6252    7.2974   22.0380 H   0  0  0  0  0  0  0  0  0  0  0  0
    8.6522    7.6200   22.8842 H   0  0  0  0  0  0  0  0  0  0  0  0
    6.2655    9.2250   26.1592 H   0  0  0  0  0  0  0  0  0  0  0  0
   10.9661    9.2820   23.5316 H   0  0  0  0  0  0  0  0  0  0  0  0
  1  2  1  0  0  0  0
  1  3  2  0  0  0  0
  2  4  2  0  0  0  0
  3  5  1  0  0  0  0
  4  7  1  0  0  0  0
  5  7  2  0  0  0  0
  6  8  1  0  0  0  0
  6 14  2  0  0  0  0
  7 16  1  0  0  0  0
  8  9  2  0  0  0  0
  8 18  1  0  0  0  0
  9 15  1  0  0  0  0
  9 17  1  0  0  0  0
 10 14  1  0  0  0  0
 10 15  2  0  0  0  0
 10 16  1  0  0  0  0
 11 12  1  0  0  0  0
 11 13  1  0  0  0  0
 12 13  1  0  0  0  0
 13 17  1  0  0  0  0
 18 19  1  0  0  0  0
 18 20  2  0  0  0  0
  1 21  1  0  0  0  0
  2 22  1  0  0  0  0
  3 23  1  0  0  0  0
  4 24  1  0  0  0  0
  5 25  1  0  0  0  0
  6 26  1  0  0  0  0
 11 27  1  0  0  0  0
 11 28  1  0  0  0  0
 12 29  1  0  0  0  0
 12 30  1  0  0  0  0
 13 31  1  0  0  0  0
 16 32  1  0  0  0  0
 17 33  1  0  0  0  0
M  CHG  2  18   1  19  -1
M  END
> <idnumber>
Z354262594

> <heavy_atoms>
20

> <LogS>
-4.14

> <LogP>
3.877

> <rotating_bonds>
5

> <PSA>
92.98

> <hb_acceptors>
6

> <hb_donors>
2

> <Collection>
Legacy

> <link>
https://www.enaminestore.com/catalog/Z354262594

> <ROCS_ShapeQuery>
_x1140_x0812_0A_x1140_0A_x1097_0A_x0365_0A_x1097_0A_x0310_0A

> <ROCS_TanimotoCombo>
0.629 

> <ROCS_ShapeTanimoto>
0.257 

> <ROCS_ColorTanimoto>
0.372 

> <ROCS_RefTversky>
0.233 

> <ROCS_RefColorTversky>
0.543 

> <ROCS_RefTverskyCombo>
0.775 

> <ROCS_FitTversky>
1.698 

> <ROCS_FitColorTversky>
0.541 

> <ROCS_FitTverskyCombo>
2.239 

> <ROCS_ColorScore>
-4.342

> <ROCS_Overlap>
2388.498

> <ROCS_Rank>
373                 

$$$$
untitled-dbase-651483_36
  -OEChem-02092421083D

 28 29  0     0  0  0  0  0  0999 V2000
    7.4297   11.9257   25.2402 C   0  0  0  0  0  0  0  0  0  0  0  0
    8.3787   12.4651   24.3789 C   0  0  0  0  0  0  0  0  0  0  0  0
    7.3588   10.5459   25.3451 C   0  0  0  0  0  0  0  0  0  0  0  0
   10.7818   16.8790   20.9125 C   0  0  0  0  0  0  0  0  0  0  0  0
    9.2159   11.6201   23.6589 C   0  0  0  0  0  0  0  0  0  0  0  0
   11.6415   17.2175   21.9363 C   0  0  0  0  0  0  0  0  0  0  0  0
    9.0652   10.2540   23.8347 C   0  0  0  0  0  0  0  0  0  0  0  0
   11.7992   15.0349   22.0814 C   0  0  0  0  0  0  0  0  0  0  0  0
   10.2105   12.1772   22.7553 C   0  0  0  0  0  0  0  0  0  0  0  0
   11.9781   18.5908   22.3610 C   0  0  0  0  0  0  0  0  0  0  0  0
   12.2140   13.6690   22.5468 C   0  0  0  0  0  0  0  0  0  0  0  0
    8.1549    9.6931   24.6621 N   0  0  0  0  0  0  0  0  0  0  0  0
   12.2256   16.1614   22.6081 N   0  0  0  0  0  0  0  0  0  0  0  0
   11.1759   13.0213   23.3159 N   0  0  0  0  0  0  0  0  0  0  0  0
   10.1734   11.9186   21.5394 O   0  0  0  0  0  0  0  0  0  0  0  0
    9.8705    9.3860   23.1436 O   0  0  0  0  0  0  0  0  0  0  0  0
   10.6949   15.1717   20.7750 S   0  0  0  0  0  0  0  0  0  0  0  0
    6.7671   12.5646   25.8128 H   0  0  0  0  0  0  0  0  0  0  0  0
    8.4569   13.5442   24.2764 H   0  0  0  0  0  0  0  0  0  0  0  0
    6.6364   10.0749   26.0036 H   0  0  0  0  0  0  0  0  0  0  0  0
   10.2181   17.5287   20.2578 H   0  0  0  0  0  0  0  0  0  0  0  0
   11.2833   18.9474   23.1388 H   0  0  0  0  0  0  0  0  0  0  0  0
   13.0011   18.6587   22.7685 H   0  0  0  0  0  0  0  0  0  0  0  0
   11.9366   19.3052   21.5211 H   0  0  0  0  0  0  0  0  0  0  0  0
   12.4520   13.0259   21.6925 H   0  0  0  0  0  0  0  0  0  0  0  0
   13.1107   13.7228   23.1732 H   0  0  0  0  0  0  0  0  0  0  0  0
   11.1227   13.2492   24.3033 H   0  0  0  0  0  0  0  0  0  0  0  0
   10.4821    9.8837   22.5836 H   0  0  0  0  0  0  0  0  0  0  0  0
  1  2  2  0  0  0  0
  1  3  1  0  0  0  0
  2  5  1  0  0  0  0
  3 12  2  0  0  0  0
  4  6  2  0  0  0  0
  4 17  1  0  0  0  0
  5  7  2  0  0  0  0
  5  9  1  0  0  0  0
  6 10  1  0  0  0  0
  6 13  1  0  0  0  0
  7 12  1  0  0  0  0
  7 16  1  0  0  0  0
  8 11  1  0  0  0  0
  8 13  2  0  0  0  0
  8 17  1  0  0  0  0
  9 14  1  0  0  0  0
  9 15  2  0  0  0  0
 11 14  1  0  0  0  0
  1 18  1  0  0  0  0
  2 19  1  0  0  0  0
  3 20  1  0  0  0  0
  4 21  1  0  0  0  0
 10 22  1  0  0  0  0
 10 23  1  0  0  0  0
 10 24  1  0  0  0  0
 11 25  1  0  0  0  0
 11 26  1  0  0  0  0
 14 27  1  0  0  0  0
 16 28  1  0  0  0  0
M  END
> <idnumber>
Z225898360

> <heavy_atoms>
17

> <LogS>
-1.432

> <LogP>
2.208

> <rotating_bonds>
3

> <PSA>
75.11

> <hb_acceptors>
4

> <hb_donors>
2

> <Collection>
Legacy

> <link>
https://www.enaminestore.com/catalog/Z225898360

> <ROCS_ShapeQuery>
_x1140_x0812_0A_x1140_0A_x1097_0A_x0365_0A_x1097_0A_x0310_0A

> <ROCS_TanimotoCombo>
0.629 

> <ROCS_ShapeTanimoto>
0.235 

> <ROCS_ColorTanimoto>
0.394 

> <ROCS_RefTversky>
0.214 

> <ROCS_RefColorTversky>
0.565 

> <ROCS_RefTverskyCombo>
0.779 

> <ROCS_FitTversky>
1.753 

> <ROCS_FitColorTversky>
0.565 

> <ROCS_FitTverskyCombo>
2.317 

> <ROCS_ColorScore>
-4.523

> <ROCS_Overlap>
2192.268

> <ROCS_Rank>
374                 

$$$$
untitled-dbase-242747_156
  -OEChem-02092421083D

 31 32  0     0  0  0  0  0  0999 V2000
   13.1461    8.3827   21.8086 C   0  0  0  0  0  0  0  0  0  0  0  0
    7.4218   12.0114   25.1123 C   0  0  0  0  0  0  0  0  0  0  0  0
    8.2711   12.4245   24.0918 C   0  0  0  0  0  0  0  0  0  0  0  0
   11.7630    8.4986   21.9474 C   0  0  0  0  0  0  0  0  0  0  0  0
   13.9907    8.8769   22.8027 C   0  0  0  0  0  0  0  0  0  0  0  0
   12.0691    9.6029   24.0744 C   0  0  0  0  0  0  0  0  0  0  0  0
    7.4218   10.6682   25.4522 C   0  0  0  0  0  0  0  0  0  0  0  0
    9.0830   11.4949   23.4515 C   0  0  0  0  0  0  0  0  0  0  0  0
   11.2245    9.1087   23.0803 C   0  0  0  0  0  0  0  0  0  0  0  0
   13.4522    9.4870   23.9355 C   0  0  0  0  0  0  0  0  0  0  0  0
    9.0087   10.1748   23.8659 C   0  0  0  0  0  0  0  0  0  0  0  0
    9.9654   11.9366   22.3803 C   0  0  0  0  0  0  0  0  0  0  0  0
   12.1395   14.6572   21.9186 C   0  0  0  0  0  0  0  0  0  0  0  0
    8.1961    9.7359   24.8531 N   0  0  0  0  0  0  0  0  0  0  0  0
    9.8262    9.2267   23.2204 N   0  0  0  0  0  0  0  0  0  0  0  0
   10.9117   12.8912   22.7213 N   0  0  0  0  0  0  0  0  0  0  0  0
    9.9052   11.4826   21.2279 O   0  0  0  0  0  0  0  0  0  0  0  0
   11.7588   13.3097   21.6759 O   0  0  0  0  0  0  0  0  0  0  0  0
   14.2633    9.9600   24.8909 F   0  0  0  0  0  0  0  0  0  0  0  0
   13.5656    7.9069   20.9268 H   0  0  0  0  0  0  0  0  0  0  0  0
    6.7790   12.7184   25.6241 H   0  0  0  0  0  0  0  0  0  0  0  0
    8.2913   13.4724   23.8043 H   0  0  0  0  0  0  0  0  0  0  0  0
   11.1143    8.1106   21.1664 H   0  0  0  0  0  0  0  0  0  0  0  0
   15.0675    8.7863   22.6948 H   0  0  0  0  0  0  0  0  0  0  0  0
   11.6607   10.0806   24.9612 H   0  0  0  0  0  0  0  0  0  0  0  0
    6.7773   10.2953   26.2414 H   0  0  0  0  0  0  0  0  0  0  0  0
   12.7980   15.0006   21.1170 H   0  0  0  0  0  0  0  0  0  0  0  0
   12.6536   14.7238   22.8807 H   0  0  0  0  0  0  0  0  0  0  0  0
   11.2428   15.2810   21.9428 H   0  0  0  0  0  0  0  0  0  0  0  0
    9.3076    8.4803   22.7667 H   0  0  0  0  0  0  0  0  0  0  0  0
   10.9890   13.2634   23.6609 H   0  0  0  0  0  0  0  0  0  0  0  0
  1  4  2  0  0  0  0
  1  5  1  0  0  0  0
  2  3  2  0  0  0  0
  2  7  1  0  0  0  0
  3  8  1  0  0  0  0
  4  9  1  0  0  0  0
  5 10  2  0  0  0  0
  6  9  2  0  0  0  0
  6 10  1  0  0  0  0
  7 14  2  0  0  0  0
  8 11  2  0  0  0  0
  8 12  1  0  0  0  0
  9 15  1  0  0  0  0
 10 19  1  0  0  0  0
 11 14  1  0  0  0  0
 11 15  1  0  0  0  0
 12 16  1  0  0  0  0
 12 17  2  0  0  0  0
 13 18  1  0  0  0  0
 16 18  1  0  0  0  0
  1 20  1  0  0  0  0
  2 21  1  0  0  0  0
  3 22  1  0  0  0  0
  4 23  1  0  0  0  0
  5 24  1  0  0  0  0
  6 25  1  0  0  0  0
  7 26  1  0  0  0  0
 13 27  1  0  0  0  0
 13 28  1  0  0  0  0
 13 29  1  0  0  0  0
 15 30  1  0  0  0  0
 16 31  1  0  0  0  0
M  END
> <idnumber>
Z464345406

> <heavy_atoms>
19

> <LogS>
-3.33

> <LogP>
2.213

> <rotating_bonds>
4

> <PSA>
63.25

> <hb_acceptors>
4

> <hb_donors>
2

> <Collection>
Legacy

> <link>
https://www.enaminestore.com/catalog/Z464345406

> <ROCS_ShapeQuery>
_x1140_x0812_0A_x1140_0A_x1097_0A_x0365_0A_x1097_0A_x0310_0A

> <ROCS_TanimotoCombo>
0.629 

> <ROCS_ShapeTanimoto>
0.236 

> <ROCS_ColorTanimoto>
0.393 

> <ROCS_RefTversky>
0.216 

> <ROCS_RefColorTversky>
0.500 

> <ROCS_RefTverskyCombo>
0.716 

> <ROCS_FitTversky>
1.639 

> <ROCS_FitColorTversky>
0.648 

> <ROCS_FitTverskyCombo>
2.287 

> <ROCS_ColorScore>
-3.953

> <ROCS_Overlap>
2214.810

> <ROCS_Rank>
375                 

$$$$
untitled-dbase-428479_7
  -OEChem-02092421083D

 42 43  0     0  0  0  0  0  0999 V2000
    8.9900    9.9905   23.8812 C   0  0  0  0  0  0  0  0  0  0  0  0
    9.0855   11.3244   23.4416 C   0  0  0  0  0  0  0  0  0  0  0  0
    8.1716   12.0049   24.2085 C   0  0  0  0  0  0  0  0  0  0  0  0
    9.9606   11.9064   22.3916 C   0  0  0  0  0  0  0  0  0  0  0  0
   13.0260   13.9718   22.6177 C   0  0  0  0  0  0  0  0  0  0  0  0
   11.0617   14.8001   21.2810 C   0  0  0  0  0  0  0  0  0  0  0  0
   12.8207   15.1795   23.5264 C   0  0  0  0  0  0  0  0  0  0  0  0
   10.9791   15.9655   22.2622 C   0  0  0  0  0  0  0  0  0  0  0  0
   11.7303   13.5741   21.9078 C   0  0  0  0  0  0  0  0  0  0  0  0
    5.3125   11.8603   25.3411 C   0  0  0  0  0  0  0  0  0  0  0  0
    7.0898   12.3001   27.0811 C   0  0  0  0  0  0  0  0  0  0  0  0
    6.1521   10.0195   26.7830 C   0  0  0  0  0  0  0  0  0  0  0  0
    7.7873   13.4296   24.2350 C   0  0  0  0  0  0  0  0  0  0  0  0
    6.5806   11.2981   26.0210 C   0  0  0  0  0  0  0  0  0  0  0  0
    8.0869    9.8309   24.8522 N   0  0  0  0  0  0  0  0  0  0  0  0
    7.6065   11.0735   25.0292 N   0  0  0  0  0  0  0  0  0  0  0  0
   10.8332   12.8949   22.8146 N   0  0  0  0  0  0  0  0  0  0  0  0
    9.8551   11.5088   21.2343 O   0  0  0  0  0  0  0  0  0  0  0  0
   12.2661   16.2727   22.7960 O   0  0  0  0  0  0  0  0  0  0  0  0
    8.4636   14.2121   23.3330 F   0  0  0  0  0  0  0  0  0  0  0  0
    6.4625   13.6598   23.9613 F   0  0  0  0  0  0  0  0  0  0  0  0
    8.0044   14.0257   25.4504 F   0  0  0  0  0  0  0  0  0  0  0  0
    9.5411    9.1270   23.5365 H   0  0  0  0  0  0  0  0  0  0  0  0
   13.7634   14.2376   21.8493 H   0  0  0  0  0  0  0  0  0  0  0  0
   13.4437   13.1310   23.1831 H   0  0  0  0  0  0  0  0  0  0  0  0
   10.0675   14.5547   20.8904 H   0  0  0  0  0  0  0  0  0  0  0  0
   11.6719   15.1134   20.4239 H   0  0  0  0  0  0  0  0  0  0  0  0
   12.1716   14.9399   24.3768 H   0  0  0  0  0  0  0  0  0  0  0  0
   13.7843   15.5053   23.9313 H   0  0  0  0  0  0  0  0  0  0  0  0
   10.6109   16.8581   21.7465 H   0  0  0  0  0  0  0  0  0  0  0  0
   10.2851   15.7511   23.0832 H   0  0  0  0  0  0  0  0  0  0  0  0
   11.9605   12.8412   21.1174 H   0  0  0  0  0  0  0  0  0  0  0  0
    4.9300   11.1672   24.5830 H   0  0  0  0  0  0  0  0  0  0  0  0
    4.5001   12.0322   26.0553 H   0  0  0  0  0  0  0  0  0  0  0  0
    5.5231   12.8156   24.8463 H   0  0  0  0  0  0  0  0  0  0  0  0
    7.9907   11.9429   27.5911 H   0  0  0  0  0  0  0  0  0  0  0  0
    7.3426   13.2642   26.6247 H   0  0  0  0  0  0  0  0  0  0  0  0
    6.3275   12.4817   27.8477 H   0  0  0  0  0  0  0  0  0  0  0  0
    7.0069    9.5611   27.2949 H   0  0  0  0  0  0  0  0  0  0  0  0
    5.4005   10.2390   27.5501 H   0  0  0  0  0  0  0  0  0  0  0  0
    5.7422    9.2630   26.1039 H   0  0  0  0  0  0  0  0  0  0  0  0
   10.8209   13.2168   23.7760 H   0  0  0  0  0  0  0  0  0  0  0  0
  1  2  1  0  0  0  0
  1 15  2  0  0  0  0
  2  3  2  0  0  0  0
  2  4  1  0  0  0  0
  3 13  1  0  0  0  0
  3 16  1  0  0  0  0
  4 17  1  0  0  0  0
  4 18  2  0  0  0  0
  5  7  1  0  0  0  0
  5  9  1  0  0  0  0
  6  8  1  0  0  0  0
  6  9  1  0  0  0  0
  7 19  1  0  0  0  0
  8 19  1  0  0  0  0
  9 17  1  0  0  0  0
 10 14  1  0  0  0  0
 11 14  1  0  0  0  0
 12 14  1  0  0  0  0
 13 20  1  0  0  0  0
 13 21  1  0  0  0  0
 13 22  1  0  0  0  0
 14 16  1  0  0  0  0
 15 16  1  0  0  0  0
  1 23  1  0  0  0  0
  5 24  1  0  0  0  0
  5 25  1  0  0  0  0
  6 26  1  0  0  0  0
  6 27  1  0  0  0  0
  7 28  1  0  0  0  0
  7 29  1  0  0  0  0
  8 30  1  0  0  0  0
  8 31  1  0  0  0  0
  9 32  1  0  0  0  0
 10 33  1  0  0  0  0
 10 34  1  0  0  0  0
 10 35  1  0  0  0  0
 11 36  1  0  0  0  0
 11 37  1  0  0  0  0
 11 38  1  0  0  0  0
 12 39  1  0  0  0  0
 12 40  1  0  0  0  0
 12 41  1  0  0  0  0
 17 42  1  0  0  0  0
M  END
> <idnumber>
Z773510720

> <heavy_atoms>
22

> <LogS>
-2.567

> <LogP>
0.044

> <rotating_bonds>
4

> <PSA>
56.15

> <hb_acceptors>
3

> <hb_donors>
1

> <Collection>
Advanced

> <link>
https://www.enaminestore.com/catalog/Z773510720

> <ROCS_ShapeQuery>
_x1140_x0812_0A_x1140_0A_x1097_0A_x0365_0A_x1097_0A_x0310_0A

> <ROCS_TanimotoCombo>
0.629 

> <ROCS_ShapeTanimoto>
0.285 

> <ROCS_ColorTanimoto>
0.344 

> <ROCS_RefTversky>
0.254 

> <ROCS_RefColorTversky>
0.483 

> <ROCS_RefTverskyCombo>
0.737 

> <ROCS_FitTversky>
1.754 

> <ROCS_FitColorTversky>
0.545 

> <ROCS_FitTverskyCombo>
2.298 

> <ROCS_ColorScore>
-3.841

> <ROCS_Overlap>
2606.187

> <ROCS_Rank>
376                 

$$$$
untitled-dbase-509011_28
  -OEChem-02092421083D

 27 28  0     0  0  0  0  0  0999 V2000
   13.8150   14.8358   23.3529 C   0  0  0  0  0  0  0  0  0  0  0  0
    8.8693   12.3156   24.5867 C   0  0  0  0  0  0  0  0  0  0  0  0
   13.5132   16.2103   23.3135 C   0  0  0  0  0  0  0  0  0  0  0  0
    9.3501   11.4095   23.6480 C   0  0  0  0  0  0  0  0  0  0  0  0
    7.9406   11.8997   25.5342 C   0  0  0  0  0  0  0  0  0  0  0  0
   12.7734   14.2365   22.6878 C   0  0  0  0  0  0  0  0  0  0  0  0
    8.8743   10.1092   23.6989 C   0  0  0  0  0  0  0  0  0  0  0  0
    7.5278   10.5775   25.5005 C   0  0  0  0  0  0  0  0  0  0  0  0
   10.3222   11.8558   22.6607 C   0  0  0  0  0  0  0  0  0  0  0  0
   10.7047   15.1261   21.5724 C   0  0  0  0  0  0  0  0  0  0  0  0
   12.4976   12.7930   22.3847 C   0  0  0  0  0  0  0  0  0  0  0  0
   12.3696   16.4690   22.6739 N   0  0  0  0  0  0  0  0  0  0  0  0
    7.9723    9.6682   24.6043 N   0  0  0  0  0  0  0  0  0  0  0  0
   11.9436   15.2490   22.3052 N   0  0  0  0  0  0  0  0  0  0  0  0
   10.1423   11.8202   21.4370 O   0  0  0  0  0  0  0  0  0  0  0  0
   11.4625   12.3223   23.2546 O   0  0  0  0  0  0  0  0  0  0  0  0
    7.4682   12.7608   26.4442 F   0  0  0  0  0  0  0  0  0  0  0  0
    9.3900    8.8947   22.5946 Cl  0  0  0  0  0  0  0  0  0  0  0  0
    6.3846    9.9717   26.6279 Cl  0  0  0  0  0  0  0  0  0  0  0  0
   14.6693   14.3504   23.8017 H   0  0  0  0  0  0  0  0  0  0  0  0
    9.2102   13.3475   24.5900 H   0  0  0  0  0  0  0  0  0  0  0  0
   14.0792   17.0340   23.7243 H   0  0  0  0  0  0  0  0  0  0  0  0
    9.8945   15.0089   22.2968 H   0  0  0  0  0  0  0  0  0  0  0  0
   10.5493   16.0233   20.9668 H   0  0  0  0  0  0  0  0  0  0  0  0
   10.7593   14.2547   20.9139 H   0  0  0  0  0  0  0  0  0  0  0  0
   12.1762   12.6654   21.3454 H   0  0  0  0  0  0  0  0  0  0  0  0
   13.3971   12.1865   22.5355 H   0  0  0  0  0  0  0  0  0  0  0  0
  1  3  1  0  0  0  0
  1  6  2  0  0  0  0
  2  4  1  0  0  0  0
  2  5  2  0  0  0  0
  3 12  2  0  0  0  0
  4  7  2  0  0  0  0
  4  9  1  0  0  0  0
  5  8  1  0  0  0  0
  5 17  1  0  0  0  0
  6 11  1  0  0  0  0
  6 14  1  0  0  0  0
  7 13  1  0  0  0  0
  7 18  1  0  0  0  0
  8 13  2  0  0  0  0
  8 19  1  0  0  0  0
  9 15  2  0  0  0  0
  9 16  1  0  0  0  0
 10 14  1  0  0  0  0
 11 16  1  0  0  0  0
 12 14  1  0  0  0  0
  1 20  1  0  0  0  0
  2 21  1  0  0  0  0
  3 22  1  0  0  0  0
 10 23  1  0  0  0  0
 10 24  1  0  0  0  0
 10 25  1  0  0  0  0
 11 26  1  0  0  0  0
 11 27  1  0  0  0  0
M  END
> <idnumber>
Z1491567757

> <heavy_atoms>
19

> <LogS>
-3.798

> <LogP>
1.882

> <rotating_bonds>
4

> <PSA>
57.01

> <hb_acceptors>
3

> <hb_donors>
0

> <Collection>
Functional

> <link>
https://www.enaminestore.com/catalog/Z1491567757

> <ROCS_ShapeQuery>
_x1140_x0812_0A_x1140_0A_x1097_0A_x0365_0A_x1097_0A_x0310_0A

> <ROCS_TanimotoCombo>
0.629 

> <ROCS_ShapeTanimoto>
0.251 

> <ROCS_ColorTanimoto>
0.378 

> <ROCS_RefTversky>
0.227 

> <ROCS_RefColorTversky>
0.454 

> <ROCS_RefTverskyCombo>
0.681 

> <ROCS_FitTversky>
1.733 

> <ROCS_FitColorTversky>
0.692 

> <ROCS_FitTverskyCombo>
2.425 

> <ROCS_ColorScore>
-3.566

> <ROCS_Overlap>
2328.916

> <ROCS_Rank>
377                 

$$$$
untitled-dbase-538634_62
  -OEChem-02092421083D

 32 33  0     0  0  0  0  0  0999 V2000
    8.7804   12.6001   24.6148 C   0  0  0  0  0  0  0  0  0  0  0  0
    7.7607   12.0239   25.3642 C   0  0  0  0  0  0  0  0  0  0  0  0
    9.0904   10.5089   23.5251 C   0  0  0  0  0  0  0  0  0  0  0  0
   12.1652   15.4141   23.8300 C   0  0  0  0  0  0  0  0  0  0  0  0
    9.4629   11.8349   23.6756 C   0  0  0  0  0  0  0  0  0  0  0  0
   11.0113   14.3539   21.6496 C   0  0  0  0  0  0  0  0  0  0  0  0
   11.5837   15.6095   21.6413 C   0  0  0  0  0  0  0  0  0  0  0  0
    7.4643   10.6894   25.1379 C   0  0  0  0  0  0  0  0  0  0  0  0
   11.0708   13.6786   22.8515 C   0  0  0  0  0  0  0  0  0  0  0  0
   10.5143   17.5191   20.4180 C   0  0  0  0  0  0  0  0  0  0  0  0
    5.3173   10.8757   26.3955 C   0  0  0  0  0  0  0  0  0  0  0  0
   11.5710   16.4182   20.3875 C   0  0  0  0  0  0  0  0  0  0  0  0
    8.1052    9.9143   24.2346 N   0  0  0  0  0  0  0  0  0  0  0  0
   12.1714   16.1726   22.7173 N   0  0  0  0  0  0  0  0  0  0  0  0
   11.6424   14.1805   23.9659 N   0  0  0  0  0  0  0  0  0  0  0  0
   10.4980   12.3886   22.9046 N   0  0  0  0  0  0  0  0  0  0  0  0
    6.4235   10.1166   25.9108 N   0  0  0  0  0  0  0  0  0  0  0  0
   10.4355   13.8302   20.5611 F   0  0  0  0  0  0  0  0  0  0  0  0
    9.0350   13.6451   24.7699 H   0  0  0  0  0  0  0  0  0  0  0  0
    7.2233   12.6134   26.0996 H   0  0  0  0  0  0  0  0  0  0  0  0
    9.5863    9.8614   22.8081 H   0  0  0  0  0  0  0  0  0  0  0  0
   12.6296   15.8419   24.7099 H   0  0  0  0  0  0  0  0  0  0  0  0
    9.5164   17.1014   20.5891 H   0  0  0  0  0  0  0  0  0  0  0  0
   10.4956   18.0641   19.4690 H   0  0  0  0  0  0  0  0  0  0  0  0
   10.7192   18.2383   21.2182 H   0  0  0  0  0  0  0  0  0  0  0  0
    5.4208   11.9223   26.0731 H   0  0  0  0  0  0  0  0  0  0  0  0
    4.3823   10.4590   25.9929 H   0  0  0  0  0  0  0  0  0  0  0  0
    5.2955   10.8311   27.4944 H   0  0  0  0  0  0  0  0  0  0  0  0
   12.5596   16.8724   20.2141 H   0  0  0  0  0  0  0  0  0  0  0  0
   11.3909   15.7700   19.5150 H   0  0  0  0  0  0  0  0  0  0  0  0
   10.9224   11.7326   22.2518 H   0  0  0  0  0  0  0  0  0  0  0  0
    6.4980    9.1396   26.1076 H   0  0  0  0  0  0  0  0  0  0  0  0
  1  2  2  0  0  0  0
  1  5  1  0  0  0  0
  2  8  1  0  0  0  0
  3  5  2  0  0  0  0
  3 13  1  0  0  0  0
  4 14  2  0  0  0  0
  4 15  1  0  0  0  0
  5 16  1  0  0  0  0
  6  7  2  0  0  0  0
  6  9  1  0  0  0  0
  6 18  1  0  0  0  0
  7 12  1  0  0  0  0
  7 14  1  0  0  0  0
  8 13  2  0  0  0  0
  8 17  1  0  0  0  0
  9 15  2  0  0  0  0
  9 16  1  0  0  0  0
 10 12  1  0  0  0  0
 11 17  1  0  0  0  0
  1 19  1  0  0  0  0
  2 20  1  0  0  0  0
  3 21  1  0  0  0  0
  4 22  1  0  0  0  0
 10 23  1  0  0  0  0
 10 24  1  0  0  0  0
 10 25  1  0  0  0  0
 11 26  1  0  0  0  0
 11 27  1  0  0  0  0
 11 28  1  0  0  0  0
 12 29  1  0  0  0  0
 12 30  1  0  0  0  0
 16 31  1  0  0  0  0
 17 32  1  0  0  0  0
M  END
> <idnumber>
Z1558683385

> <heavy_atoms>
18

> <LogS>
-2.638

> <LogP>
2.767

> <rotating_bonds>
4

> <PSA>
62.73

> <hb_acceptors>
5

> <hb_donors>
2

> <Collection>
Legacy

> <link>
https://www.enaminestore.com/catalog/Z1558683385

> <ROCS_ShapeQuery>
_x1140_x0812_0A_x1140_0A_x1097_0A_x0365_0A_x1097_0A_x0310_0A

> <ROCS_TanimotoCombo>
0.629 

> <ROCS_ShapeTanimoto>
0.232 

> <ROCS_ColorTanimoto>
0.397 

> <ROCS_RefTversky>
0.212 

> <ROCS_RefColorTversky>
0.569 

> <ROCS_RefTverskyCombo>
0.781 

> <ROCS_FitTversky>
1.661 

> <ROCS_FitColorTversky>
0.568 

> <ROCS_FitTverskyCombo>
2.229 

> <ROCS_ColorScore>
-4.551

> <ROCS_Overlap>
2176.013

> <ROCS_Rank>
378                 

$$$$
untitled-dbase-637735_22
  -OEChem-02092421083D

 43 46  0     0  0  0  0  0  0999 V2000
   10.3395   16.4212   21.7795 C   0  0  0  0  0  0  0  0  0  0  0  0
   10.6392   15.0804   21.5654 C   0  0  0  0  0  0  0  0  0  0  0  0
    6.6850   10.4649   26.5323 C   0  0  0  0  0  0  0  0  0  0  0  0
    6.1886   11.4683   27.3681 C   0  0  0  0  0  0  0  0  0  0  0  0
    8.8685   12.3760   24.2778 C   0  0  0  0  0  0  0  0  0  0  0  0
    7.4725   13.0994   26.1565 C   0  0  0  0  0  0  0  0  0  0  0  0
   11.2881   17.2039   22.4177 C   0  0  0  0  0  0  0  0  0  0  0  0
   12.7417   15.4361   22.6186 C   0  0  0  0  0  0  0  0  0  0  0  0
    7.9716   12.0899   25.3159 C   0  0  0  0  0  0  0  0  0  0  0  0
    9.3432   11.3568   23.4649 C   0  0  0  0  0  0  0  0  0  0  0  0
   11.8610   14.5705   21.9900 C   0  0  0  0  0  0  0  0  0  0  0  0
    7.5758   10.7486   25.5007 C   0  0  0  0  0  0  0  0  0  0  0  0
    6.5826   12.7873   27.1802 C   0  0  0  0  0  0  0  0  0  0  0  0
    8.8991   10.0758   23.7226 C   0  0  0  0  0  0  0  0  0  0  0  0
   10.2734   11.6588   22.3880 C   0  0  0  0  0  0  0  0  0  0  0  0
   12.4581   10.6251   24.4693 C   0  0  0  0  0  0  0  0  0  0  0  0
   13.5907   11.5132   24.0414 C   0  0  0  0  0  0  0  0  0  0  0  0
   12.1771   12.0165   23.9782 C   0  0  0  0  0  0  0  0  0  0  0  0
    9.3686    8.9302   22.8863 C   0  0  0  0  0  0  0  0  0  0  0  0
   12.2145   13.1275   21.7729 C   0  0  0  0  0  0  0  0  0  0  0  0
   12.4858   16.7442   22.8443 N   0  0  0  0  0  0  0  0  0  0  0  0
    8.0349    9.7574   24.7135 N   0  0  0  0  0  0  0  0  0  0  0  0
   11.5120   12.2466   22.7034 N   0  0  0  0  0  0  0  0  0  0  0  0
    9.9177   11.3630   21.2397 O   0  0  0  0  0  0  0  0  0  0  0  0
    5.9746   14.0263   28.2066 Cl  0  0  0  0  0  0  0  0  0  0  0  0
    9.3933   16.8404   21.4569 H   0  0  0  0  0  0  0  0  0  0  0  0
    9.9154   14.4411   21.0673 H   0  0  0  0  0  0  0  0  0  0  0  0
    6.3613    9.4393   26.7004 H   0  0  0  0  0  0  0  0  0  0  0  0
    5.4949   11.2009   28.1612 H   0  0  0  0  0  0  0  0  0  0  0  0
    9.1957   13.4000   24.1058 H   0  0  0  0  0  0  0  0  0  0  0  0
    7.7835   14.1319   26.0065 H   0  0  0  0  0  0  0  0  0  0  0  0
   11.1022   18.2557   22.6086 H   0  0  0  0  0  0  0  0  0  0  0  0
   13.7101   15.0952   22.9716 H   0  0  0  0  0  0  0  0  0  0  0  0
   12.2060    9.7890   23.8285 H   0  0  0  0  0  0  0  0  0  0  0  0
   12.3406   10.4305   25.5285 H   0  0  0  0  0  0  0  0  0  0  0  0
   14.2351   11.9162   24.8129 H   0  0  0  0  0  0  0  0  0  0  0  0
   14.0957   11.2729   23.1138 H   0  0  0  0  0  0  0  0  0  0  0  0
   11.8864   12.7461   24.7264 H   0  0  0  0  0  0  0  0  0  0  0  0
   10.2779    8.4946   23.3159 H   0  0  0  0  0  0  0  0  0  0  0  0
    8.6027    8.1478   22.8209 H   0  0  0  0  0  0  0  0  0  0  0  0
    9.5854    9.2520   21.8603 H   0  0  0  0  0  0  0  0  0  0  0  0
   11.9577   12.8161   20.7545 H   0  0  0  0  0  0  0  0  0  0  0  0
   13.2892   12.9624   21.9023 H   0  0  0  0  0  0  0  0  0  0  0  0
  1  2  2  0  0  0  0
  1  7  1  0  0  0  0
  2 11  1  0  0  0  0
  3  4  2  0  0  0  0
  3 12  1  0  0  0  0
  4 13  1  0  0  0  0
  5  9  2  0  0  0  0
  5 10  1  0  0  0  0
  6  9  1  0  0  0  0
  6 13  2  0  0  0  0
  7 21  2  0  0  0  0
  8 11  2  0  0  0  0
  8 21  1  0  0  0  0
  9 12  1  0  0  0  0
 10 14  2  0  0  0  0
 10 15  1  0  0  0  0
 11 20  1  0  0  0  0
 12 22  2  0  0  0  0
 13 25  1  0  0  0  0
 14 19  1  0  0  0  0
 14 22  1  0  0  0  0
 15 23  1  0  0  0  0
 15 24  2  0  0  0  0
 16 17  1  0  0  0  0
 16 18  1  0  0  0  0
 17 18  1  0  0  0  0
 18 23  1  0  0  0  0
 20 23  1  0  0  0  0
  1 26  1  0  0  0  0
  2 27  1  0  0  0  0
  3 28  1  0  0  0  0
  4 29  1  0  0  0  0
  5 30  1  0  0  0  0
  6 31  1  0  0  0  0
  7 32  1  0  0  0  0
  8 33  1  0  0  0  0
 16 34  1  0  0  0  0
 16 35  1  0  0  0  0
 17 36  1  0  0  0  0
 17 37  1  0  0  0  0
 18 38  1  0  0  0  0
 19 39  1  0  0  0  0
 19 40  1  0  0  0  0
 19 41  1  0  0  0  0
 20 42  1  0  0  0  0
 20 43  1  0  0  0  0
M  END
> <idnumber>
Z216620400

> <heavy_atoms>
25

> <LogS>
-4.33

> <LogP>
3.405

> <rotating_bonds>
4

> <PSA>
46.09

> <hb_acceptors>
3

> <hb_donors>
0

> <Collection>
HTS

> <link>
https://www.enaminestore.com/catalog/Z216620400

> <ROCS_ShapeQuery>
_x1140_x0812_0A_x1140_0A_x1097_0A_x0365_0A_x1097_0A_x0310_0A

> <ROCS_TanimotoCombo>
0.629 

> <ROCS_ShapeTanimoto>
0.286 

> <ROCS_ColorTanimoto>
0.342 

> <ROCS_RefTversky>
0.258 

> <ROCS_RefColorTversky>
0.452 

> <ROCS_RefTverskyCombo>
0.710 

> <ROCS_FitTversky>
1.633 

> <ROCS_FitColorTversky>
0.585 

> <ROCS_FitTverskyCombo>
2.218 

> <ROCS_ColorScore>
-3.573

> <ROCS_Overlap>
2649.368

> <ROCS_Rank>
379                 

$$$$
untitled-dbase-629716_185
  -OEChem-02092421083D

 33 35  0     0  0  0  0  0  0999 V2000
    6.2640   12.6273   26.3987 C   0  0  0  0  0  0  0  0  0  0  0  0
    7.2002   13.6275   26.1091 C   0  0  0  0  0  0  0  0  0  0  0  0
    6.4349   11.3147   25.9354 C   0  0  0  0  0  0  0  0  0  0  0  0
    8.3425   13.3595   25.3470 C   0  0  0  0  0  0  0  0  0  0  0  0
   11.6557   13.0097   22.1917 C   0  0  0  0  0  0  0  0  0  0  0  0
    9.7324   13.8802   21.0169 C   0  0  0  0  0  0  0  0  0  0  0  0
   12.1457   14.3060   22.3502 C   0  0  0  0  0  0  0  0  0  0  0  0
   10.2223   15.1766   21.1755 C   0  0  0  0  0  0  0  0  0  0  0  0
    7.5745   11.0294   25.1699 C   0  0  0  0  0  0  0  0  0  0  0  0
    8.4771   12.0490   24.9058 C   0  0  0  0  0  0  0  0  0  0  0  0
   10.4491   12.7968   21.5249 C   0  0  0  0  0  0  0  0  0  0  0  0
   11.4290   15.3894   21.8422 C   0  0  0  0  0  0  0  0  0  0  0  0
    9.1352   10.2180   24.0062 C   0  0  0  0  0  0  0  0  0  0  0  0
   11.2258    9.9481   22.6712 C   0  0  0  0  0  0  0  0  0  0  0  0
   10.9308   10.4807   21.2809 C   0  0  0  0  0  0  0  0  0  0  0  0
    8.0100    9.8639   24.5872 N   0  0  0  0  0  0  0  0  0  0  0  0
    9.9901    9.4600   23.2820 N   0  0  0  0  0  0  0  0  0  0  0  0
    9.4886   11.5257   24.1524 O   0  0  0  0  0  0  0  0  0  0  0  0
    9.9679   11.5232   21.3691 O   0  0  0  0  0  0  0  0  0  0  0  0
   11.8994   16.6343   21.9945 F   0  0  0  0  0  0  0  0  0  0  0  0
    5.3878   12.8723   26.9939 H   0  0  0  0  0  0  0  0  0  0  0  0
    7.0355   14.6352   26.4839 H   0  0  0  0  0  0  0  0  0  0  0  0
    5.7035   10.5474   26.1663 H   0  0  0  0  0  0  0  0  0  0  0  0
    9.0722   14.1261   25.1175 H   0  0  0  0  0  0  0  0  0  0  0  0
   12.2187   12.1698   22.5897 H   0  0  0  0  0  0  0  0  0  0  0  0
    8.7919   13.7209   20.4966 H   0  0  0  0  0  0  0  0  0  0  0  0
   13.0850   14.4721   22.8692 H   0  0  0  0  0  0  0  0  0  0  0  0
    9.6646   16.0203   20.7801 H   0  0  0  0  0  0  0  0  0  0  0  0
   11.9411    9.1203   22.6355 H   0  0  0  0  0  0  0  0  0  0  0  0
   11.6292   10.7430   23.3059 H   0  0  0  0  0  0  0  0  0  0  0  0
   10.5117    9.6857   20.6563 H   0  0  0  0  0  0  0  0  0  0  0  0
   11.8327   10.8740   20.8007 H   0  0  0  0  0  0  0  0  0  0  0  0
    9.7858    8.4622   23.1288 H   0  0  0  0  0  0  0  0  0  0  0  0
  1  2  1  0  0  0  0
  1  3  2  0  0  0  0
  2  4  2  0  0  0  0
  3  9  1  0  0  0  0
  4 10  1  0  0  0  0
  5  7  2  0  0  0  0
  5 11  1  0  0  0  0
  6  8  1  0  0  0  0
  6 11  2  0  0  0  0
  7 12  1  0  0  0  0
  8 12  2  0  0  0  0
  9 10  2  0  0  0  0
  9 16  1  0  0  0  0
 10 18  1  0  0  0  0
 11 19  1  0  0  0  0
 12 20  1  0  0  0  0
 13 16  2  0  0  0  0
 13 17  1  0  0  0  0
 13 18  1  0  0  0  0
 14 15  1  0  0  0  0
 14 17  1  0  0  0  0
 15 19  1  0  0  0  0
  1 21  1  0  0  0  0
  2 22  1  0  0  0  0
  3 23  1  0  0  0  0
  4 24  1  0  0  0  0
  5 25  1  0  0  0  0
  6 26  1  0  0  0  0
  7 27  1  0  0  0  0
  8 28  1  0  0  0  0
 14 29  1  0  0  0  0
 14 30  1  0  0  0  0
 15 31  1  0  0  0  0
 15 32  1  0  0  0  0
 17 33  1  0  0  0  0
M  END
> <idnumber>
Z354372950

> <heavy_atoms>
20

> <LogS>
-4.311

> <LogP>
3.962

> <rotating_bonds>
5

> <PSA>
47.29

> <hb_acceptors>
3

> <hb_donors>
1

> <Collection>
HTS

> <link>
https://www.enaminestore.com/catalog/Z354372950

> <ROCS_ShapeQuery>
_x1140_x0812_0A_x1140_0A_x1097_0A_x0365_0A_x1097_0A_x0310_0A

> <ROCS_TanimotoCombo>
0.629 

> <ROCS_ShapeTanimoto>
0.271 

> <ROCS_ColorTanimoto>
0.357 

> <ROCS_RefTversky>
0.243 

> <ROCS_RefColorTversky>
0.467 

> <ROCS_RefTverskyCombo>
0.710 

> <ROCS_FitTversky>
1.764 

> <ROCS_FitColorTversky>
0.603 

> <ROCS_FitTverskyCombo>
2.367 

> <ROCS_ColorScore>
-3.693

> <ROCS_Overlap>
2492.912

> <ROCS_Rank>
380                 

$$$$
untitled-dbase-528702_23
  -OEChem-02092421083D

 44 46  0     0  0  0  0  0  0999 V2000
    6.3303   12.3956   27.2047 C   0  0  0  0  0  0  0  0  0  0  0  0
    6.2046   11.0302   27.4285 C   0  0  0  0  0  0  0  0  0  0  0  0
   13.1652   13.1662   19.5477 C   0  0  0  0  0  0  0  0  0  0  0  0
   13.7953   14.3672   19.8736 C   0  0  0  0  0  0  0  0  0  0  0  0
    7.0861   12.8485   26.1271 C   0  0  0  0  0  0  0  0  0  0  0  0
    6.8346   10.1212   26.5748 C   0  0  0  0  0  0  0  0  0  0  0  0
   12.2418   12.6018   20.4279 C   0  0  0  0  0  0  0  0  0  0  0  0
   13.5022   15.0037   21.0797 C   0  0  0  0  0  0  0  0  0  0  0  0
    7.7195   11.9340   25.2686 C   0  0  0  0  0  0  0  0  0  0  0  0
    9.0992   11.4343   23.3472 C   0  0  0  0  0  0  0  0  0  0  0  0
    8.4863   12.3625   24.1766 C   0  0  0  0  0  0  0  0  0  0  0  0
    7.5962   10.5463   25.4897 C   0  0  0  0  0  0  0  0  0  0  0  0
   11.9488   13.2383   21.6339 C   0  0  0  0  0  0  0  0  0  0  0  0
   12.5789   14.4393   21.9598 C   0  0  0  0  0  0  0  0  0  0  0  0
    8.9211   10.0982   23.6434 C   0  0  0  0  0  0  0  0  0  0  0  0
    9.9015   11.8512   22.2036 C   0  0  0  0  0  0  0  0  0  0  0  0
    8.6630   13.8221   23.8804 C   0  0  0  0  0  0  0  0  0  0  0  0
   11.0674    9.1850   22.7234 C   0  0  0  0  0  0  0  0  0  0  0  0
   13.1138   14.7353   24.2581 C   0  0  0  0  0  0  0  0  0  0  0  0
    9.5504    9.0414   22.7948 C   0  0  0  0  0  0  0  0  0  0  0  0
    8.1899    9.6432   24.6866 N   0  0  0  0  0  0  0  0  0  0  0  0
   11.0086   12.6519   22.5183 N   0  0  0  0  0  0  0  0  0  0  0  0
    9.5916   11.5403   21.0471 O   0  0  0  0  0  0  0  0  0  0  0  0
   12.3071   15.0774   23.1333 O   0  0  0  0  0  0  0  0  0  0  0  0
    5.8416   13.1039   27.8667 H   0  0  0  0  0  0  0  0  0  0  0  0
    5.6171   10.6674   28.2668 H   0  0  0  0  0  0  0  0  0  0  0  0
   13.3932   12.6711   18.6083 H   0  0  0  0  0  0  0  0  0  0  0  0
   14.5137   14.8070   19.1880 H   0  0  0  0  0  0  0  0  0  0  0  0
    7.1663   13.9222   25.9765 H   0  0  0  0  0  0  0  0  0  0  0  0
    6.7218    9.0565   26.7712 H   0  0  0  0  0  0  0  0  0  0  0  0
   11.7572   11.6655   20.1627 H   0  0  0  0  0  0  0  0  0  0  0  0
   13.9968   15.9392   21.3271 H   0  0  0  0  0  0  0  0  0  0  0  0
    9.5447   14.2051   24.4025 H   0  0  0  0  0  0  0  0  0  0  0  0
    8.7863   13.9899   22.8057 H   0  0  0  0  0  0  0  0  0  0  0  0
    7.7855   14.3938   24.1995 H   0  0  0  0  0  0  0  0  0  0  0  0
   11.3519   10.1711   22.3410 H   0  0  0  0  0  0  0  0  0  0  0  0
   11.4957    8.4274   22.0598 H   0  0  0  0  0  0  0  0  0  0  0  0
   11.5211    9.0647   23.7130 H   0  0  0  0  0  0  0  0  0  0  0  0
   12.7929   15.3148   25.1273 H   0  0  0  0  0  0  0  0  0  0  0  0
   14.1623   14.9461   24.0332 H   0  0  0  0  0  0  0  0  0  0  0  0
   12.9956   13.6700   24.4695 H   0  0  0  0  0  0  0  0  0  0  0  0
    9.2993    8.0419   23.1820 H   0  0  0  0  0  0  0  0  0  0  0  0
    9.1354    9.0737   21.7756 H   0  0  0  0  0  0  0  0  0  0  0  0
   11.1561   12.8354   23.5076 H   0  0  0  0  0  0  0  0  0  0  0  0
  1  2  1  0  0  0  0
  1  5  2  0  0  0  0
  2  6  2  0  0  0  0
  3  4  1  0  0  0  0
  3  7  2  0  0  0  0
  4  8  2  0  0  0  0
  5  9  1  0  0  0  0
  6 12  1  0  0  0  0
  7 13  1  0  0  0  0
  8 14  1  0  0  0  0
  9 11  2  0  0  0  0
  9 12  1  0  0  0  0
 10 11  1  0  0  0  0
 10 15  2  0  0  0  0
 10 16  1  0  0  0  0
 11 17  1  0  0  0  0
 12 21  2  0  0  0  0
 13 14  2  0  0  0  0
 13 22  1  0  0  0  0
 14 24  1  0  0  0  0
 15 20  1  0  0  0  0
 15 21  1  0  0  0  0
 16 22  1  0  0  0  0
 16 23  2  0  0  0  0
 18 20  1  0  0  0  0
 19 24  1  0  0  0  0
  1 25  1  0  0  0  0
  2 26  1  0  0  0  0
  3 27  1  0  0  0  0
  4 28  1  0  0  0  0
  5 29  1  0  0  0  0
  6 30  1  0  0  0  0
  7 31  1  0  0  0  0
  8 32  1  0  0  0  0
 17 33  1  0  0  0  0
 17 34  1  0  0  0  0
 17 35  1  0  0  0  0
 18 36  1  0  0  0  0
 18 37  1  0  0  0  0
 18 38  1  0  0  0  0
 19 39  1  0  0  0  0
 19 40  1  0  0  0  0
 19 41  1  0  0  0  0
 20 42  1  0  0  0  0
 20 43  1  0  0  0  0
 22 44  1  0  0  0  0
M  END
> <idnumber>
Z90707303

> <heavy_atoms>
24

> <LogS>
-5.24

> <LogP>
3.512

> <rotating_bonds>
4

> <PSA>
51.22

> <hb_acceptors>
3

> <hb_donors>
1

> <Collection>
HTS

> <link>
https://www.enaminestore.com/catalog/Z90707303

> <ROCS_ShapeQuery>
_x1140_x0812_0A_x1140_0A_x1097_0A_x0365_0A_x1097_0A_x0310_0A

> <ROCS_TanimotoCombo>
0.629 

> <ROCS_ShapeTanimoto>
0.291 

> <ROCS_ColorTanimoto>
0.338 

> <ROCS_RefTversky>
0.260 

> <ROCS_RefColorTversky>
0.505 

> <ROCS_RefTverskyCombo>
0.765 

> <ROCS_FitTversky>
1.690 

> <ROCS_FitColorTversky>
0.505 

> <ROCS_FitTverskyCombo>
2.195 

> <ROCS_ColorScore>
-4.042

> <ROCS_Overlap>
2671.720

> <ROCS_Rank>
381                 

$$$$
untitled-dbase-651620_90
  -OEChem-02092421083D

 39 40  0     0  0  0  0  0  0999 V2000
   14.0005   11.2224   22.4812 C   0  0  0  0  0  0  0  0  0  0  0  0
   14.5306   10.2286   23.3040 C   0  0  0  0  0  0  0  0  0  0  0  0
   13.5843    8.5333   21.8660 C   0  0  0  0  0  0  0  0  0  0  0  0
   13.0542    9.5272   21.0432 C   0  0  0  0  0  0  0  0  0  0  0  0
   13.2623   10.8717   21.3508 C   0  0  0  0  0  0  0  0  0  0  0  0
   14.3225    8.8841   22.9964 C   0  0  0  0  0  0  0  0  0  0  0  0
    9.4215   11.6735   23.7362 C   0  0  0  0  0  0  0  0  0  0  0  0
    9.1826   10.3447   23.8391 C   0  0  0  0  0  0  0  0  0  0  0  0
    8.5147   12.6297   24.4428 C   0  0  0  0  0  0  0  0  0  0  0  0
    7.3168   10.6490   25.2044 C   0  0  0  0  0  0  0  0  0  0  0  0
   10.6149   12.0417   21.6562 C   0  0  0  0  0  0  0  0  0  0  0  0
   12.2647    9.1337   19.8385 C   0  0  0  0  0  0  0  0  0  0  0  0
    6.5369   12.8918   25.8873 C   0  0  0  0  0  0  0  0  0  0  0  0
   11.8424   12.7686   21.1477 C   0  0  0  0  0  0  0  0  0  0  0  0
    8.1285    9.8450   24.5750 N   0  0  0  0  0  0  0  0  0  0  0  0
    7.4782   12.0402   25.1613 N   0  0  0  0  0  0  0  0  0  0  0  0
   10.0117    9.4505   23.1924 N   0  0  0  0  0  0  0  0  0  0  0  0
    6.2759   10.1117   25.9275 N   0  0  0  0  0  0  0  0  0  0  0  0
   10.4499   12.2208   23.0211 N   0  0  0  0  0  0  0  0  0  0  0  0
    8.7200   13.8400   24.3571 O   0  0  0  0  0  0  0  0  0  0  0  0
    9.8822   11.3854   20.9201 O   0  0  0  0  0  0  0  0  0  0  0  0
   12.7466   11.8636   20.5505 O   0  0  0  0  0  0  0  0  0  0  0  0
   14.9761    7.6576   24.0111 Cl  0  0  0  0  0  0  0  0  0  0  0  0
   14.1662   12.2680   22.7257 H   0  0  0  0  0  0  0  0  0  0  0  0
   15.1027   10.5163   24.1822 H   0  0  0  0  0  0  0  0  0  0  0  0
   13.4191    7.4863   21.6219 H   0  0  0  0  0  0  0  0  0  0  0  0
   11.2028    9.0398   20.0939 H   0  0  0  0  0  0  0  0  0  0  0  0
   12.3670    9.8762   19.0373 H   0  0  0  0  0  0  0  0  0  0  0  0
   12.6124    8.1758   19.4319 H   0  0  0  0  0  0  0  0  0  0  0  0
    5.6934   13.1501   25.2303 H   0  0  0  0  0  0  0  0  0  0  0  0
    6.1621   12.3540   26.7707 H   0  0  0  0  0  0  0  0  0  0  0  0
    7.0472   13.8122   26.2076 H   0  0  0  0  0  0  0  0  0  0  0  0
   12.3421   13.2850   21.9731 H   0  0  0  0  0  0  0  0  0  0  0  0
   11.5404   13.5042   20.3961 H   0  0  0  0  0  0  0  0  0  0  0  0
   10.7651    9.8175   22.6668 H   0  0  0  0  0  0  0  0  0  0  0  0
    9.8125    8.4861   23.2857 H   0  0  0  0  0  0  0  0  0  0  0  0
    6.1811    9.1255   25.9431 H   0  0  0  0  0  0  0  0  0  0  0  0
    5.6677   10.7349   26.4003 H   0  0  0  0  0  0  0  0  0  0  0  0
   11.1159   12.7850   23.5395 H   0  0  0  0  0  0  0  0  0  0  0  0
  1  2  2  0  0  0  0
  1  5  1  0  0  0  0
  2  6  1  0  0  0  0
  3  4  1  0  0  0  0
  3  6  2  0  0  0  0
  4  5  2  0  0  0  0
  4 12  1  0  0  0  0
  5 22  1  0  0  0  0
  6 23  1  0  0  0  0
  7  8  2  0  0  0  0
  7  9  1  0  0  0  0
  7 19  1  0  0  0  0
  8 15  1  0  0  0  0
  8 17  1  0  0  0  0
  9 16  1  0  0  0  0
  9 20  2  0  0  0  0
 10 15  2  0  0  0  0
 10 16  1  0  0  0  0
 10 18  1  0  0  0  0
 11 14  1  0  0  0  0
 11 19  1  0  0  0  0
 11 21  2  0  0  0  0
 13 16  1  0  0  0  0
 14 22  1  0  0  0  0
  1 24  1  0  0  0  0
  2 25  1  0  0  0  0
  3 26  1  0  0  0  0
 12 27  1  0  0  0  0
 12 28  1  0  0  0  0
 12 29  1  0  0  0  0
 13 30  1  0  0  0  0
 13 31  1  0  0  0  0
 13 32  1  0  0  0  0
 14 33  1  0  0  0  0
 14 34  1  0  0  0  0
 17 35  1  0  0  0  0
 17 36  1  0  0  0  0
 18 37  1  0  0  0  0
 18 38  1  0  0  0  0
 19 39  1  0  0  0  0
M  END
> <idnumber>
Z225841440

> <heavy_atoms>
23

> <LogS>
-3.8

> <LogP>
1.21

> <rotating_bonds>
4

> <PSA>
123.04

> <hb_acceptors>
6

> <hb_donors>
3

> <Collection>
HTS

> <link>
https://www.enaminestore.com/catalog/Z225841440

> <ROCS_ShapeQuery>
_x1140_x0812_0A_x1140_0A_x1097_0A_x0365_0A_x1097_0A_x0310_0A

> <ROCS_TanimotoCombo>
0.629 

> <ROCS_ShapeTanimoto>
0.245 

> <ROCS_ColorTanimoto>
0.384 

> <ROCS_RefTversky>
0.226 

> <ROCS_RefColorTversky>
0.647 

> <ROCS_RefTverskyCombo>
0.873 

> <ROCS_FitTversky>
1.527 

> <ROCS_FitColorTversky>
0.485 

> <ROCS_FitTverskyCombo>
2.012 

> <ROCS_ColorScore>
-5.273

> <ROCS_Overlap>
2321.262

> <ROCS_Rank>
382                 

$$$$
untitled-dbase-1006165_52
  -OEChem-02092421083D

 38 39  0     0  0  0  0  0  0999 V2000
    8.5290   12.3936   23.8789 C   0  0  0  0  0  0  0  0  0  0  0  0
    9.2247   10.1193   23.8824 C   0  0  0  0  0  0  0  0  0  0  0  0
    7.4865   12.0443   24.7301 C   0  0  0  0  0  0  0  0  0  0  0  0
    9.4190   11.4187   23.4424 C   0  0  0  0  0  0  0  0  0  0  0  0
    7.3785   10.7169   25.1123 C   0  0  0  0  0  0  0  0  0  0  0  0
   12.4143   13.7192   23.3638 C   0  0  0  0  0  0  0  0  0  0  0  0
   10.6261   14.4878   21.8595 C   0  0  0  0  0  0  0  0  0  0  0  0
   12.4313   15.1145   23.9720 C   0  0  0  0  0  0  0  0  0  0  0  0
   10.7187   15.8510   22.5308 C   0  0  0  0  0  0  0  0  0  0  0  0
    5.2732    8.9902   27.6648 C   0  0  0  0  0  0  0  0  0  0  0  0
    6.1171    9.0192   26.4361 C   0  0  0  0  0  0  0  0  0  0  0  0
    6.5360   13.0929   25.1991 C   0  0  0  0  0  0  0  0  0  0  0  0
    8.2238    9.7419   24.7091 N   0  0  0  0  0  0  0  0  0  0  0  0
   11.0454   13.4421   22.8380 N   0  0  0  0  0  0  0  0  0  0  0  0
    6.3190   10.3562   25.9818 N   0  0  0  0  0  0  0  0  0  0  0  0
   11.8888   11.0084   22.7317 O   0  0  0  0  0  0  0  0  0  0  0  0
   10.2438   11.8197   21.0045 O   0  0  0  0  0  0  0  0  0  0  0  0
   12.0496   16.0861   22.9956 O   0  0  0  0  0  0  0  0  0  0  0  0
    6.8127   14.3397   24.7141 F   0  0  0  0  0  0  0  0  0  0  0  0
    5.2386   12.8534   24.8449 F   0  0  0  0  0  0  0  0  0  0  0  0
    6.5259   13.2232   26.5579 F   0  0  0  0  0  0  0  0  0  0  0  0
   10.7529   11.8245   22.3594 S   0  0  0  0  0  0  0  0  0  0  0  0
    8.6480   13.4251   23.5571 H   0  0  0  0  0  0  0  0  0  0  0  0
    9.8856    9.3148   23.5755 H   0  0  0  0  0  0  0  0  0  0  0  0
   13.1325   13.6529   22.5384 H   0  0  0  0  0  0  0  0  0  0  0  0
   12.6753   12.9809   24.1285 H   0  0  0  0  0  0  0  0  0  0  0  0
    9.5959   14.3048   21.5382 H   0  0  0  0  0  0  0  0  0  0  0  0
   11.2888   14.4452   20.9874 H   0  0  0  0  0  0  0  0  0  0  0  0
   11.7597   15.1854   24.8360 H   0  0  0  0  0  0  0  0  0  0  0  0
   13.4415   15.3619   24.3129 H   0  0  0  0  0  0  0  0  0  0  0  0
   10.4713   16.6391   21.8128 H   0  0  0  0  0  0  0  0  0  0  0  0
   10.0207   15.9337   23.3725 H   0  0  0  0  0  0  0  0  0  0  0  0
    4.2944    9.4431   27.4488 H   0  0  0  0  0  0  0  0  0  0  0  0
    5.1318    7.9483   27.9878 H   0  0  0  0  0  0  0  0  0  0  0  0
    5.7711    9.5577   28.4649 H   0  0  0  0  0  0  0  0  0  0  0  0
    7.0935    8.5649   26.6603 H   0  0  0  0  0  0  0  0  0  0  0  0
    5.6175    8.4424   25.6438 H   0  0  0  0  0  0  0  0  0  0  0  0
    5.7056   11.0913   26.2687 H   0  0  0  0  0  0  0  0  0  0  0  0
  1  3  1  0  0  0  0
  1  4  2  0  0  0  0
  2  4  1  0  0  0  0
  2 13  2  0  0  0  0
  3  5  2  0  0  0  0
  3 12  1  0  0  0  0
  4 22  1  0  0  0  0
  5 13  1  0  0  0  0
  5 15  1  0  0  0  0
  6  8  1  0  0  0  0
  6 14  1  0  0  0  0
  7  9  1  0  0  0  0
  7 14  1  0  0  0  0
  8 18  1  0  0  0  0
  9 18  1  0  0  0  0
 10 11  1  0  0  0  0
 11 15  1  0  0  0  0
 12 19  1  0  0  0  0
 12 20  1  0  0  0  0
 12 21  1  0  0  0  0
 14 22  1  0  0  0  0
 16 22  2  0  0  0  0
 17 22  2  0  0  0  0
  1 23  1  0  0  0  0
  2 24  1  0  0  0  0
  6 25  1  0  0  0  0
  6 26  1  0  0  0  0
  7 27  1  0  0  0  0
  7 28  1  0  0  0  0
  8 29  1  0  0  0  0
  8 30  1  0  0  0  0
  9 31  1  0  0  0  0
  9 32  1  0  0  0  0
 10 33  1  0  0  0  0
 10 34  1  0  0  0  0
 10 35  1  0  0  0  0
 11 36  1  0  0  0  0
 11 37  1  0  0  0  0
 15 38  1  0  0  0  0
M  END
> <idnumber>
Z3074709743

> <heavy_atoms>
22

> <LogS>
-2.416

> <LogP>
1.983

> <rotating_bonds>
4

> <PSA>
71.53

> <hb_acceptors>
5

> <hb_donors>
1

> <Collection>
HTS

> <link>
https://www.enaminestore.com/catalog/Z3074709743

> <ROCS_ShapeQuery>
_x1140_x0812_0A_x1140_0A_x1097_0A_x0365_0A_x1097_0A_x0310_0A

> <ROCS_TanimotoCombo>
0.629 

> <ROCS_ShapeTanimoto>
0.271 

> <ROCS_ColorTanimoto>
0.358 

> <ROCS_RefTversky>
0.243 

> <ROCS_RefColorTversky>
0.497 

> <ROCS_RefTverskyCombo>
0.740 

> <ROCS_FitTversky>
1.720 

> <ROCS_FitColorTversky>
0.560 

> <ROCS_FitTverskyCombo>
2.280 

> <ROCS_ColorScore>
-3.951

> <ROCS_Overlap>
2500.349

> <ROCS_Rank>
383                 

$$$$
untitled-dbase-335862_36
  -OEChem-02092421083D

 30 31  0     0  0  0  0  0  0999 V2000
   11.9235   15.3146   22.3026 C   0  0  0  0  0  0  0  0  0  0  0  0
    8.4872   12.4178   24.5094 C   0  0  0  0  0  0  0  0  0  0  0  0
    8.8806   10.2358   23.6488 C   0  0  0  0  0  0  0  0  0  0  0  0
    9.0894   11.6025   23.5576 C   0  0  0  0  0  0  0  0  0  0  0  0
    7.7056   11.8495   25.5092 C   0  0  0  0  0  0  0  0  0  0  0  0
    7.5586   10.4718   25.5129 C   0  0  0  0  0  0  0  0  0  0  0  0
    9.9286   12.1780   22.4752 C   0  0  0  0  0  0  0  0  0  0  0  0
   12.2227   13.2840   20.8369 C   0  0  0  0  0  0  0  0  0  0  0  0
   11.0211   14.0207   20.3352 C   0  0  0  0  0  0  0  0  0  0  0  0
   11.3743   14.0810   21.8082 C   0  0  0  0  0  0  0  0  0  0  0  0
    4.4193    9.6830   26.6375 C   0  0  0  0  0  0  0  0  0  0  0  0
    5.6807    9.1073   26.0299 C   0  0  0  0  0  0  0  0  0  0  0  0
   12.3665   16.3099   22.7015 N   0  0  0  0  0  0  0  0  0  0  0  0
    8.1281    9.6473   24.6053 N   0  0  0  0  0  0  0  0  0  0  0  0
   10.5572   13.3934   22.7531 N   0  0  0  0  0  0  0  0  0  0  0  0
   10.0142   11.5853   21.4029 O   0  0  0  0  0  0  0  0  0  0  0  0
    6.7983    9.8645   26.4782 O   0  0  0  0  0  0  0  0  0  0  0  0
    6.9576   12.8528   26.6885 Cl  0  0  0  0  0  0  0  0  0  0  0  0
    8.6299   13.4953   24.4681 H   0  0  0  0  0  0  0  0  0  0  0  0
    9.3223    9.5489   22.9333 H   0  0  0  0  0  0  0  0  0  0  0  0
   12.1688   12.2018   20.8740 H   0  0  0  0  0  0  0  0  0  0  0  0
   13.1987   13.6640   20.5572 H   0  0  0  0  0  0  0  0  0  0  0  0
   11.1891   14.8959   19.7180 H   0  0  0  0  0  0  0  0  0  0  0  0
   10.1603   13.4334   20.0364 H   0  0  0  0  0  0  0  0  0  0  0  0
    4.4563    9.6375   27.7295 H   0  0  0  0  0  0  0  0  0  0  0  0
    4.2844   10.7256   26.3315 H   0  0  0  0  0  0  0  0  0  0  0  0
    3.5382    9.1329   26.2907 H   0  0  0  0  0  0  0  0  0  0  0  0
    5.6373    9.1558   24.9378 H   0  0  0  0  0  0  0  0  0  0  0  0
    5.8144    8.0658   26.3374 H   0  0  0  0  0  0  0  0  0  0  0  0
   10.3780   13.8464   23.6535 H   0  0  0  0  0  0  0  0  0  0  0  0
  1 10  1  0  0  0  0
  1 13  3  0  0  0  0
  2  4  2  0  0  0  0
  2  5  1  0  0  0  0
  3  4  1  0  0  0  0
  3 14  2  0  0  0  0
  4  7  1  0  0  0  0
  5  6  2  0  0  0  0
  5 18  1  0  0  0  0
  6 14  1  0  0  0  0
  6 17  1  0  0  0  0
  7 15  1  0  0  0  0
  7 16  2  0  0  0  0
  8  9  1  0  0  0  0
  8 10  1  0  0  0  0
  9 10  1  0  0  0  0
 10 15  1  0  0  0  0
 11 12  1  0  0  0  0
 12 17  1  0  0  0  0
  2 19  1  0  0  0  0
  3 20  1  0  0  0  0
  8 21  1  0  0  0  0
  8 22  1  0  0  0  0
  9 23  1  0  0  0  0
  9 24  1  0  0  0  0
 11 25  1  0  0  0  0
 11 26  1  0  0  0  0
 11 27  1  0  0  0  0
 12 28  1  0  0  0  0
 12 29  1  0  0  0  0
 15 30  1  0  0  0  0
M  END
> <idnumber>
Z1240221633

> <heavy_atoms>
18

> <LogS>
-3.07

> <LogP>
1.596

> <rotating_bonds>
4

> <PSA>
75.01

> <hb_acceptors>
4

> <hb_donors>
1

> <Collection>
Functional

> <link>
https://www.enaminestore.com/catalog/Z1240221633

> <ROCS_ShapeQuery>
_x1140_x0812_0A_x1140_0A_x1097_0A_x0365_0A_x1097_0A_x0310_0A

> <ROCS_TanimotoCombo>
0.629 

> <ROCS_ShapeTanimoto>
0.236 

> <ROCS_ColorTanimoto>
0.393 

> <ROCS_RefTversky>
0.215 

> <ROCS_RefColorTversky>
0.500 

> <ROCS_RefTverskyCombo>
0.715 

> <ROCS_FitTversky>
1.712 

> <ROCS_FitColorTversky>
0.647 

> <ROCS_FitTverskyCombo>
2.359 

> <ROCS_ColorScore>
-3.952

> <ROCS_Overlap>
2201.588

> <ROCS_Rank>
384                 

$$$$
untitled-dbase-1027578_188
  -OEChem-02092421083D

 31 32  0     0  0  0  0  0  0999 V2000
   11.5781   15.8716   22.1563 C   0  0  0  0  0  0  0  0  0  0  0  0
   13.0218   14.1774   22.7230 C   0  0  0  0  0  0  0  0  0  0  0  0
   11.8655   14.4817   22.0379 C   0  0  0  0  0  0  0  0  0  0  0  0
    8.8309   11.7661   23.7683 C   0  0  0  0  0  0  0  0  0  0  0  0
    8.8763   10.3764   23.5627 C   0  0  0  0  0  0  0  0  0  0  0  0
    8.1822   11.8968   24.9676 C   0  0  0  0  0  0  0  0  0  0  0  0
    7.7868   13.0454   25.7932 C   0  0  0  0  0  0  0  0  0  0  0  0
   10.8202    9.0141   22.7553 C   0  0  0  0  0  0  0  0  0  0  0  0
   11.0297   13.4934   21.2770 C   0  0  0  0  0  0  0  0  0  0  0  0
    9.3657   12.8561   22.8851 C   0  0  0  0  0  0  0  0  0  0  0  0
    9.4618    9.6454   22.4262 C   0  0  0  0  0  0  0  0  0  0  0  0
   12.4247   16.6101   22.8698 N   0  0  0  0  0  0  0  0  0  0  0  0
    8.2999    9.6971   24.5583 N   0  0  0  0  0  0  0  0  0  0  0  0
   10.5359   12.4236   22.1334 N   0  0  0  0  0  0  0  0  0  0  0  0
    7.8602   10.6690   25.4491 O   0  0  0  0  0  0  0  0  0  0  0  0
   13.6287   15.6128   23.4336 S   0  0  0  0  0  0  0  0  0  0  0  0
   10.7312   16.3819   21.7173 H   0  0  0  0  0  0  0  0  0  0  0  0
   13.5188   13.2242   22.8367 H   0  0  0  0  0  0  0  0  0  0  0  0
    6.7762   13.4053   25.5282 H   0  0  0  0  0  0  0  0  0  0  0  0
    7.7776   12.8047   26.8728 H   0  0  0  0  0  0  0  0  0  0  0  0
    8.4798   13.9008   25.6841 H   0  0  0  0  0  0  0  0  0  0  0  0
   11.5240    9.7740   23.1114 H   0  0  0  0  0  0  0  0  0  0  0  0
   11.2590    8.5308   21.8767 H   0  0  0  0  0  0  0  0  0  0  0  0
   10.7155    8.2585   23.5413 H   0  0  0  0  0  0  0  0  0  0  0  0
   10.1645   13.9884   20.8227 H   0  0  0  0  0  0  0  0  0  0  0  0
   11.6049   13.0345   20.4659 H   0  0  0  0  0  0  0  0  0  0  0  0
    8.6042   13.1796   22.1671 H   0  0  0  0  0  0  0  0  0  0  0  0
    9.6516   13.7341   23.4737 H   0  0  0  0  0  0  0  0  0  0  0  0
    8.7842    8.8431   22.0712 H   0  0  0  0  0  0  0  0  0  0  0  0
    9.5915   10.3066   21.5458 H   0  0  0  0  0  0  0  0  0  0  0  0
   11.2707   12.1490   22.7848 H   0  0  0  0  0  0  0  0  0  0  0  0
  1  3  1  0  0  0  0
  1 12  2  0  0  0  0
  2  3  2  0  0  0  0
  2 16  1  0  0  0  0
  3  9  1  0  0  0  0
  4  5  1  0  0  0  0
  4  6  2  0  0  0  0
  4 10  1  0  0  0  0
  5 11  1  0  0  0  0
  5 13  2  0  0  0  0
  6  7  1  0  0  0  0
  6 15  1  0  0  0  0
  8 11  1  0  0  0  0
  9 14  1  0  0  0  0
 10 14  1  0  0  0  0
 12 16  1  0  0  0  0
 13 15  1  0  0  0  0
  1 17  1  0  0  0  0
  2 18  1  0  0  0  0
  7 19  1  0  0  0  0
  7 20  1  0  0  0  0
  7 21  1  0  0  0  0
  8 22  1  0  0  0  0
  8 23  1  0  0  0  0
  8 24  1  0  0  0  0
  9 25  1  0  0  0  0
  9 26  1  0  0  0  0
 10 27  1  0  0  0  0
 10 28  1  0  0  0  0
 11 29  1  0  0  0  0
 11 30  1  0  0  0  0
 14 31  1  0  0  0  0
M  END
> <idnumber>
Z3363177539

> <heavy_atoms>
16

> <LogS>
-0.594

> <LogP>
0.803

> <rotating_bonds>
5

> <PSA>
50.95

> <hb_acceptors>
3

> <hb_donors>
1

> <Collection>
Advanced

> <link>
https://www.enaminestore.com/catalog/Z3363177539

> <ROCS_ShapeQuery>
_x1140_x0812_0A_x1140_0A_x1097_0A_x0365_0A_x1097_0A_x0310_0A

> <ROCS_TanimotoCombo>
0.628 

> <ROCS_ShapeTanimoto>
0.227 

> <ROCS_ColorTanimoto>
0.401 

> <ROCS_RefTversky>
0.206 

> <ROCS_RefColorTversky>
0.540 

> <ROCS_RefTverskyCombo>
0.747 

> <ROCS_FitTversky>
1.781 

> <ROCS_FitColorTversky>
0.609 

> <ROCS_FitTverskyCombo>
2.390 

> <ROCS_ColorScore>
-4.296

> <ROCS_Overlap>
2117.518

> <ROCS_Rank>
385                 

$$$$
untitled-dbase-704134_154
  -OEChem-02092421083D

 41 42  0     0  0  0  0  0  0999 V2000
    7.3645   11.9084   25.2388 C   0  0  0  0  0  0  0  0  0  0  0  0
    7.3525   10.5260   25.3315 C   0  0  0  0  0  0  0  0  0  0  0  0
    9.1920   11.6950   23.6898 C   0  0  0  0  0  0  0  0  0  0  0  0
    8.3049   12.4962   24.4001 C   0  0  0  0  0  0  0  0  0  0  0  0
    9.0982   10.3222   23.8521 C   0  0  0  0  0  0  0  0  0  0  0  0
   10.2096   12.2891   22.7865 C   0  0  0  0  0  0  0  0  0  0  0  0
   12.3980   15.0816   23.3352 C   0  0  0  0  0  0  0  0  0  0  0  0
   14.9340   14.4901   25.8641 C   0  0  0  0  0  0  0  0  0  0  0  0
   13.8503   16.7467   26.1524 C   0  0  0  0  0  0  0  0  0  0  0  0
   13.6307   13.9685   25.2612 C   0  0  0  0  0  0  0  0  0  0  0  0
   12.5693   16.1788   25.5460 C   0  0  0  0  0  0  0  0  0  0  0  0
   14.6740   15.6475   26.8403 C   0  0  0  0  0  0  0  0  0  0  0  0
    8.3397   13.9847   24.2825 C   0  0  0  0  0  0  0  0  0  0  0  0
   15.9873   16.2093   27.3793 C   0  0  0  0  0  0  0  0  0  0  0  0
   12.0653   13.7475   22.7160 C   0  0  0  0  0  0  0  0  0  0  0  0
    8.1981    9.7148   24.6574 N   0  0  0  0  0  0  0  0  0  0  0  0
   12.8669   15.0615   24.6482 N   0  0  0  0  0  0  0  0  0  0  0  0
   10.2642   12.0504   21.5900 O   0  0  0  0  0  0  0  0  0  0  0  0
   12.2473   16.1093   22.6695 O   0  0  0  0  0  0  0  0  0  0  0  0
    9.9532    9.4945   23.1712 O   0  0  0  0  0  0  0  0  0  0  0  0
   11.0505   13.1190   23.4715 O   0  0  0  0  0  0  0  0  0  0  0  0
    6.6582   12.5047   25.8063 H   0  0  0  0  0  0  0  0  0  0  0  0
    6.6385   10.0186   25.9721 H   0  0  0  0  0  0  0  0  0  0  0  0
   15.4440   13.6718   26.3862 H   0  0  0  0  0  0  0  0  0  0  0  0
   15.6012   14.8187   25.0568 H   0  0  0  0  0  0  0  0  0  0  0  0
   14.4441   17.2261   25.3635 H   0  0  0  0  0  0  0  0  0  0  0  0
   13.5930   17.5281   26.8774 H   0  0  0  0  0  0  0  0  0  0  0  0
   13.8553   13.1743   24.5472 H   0  0  0  0  0  0  0  0  0  0  0  0
   12.9978   13.5307   26.0425 H   0  0  0  0  0  0  0  0  0  0  0  0
   11.9072   15.7991   26.3331 H   0  0  0  0  0  0  0  0  0  0  0  0
   12.0286   16.9707   25.0184 H   0  0  0  0  0  0  0  0  0  0  0  0
   14.0957   15.2613   27.6904 H   0  0  0  0  0  0  0  0  0  0  0  0
    9.0160   14.4093   25.0334 H   0  0  0  0  0  0  0  0  0  0  0  0
    8.6819   14.2959   23.2878 H   0  0  0  0  0  0  0  0  0  0  0  0
    7.3417   14.4170   24.4265 H   0  0  0  0  0  0  0  0  0  0  0  0
   16.5861   16.6017   26.5587 H   0  0  0  0  0  0  0  0  0  0  0  0
   16.5465   15.4228   27.8838 H   0  0  0  0  0  0  0  0  0  0  0  0
   15.7835   17.0116   28.0869 H   0  0  0  0  0  0  0  0  0  0  0  0
   12.9517   13.1199   22.7013 H   0  0  0  0  0  0  0  0  0  0  0  0
   11.7106   13.9064   21.7019 H   0  0  0  0  0  0  0  0  0  0  0  0
   10.5537   10.0220   22.6266 H   0  0  0  0  0  0  0  0  0  0  0  0
  1  2  1  0  0  0  0
  1  4  2  0  0  0  0
  2 16  2  0  0  0  0
  3  4  1  0  0  0  0
  3  5  2  0  0  0  0
  3  6  1  0  0  0  0
  4 13  1  0  0  0  0
  5 16  1  0  0  0  0
  5 20  1  0  0  0  0
  6 18  2  0  0  0  0
  6 21  1  0  0  0  0
  7 15  1  0  0  0  0
  7 17  1  0  0  0  0
  7 19  2  0  0  0  0
  8 10  1  0  0  0  0
  8 12  1  0  0  0  0
  9 11  1  0  0  0  0
  9 12  1  0  0  0  0
 10 17  1  0  0  0  0
 11 17  1  0  0  0  0
 12 14  1  0  0  0  0
 15 21  1  0  0  0  0
  1 22  1  0  0  0  0
  2 23  1  0  0  0  0
  8 24  1  0  0  0  0
  8 25  1  0  0  0  0
  9 26  1  0  0  0  0
  9 27  1  0  0  0  0
 10 28  1  0  0  0  0
 10 29  1  0  0  0  0
 11 30  1  0  0  0  0
 11 31  1  0  0  0  0
 12 32  1  0  0  0  0
 13 33  1  0  0  0  0
 13 34  1  0  0  0  0
 13 35  1  0  0  0  0
 14 36  1  0  0  0  0
 14 37  1  0  0  0  0
 14 38  1  0  0  0  0
 15 39  1  0  0  0  0
 15 40  1  0  0  0  0
 20 41  1  0  0  0  0
M  END
> <idnumber>
Z1620918426

> <heavy_atoms>
21

> <LogS>
-2.78

> <LogP>
2.593

> <rotating_bonds>
4

> <PSA>
79.73

> <hb_acceptors>
4

> <hb_donors>
1

> <Collection>
HTS

> <link>
https://www.enaminestore.com/catalog/Z1620918426

> <ROCS_ShapeQuery>
_x1140_x0812_0A_x1140_0A_x1097_0A_x0365_0A_x1097_0A_x0310_0A

> <ROCS_TanimotoCombo>
0.628 

> <ROCS_ShapeTanimoto>
0.239 

> <ROCS_ColorTanimoto>
0.389 

> <ROCS_RefTversky>
0.220 

> <ROCS_RefColorTversky>
0.529 

> <ROCS_RefTverskyCombo>
0.749 

> <ROCS_FitTversky>
1.588 

> <ROCS_FitColorTversky>
0.596 

> <ROCS_FitTverskyCombo>
2.184 

> <ROCS_ColorScore>
-4.207

> <ROCS_Overlap>
2254.119

> <ROCS_Rank>
386                 

$$$$
untitled-dbase-465840_9
  -OEChem-02092421083D

 22 22  0     0  0  0  0  0  0999 V2000
    9.4926   14.8668   21.9220 C   0  0  0  0  0  0  0  0  0  0  0  0
   11.6980   15.6633   22.6252 C   0  0  0  0  0  0  0  0  0  0  0  0
    7.8699   11.9854   25.4067 C   0  0  0  0  0  0  0  0  0  0  0  0
    8.7684   12.5290   24.4954 C   0  0  0  0  0  0  0  0  0  0  0  0
    7.6231   10.6236   25.3406 C   0  0  0  0  0  0  0  0  0  0  0  0
    9.0697   10.3565   23.5759 C   0  0  0  0  0  0  0  0  0  0  0  0
    9.3840   11.7058   23.5591 C   0  0  0  0  0  0  0  0  0  0  0  0
   10.7883   14.5748   22.4541 C   0  0  0  0  0  0  0  0  0  0  0  0
   11.1261   13.3028   22.7795 C   0  0  0  0  0  0  0  0  0  0  0  0
   12.4793   12.9277   23.3455 C   0  0  0  0  0  0  0  0  0  0  0  0
    8.4423   15.1064   21.4902 N   0  0  0  0  0  0  0  0  0  0  0  0
   12.4285   16.5553   22.7598 N   0  0  0  0  0  0  0  0  0  0  0  0
    8.2019    9.7921   24.4455 N   0  0  0  0  0  0  0  0  0  0  0  0
   10.2888   12.2221   22.6336 N   0  0  0  0  0  0  0  0  0  0  0  0
    7.3782   12.6079   26.1455 H   0  0  0  0  0  0  0  0  0  0  0  0
    8.9817   13.5942   24.5234 H   0  0  0  0  0  0  0  0  0  0  0  0
    6.9306   10.1507   26.0291 H   0  0  0  0  0  0  0  0  0  0  0  0
    9.5180    9.6640   22.8697 H   0  0  0  0  0  0  0  0  0  0  0  0
   12.4558   12.9841   24.4399 H   0  0  0  0  0  0  0  0  0  0  0  0
   13.2432   13.6249   22.9831 H   0  0  0  0  0  0  0  0  0  0  0  0
   12.8103   11.9203   23.0810 H   0  0  0  0  0  0  0  0  0  0  0  0
   10.3563   11.7659   21.7403 H   0  0  0  0  0  0  0  0  0  0  0  0
  1  8  1  0  0  0  0
  1 11  3  0  0  0  0
  2  8  1  0  0  0  0
  2 12  3  0  0  0  0
  3  4  2  0  0  0  0
  3  5  1  0  0  0  0
  4  7  1  0  0  0  0
  5 13  2  0  0  0  0
  6  7  2  0  0  0  0
  6 13  1  0  0  0  0
  7 14  1  0  0  0  0
  8  9  2  0  0  0  0
  9 10  1  0  0  0  0
  9 14  1  0  0  0  0
  3 15  1  0  0  0  0
  4 16  1  0  0  0  0
  5 17  1  0  0  0  0
  6 18  1  0  0  0  0
 10 19  1  0  0  0  0
 10 20  1  0  0  0  0
 10 21  1  0  0  0  0
 14 22  1  0  0  0  0
M  END
> <idnumber>
Z57981044

> <heavy_atoms>
14

> <LogS>
-0.89

> <LogP>
1.426

> <rotating_bonds>
2

> <PSA>
72.5

> <hb_acceptors>
4

> <hb_donors>
1

> <Collection>
Legacy

> <link>
https://www.enaminestore.com/catalog/Z57981044

> <ROCS_ShapeQuery>
_x1140_x0812_0A_x1140_0A_x1097_0A_x0365_0A_x1097_0A_x0310_0A

> <ROCS_TanimotoCombo>
0.628 

> <ROCS_ShapeTanimoto>
0.205 

> <ROCS_ColorTanimoto>
0.424 

> <ROCS_RefTversky>
0.189 

> <ROCS_RefColorTversky>
0.493 

> <ROCS_RefTverskyCombo>
0.681 

> <ROCS_FitTversky>
1.731 

> <ROCS_FitColorTversky>
0.751 

> <ROCS_FitTverskyCombo>
2.482 

> <ROCS_ColorScore>
-3.868

> <ROCS_Overlap>
1932.522

> <ROCS_Rank>
387                 

$$$$
untitled-dbase-981014_10
  -OEChem-02092421083D

 43 45  0     1  0  0  0  0  0999 V2000
    8.6576   12.5154   24.4682 C   0  0  0  0  0  0  0  0  0  0  0  0
    9.3985   11.6138   23.7122 C   0  0  0  0  0  0  0  0  0  0  0  0
    7.6589   12.0480   25.3152 C   0  0  0  0  0  0  0  0  0  0  0  0
    7.4420   10.6806   25.3696 C   0  0  0  0  0  0  0  0  0  0  0  0
    9.1039   10.2658   23.8385 C   0  0  0  0  0  0  0  0  0  0  0  0
   10.4557   12.0997   22.8150 C   0  0  0  0  0  0  0  0  0  0  0  0
   13.5336   12.8329   24.8538 C   0  0  0  0  0  0  0  0  0  0  0  0
   13.9208   14.1982   24.3099 C   0  0  0  0  0  0  0  0  0  0  0  0
   12.0321   12.6050   24.7357 C   0  0  0  0  0  0  0  0  0  0  0  0
   13.5299   15.7622   22.3687 C   0  0  0  0  0  0  0  0  0  0  0  0
   11.3254   15.2736   22.9692 C   0  0  0  0  0  0  0  0  0  0  0  0
   13.4969   14.3187   22.8453 C   0  0  2  0  0  0  0  0  0  0  0  0
   12.0344   13.9697   22.6257 C   0  0  1  0  0  0  0  0  0  0  0  0
    6.8619   13.0085   26.1284 C   0  0  0  0  0  0  0  0  0  0  0  0
    5.7531    8.8555   25.6903 C   0  0  0  0  0  0  0  0  0  0  0  0
    6.3832   10.1217   26.2625 C   0  0  0  0  0  0  0  0  0  0  0  0
    8.1413    9.7742   24.6505 N   0  0  0  0  0  0  0  0  0  0  0  0
   11.5244   12.8200   23.3721 N   0  0  0  0  0  0  0  0  0  0  0  0
   10.3137   11.8401   21.6206 O   0  0  0  0  0  0  0  0  0  0  0  0
   12.2508   16.3349   22.6817 O   0  0  0  0  0  0  0  0  0  0  0  0
    9.8113    9.3435   23.1119 O   0  0  0  0  0  0  0  0  0  0  0  0
    8.8570   13.5824   24.3987 H   0  0  0  0  0  0  0  0  0  0  0  0
   14.0711   12.0465   24.3097 H   0  0  0  0  0  0  0  0  0  0  0  0
   13.8338   12.7565   25.9049 H   0  0  0  0  0  0  0  0  0  0  0  0
   13.4541   14.9803   24.9218 H   0  0  0  0  0  0  0  0  0  0  0  0
   15.0046   14.3399   24.3951 H   0  0  0  0  0  0  0  0  0  0  0  0
   11.7981   11.5938   25.0810 H   0  0  0  0  0  0  0  0  0  0  0  0
   11.4910   13.3001   25.3888 H   0  0  0  0  0  0  0  0  0  0  0  0
   14.3220   16.3595   22.8299 H   0  0  0  0  0  0  0  0  0  0  0  0
   13.6511   15.8103   21.2807 H   0  0  0  0  0  0  0  0  0  0  0  0
   10.4137   15.4190   22.3817 H   0  0  0  0  0  0  0  0  0  0  0  0
   11.0677   15.3472   24.0308 H   0  0  0  0  0  0  0  0  0  0  0  0
   14.1561   13.6889   22.2363 H   0  0  0  0  0  0  0  0  0  0  0  0
   11.8858   13.7814   21.5534 H   0  0  0  0  0  0  0  0  0  0  0  0
    5.9724   13.3346   25.5745 H   0  0  0  0  0  0  0  0  0  0  0  0
    6.5346   12.5566   27.0745 H   0  0  0  0  0  0  0  0  0  0  0  0
    7.4522   13.8972   26.3903 H   0  0  0  0  0  0  0  0  0  0  0  0
    5.3275    9.0413   24.6984 H   0  0  0  0  0  0  0  0  0  0  0  0
    4.9506    8.4953   26.3416 H   0  0  0  0  0  0  0  0  0  0  0  0
    6.4955    8.0561   25.5929 H   0  0  0  0  0  0  0  0  0  0  0  0
    6.8002    9.9002   27.2572 H   0  0  0  0  0  0  0  0  0  0  0  0
    5.5950   10.8710   26.4357 H   0  0  0  0  0  0  0  0  0  0  0  0
   10.4716    9.7937   22.5671 H   0  0  0  0  0  0  0  0  0  0  0  0
  1  2  2  0  0  0  0
  1  3  1  0  0  0  0
  2  5  1  0  0  0  0
  2  6  1  0  0  0  0
  3  4  2  0  0  0  0
  3 14  1  0  0  0  0
  4 16  1  0  0  0  0
  4 17  1  0  0  0  0
  5 17  2  0  0  0  0
  5 21  1  0  0  0  0
  6 18  1  0  0  0  0
  6 19  2  0  0  0  0
  7  8  1  0  0  0  0
  7  9  1  0  0  0  0
  8 12  1  0  0  0  0
  9 18  1  0  0  0  0
 10 12  1  6  0  0  0
 10 20  1  0  0  0  0
 11 13  1  6  0  0  0
 11 20  1  0  0  0  0
 12 13  1  0  0  0  0
 13 18  1  0  0  0  0
 15 16  1  0  0  0  0
  1 22  1  0  0  0  0
  7 23  1  0  0  0  0
  7 24  1  0  0  0  0
  8 25  1  0  0  0  0
  8 26  1  0  0  0  0
  9 27  1  0  0  0  0
  9 28  1  0  0  0  0
 10 29  1  0  0  0  0
 10 30  1  0  0  0  0
 11 31  1  0  0  0  0
 11 32  1  0  0  0  0
 12 33  1  0  0  0  0
 13 34  1  0  0  0  0
 14 35  1  0  0  0  0
 14 36  1  0  0  0  0
 14 37  1  0  0  0  0
 15 38  1  0  0  0  0
 15 39  1  0  0  0  0
 15 40  1  0  0  0  0
 16 41  1  0  0  0  0
 16 42  1  0  0  0  0
 21 43  1  0  0  0  0
M  END
> <idnumber>
Z2960297654

> <heavy_atoms>
21

> <LogS>
-3.065

> <LogP>
2.292

> <rotating_bonds>
2

> <PSA>
62.66

> <hb_acceptors>
4

> <hb_donors>
1

> <Collection>
HTS

> <link>
https://www.enaminestore.com/catalog/Z2960297654

> <ROCS_ShapeQuery>
_x1140_x0812_0A_x1140_0A_x1097_0A_x0365_0A_x1097_0A_x0310_0A

> <ROCS_TanimotoCombo>
0.628 

> <ROCS_ShapeTanimoto>
0.272 

> <ROCS_ColorTanimoto>
0.356 

> <ROCS_RefTversky>
0.244 

> <ROCS_RefColorTversky>
0.556 

> <ROCS_RefTverskyCombo>
0.800 

> <ROCS_FitTversky>
1.746 

> <ROCS_FitColorTversky>
0.498 

> <ROCS_FitTverskyCombo>
2.243 

> <ROCS_ColorScore>
-4.474

> <ROCS_Overlap>
2506.029

> <ROCS_Rank>
388                 

$$$$
untitled-dbase-756328_3
  -OEChem-02092421083D

 30 31  0     0  0  0  0  0  0999 V2000
    7.3888   12.0822   25.0765 C   0  0  0  0  0  0  0  0  0  0  0  0
    7.4897   10.7428   25.4164 C   0  0  0  0  0  0  0  0  0  0  0  0
   13.3321   16.5232   23.4497 C   0  0  0  0  0  0  0  0  0  0  0  0
    9.1145   11.7017   23.4450 C   0  0  0  0  0  0  0  0  0  0  0  0
    8.2202   12.5629   24.0710 C   0  0  0  0  0  0  0  0  0  0  0  0
   14.3335   15.5843   23.4411 C   0  0  0  0  0  0  0  0  0  0  0  0
    9.1383   10.3794   23.8580 C   0  0  0  0  0  0  0  0  0  0  0  0
   12.5597   14.7854   22.5515 C   0  0  0  0  0  0  0  0  0  0  0  0
   10.0007   12.1725   22.3888 C   0  0  0  0  0  0  0  0  0  0  0  0
    8.1320   14.0032   23.6859 C   0  0  0  0  0  0  0  0  0  0  0  0
   15.7263   15.5534   23.8984 C   0  0  0  0  0  0  0  0  0  0  0  0
   11.7461   13.7156   21.8843 C   0  0  0  0  0  0  0  0  0  0  0  0
    8.3461    9.8758   24.8309 N   0  0  0  0  0  0  0  0  0  0  0  0
   12.1979   16.0056   22.8781 N   0  0  0  0  0  0  0  0  0  0  0  0
   10.0066   11.7298   21.2340 O   0  0  0  0  0  0  0  0  0  0  0  0
   13.8431   14.4537   22.8608 O   0  0  0  0  0  0  0  0  0  0  0  0
   10.0047    9.4956   23.2682 O   0  0  0  0  0  0  0  0  0  0  0  0
   10.8258   13.1676   22.8342 O   0  0  0  0  0  0  0  0  0  0  0  0
    6.6801   12.7275   25.5844 H   0  0  0  0  0  0  0  0  0  0  0  0
    6.8635   10.3186   26.1945 H   0  0  0  0  0  0  0  0  0  0  0  0
   13.3645   17.5328   23.8317 H   0  0  0  0  0  0  0  0  0  0  0  0
    8.8245   14.6010   24.2898 H   0  0  0  0  0  0  0  0  0  0  0  0
    8.3788   14.1462   22.6267 H   0  0  0  0  0  0  0  0  0  0  0  0
    7.1162   14.3910   23.8322 H   0  0  0  0  0  0  0  0  0  0  0  0
   15.8033   15.2061   24.9455 H   0  0  0  0  0  0  0  0  0  0  0  0
   16.3590   14.8836   23.2846 H   0  0  0  0  0  0  0  0  0  0  0  0
   16.2110   16.5476   23.8473 H   0  0  0  0  0  0  0  0  0  0  0  0
   11.1845   14.1221   21.0363 H   0  0  0  0  0  0  0  0  0  0  0  0
   12.3923   12.9155   21.5074 H   0  0  0  0  0  0  0  0  0  0  0  0
    9.8988    8.6202   23.6655 H   0  0  0  0  0  0  0  0  0  0  0  0
  1  2  1  0  0  0  0
  1  5  2  0  0  0  0
  2 13  2  0  0  0  0
  3  6  2  0  0  0  0
  3 14  1  0  0  0  0
  4  5  1  0  0  0  0
  4  7  2  0  0  0  0
  4  9  1  0  0  0  0
  5 10  1  0  0  0  0
  6 11  1  0  0  0  0
  6 16  1  0  0  0  0
  7 13  1  0  0  0  0
  7 17  1  0  0  0  0
  8 12  1  0  0  0  0
  8 14  2  0  0  0  0
  8 16  1  0  0  0  0
  9 15  2  0  0  0  0
  9 18  1  0  0  0  0
 12 18  1  0  0  0  0
  1 19  1  0  0  0  0
  2 20  1  0  0  0  0
  3 21  1  0  0  0  0
 10 22  1  0  0  0  0
 10 23  1  0  0  0  0
 10 24  1  0  0  0  0
 11 25  1  0  0  0  0
 11 26  1  0  0  0  0
 11 27  1  0  0  0  0
 12 28  1  0  0  0  0
 12 29  1  0  0  0  0
 17 30  1  0  0  0  0
M  END
> <idnumber>
Z1669791937

> <heavy_atoms>
18

> <LogS>
-1.4

> <LogP>
1.761

> <rotating_bonds>
4

> <PSA>
85.45

> <hb_acceptors>
4

> <hb_donors>
1

> <Collection>
HTS

> <link>
https://www.enaminestore.com/catalog/Z1669791937

> <ROCS_ShapeQuery>
_x1140_x0812_0A_x1140_0A_x1097_0A_x0365_0A_x1097_0A_x0310_0A

> <ROCS_TanimotoCombo>
0.628 

> <ROCS_ShapeTanimoto>
0.236 

> <ROCS_ColorTanimoto>
0.392 

> <ROCS_RefTversky>
0.216 

> <ROCS_RefColorTversky>
0.532 

> <ROCS_RefTverskyCombo>
0.747 

> <ROCS_FitTversky>
1.680 

> <ROCS_FitColorTversky>
0.599 

> <ROCS_FitTverskyCombo>
2.279 

> <ROCS_ColorScore>
-4.226

> <ROCS_Overlap>
2214.702

> <ROCS_Rank>
389                 

$$$$
untitled-dbase-623672_49
  -OEChem-02092421083D

 44 46  0     0  0  0  0  0  0999 V2000
    9.6457   15.8653   19.6544 C   0  0  0  0  0  0  0  0  0  0  0  0
   10.0144   17.1415   20.0798 C   0  0  0  0  0  0  0  0  0  0  0  0
   10.1997   14.7396   20.2641 C   0  0  0  0  0  0  0  0  0  0  0  0
    5.4941   10.7393   26.9608 C   0  0  0  0  0  0  0  0  0  0  0  0
    6.4313    9.9234   26.3222 C   0  0  0  0  0  0  0  0  0  0  0  0
   10.9373   17.2920   21.1149 C   0  0  0  0  0  0  0  0  0  0  0  0
    8.0828   12.3028   24.0609 C   0  0  0  0  0  0  0  0  0  0  0  0
    6.2671   12.6171   25.6751 C   0  0  0  0  0  0  0  0  0  0  0  0
    7.2096   11.7962   25.0329 C   0  0  0  0  0  0  0  0  0  0  0  0
    9.0023   11.4662   23.4448 C   0  0  0  0  0  0  0  0  0  0  0  0
    5.4116   12.0878   26.6371 C   0  0  0  0  0  0  0  0  0  0  0  0
   11.1225   14.8902   21.2991 C   0  0  0  0  0  0  0  0  0  0  0  0
    7.2989   10.4260   25.3564 C   0  0  0  0  0  0  0  0  0  0  0  0
   11.4913   16.1664   21.7246 C   0  0  0  0  0  0  0  0  0  0  0  0
    9.0150   10.1402   23.8272 C   0  0  0  0  0  0  0  0  0  0  0  0
    9.9062   11.9967   22.4358 C   0  0  0  0  0  0  0  0  0  0  0  0
    4.4132   12.9621   27.3158 C   0  0  0  0  0  0  0  0  0  0  0  0
    9.9781    9.1829   23.2040 C   0  0  0  0  0  0  0  0  0  0  0  0
   12.7115   17.6704   23.1047 C   0  0  0  0  0  0  0  0  0  0  0  0
   11.7088   13.6673   21.9434 C   0  0  0  0  0  0  0  0  0  0  0  0
    8.1902    9.6118   24.7602 N   0  0  0  0  0  0  0  0  0  0  0  0
   10.7706   13.0228   22.8340 N   0  0  0  0  0  0  0  0  0  0  0  0
    9.8805   11.5578   21.2725 O   0  0  0  0  0  0  0  0  0  0  0  0
   12.3919   16.3310   22.7337 O   0  0  0  0  0  0  0  0  0  0  0  0
    8.9275   15.7475   18.8480 H   0  0  0  0  0  0  0  0  0  0  0  0
    9.5835   18.0176   19.6043 H   0  0  0  0  0  0  0  0  0  0  0  0
    9.9070   13.7497   19.9243 H   0  0  0  0  0  0  0  0  0  0  0  0
    4.8353   10.3087   27.7103 H   0  0  0  0  0  0  0  0  0  0  0  0
    6.4769    8.8704   26.5941 H   0  0  0  0  0  0  0  0  0  0  0  0
   11.2207   18.2887   21.4419 H   0  0  0  0  0  0  0  0  0  0  0  0
    8.0419   13.3553   23.7859 H   0  0  0  0  0  0  0  0  0  0  0  0
    6.2009   13.6738   25.4225 H   0  0  0  0  0  0  0  0  0  0  0  0
    4.8451   13.4045   28.2222 H   0  0  0  0  0  0  0  0  0  0  0  0
    4.0812   13.7753   26.6568 H   0  0  0  0  0  0  0  0  0  0  0  0
    3.5151   12.3972   27.5991 H   0  0  0  0  0  0  0  0  0  0  0  0
   10.9119    9.1574   23.7770 H   0  0  0  0  0  0  0  0  0  0  0  0
    9.5613    8.1690   23.1685 H   0  0  0  0  0  0  0  0  0  0  0  0
   10.2089    9.4701   22.1709 H   0  0  0  0  0  0  0  0  0  0  0  0
   13.4398   17.6596   23.9193 H   0  0  0  0  0  0  0  0  0  0  0  0
   11.8027   18.1885   23.4211 H   0  0  0  0  0  0  0  0  0  0  0  0
   13.1408   18.1854   22.2421 H   0  0  0  0  0  0  0  0  0  0  0  0
   12.0091   12.9372   21.1840 H   0  0  0  0  0  0  0  0  0  0  0  0
   12.6025   13.9192   22.5239 H   0  0  0  0  0  0  0  0  0  0  0  0
   10.7065   13.3869   23.7790 H   0  0  0  0  0  0  0  0  0  0  0  0
  1  2  1  0  0  0  0
  1  3  2  0  0  0  0
  2  6  2  0  0  0  0
  3 12  1  0  0  0  0
  4  5  2  0  0  0  0
  4 11  1  0  0  0  0
  5 13  1  0  0  0  0
  6 14  1  0  0  0  0
  7  9  2  0  0  0  0
  7 10  1  0  0  0  0
  8  9  1  0  0  0  0
  8 11  2  0  0  0  0
  9 13  1  0  0  0  0
 10 15  2  0  0  0  0
 10 16  1  0  0  0  0
 11 17  1  0  0  0  0
 12 14  2  0  0  0  0
 12 20  1  0  0  0  0
 13 21  2  0  0  0  0
 14 24  1  0  0  0  0
 15 18  1  0  0  0  0
 15 21  1  0  0  0  0
 16 22  1  0  0  0  0
 16 23  2  0  0  0  0
 19 24  1  0  0  0  0
 20 22  1  0  0  0  0
  1 25  1  0  0  0  0
  2 26  1  0  0  0  0
  3 27  1  0  0  0  0
  4 28  1  0  0  0  0
  5 29  1  0  0  0  0
  6 30  1  0  0  0  0
  7 31  1  0  0  0  0
  8 32  1  0  0  0  0
 17 33  1  0  0  0  0
 17 34  1  0  0  0  0
 17 35  1  0  0  0  0
 18 36  1  0  0  0  0
 18 37  1  0  0  0  0
 18 38  1  0  0  0  0
 19 39  1  0  0  0  0
 19 40  1  0  0  0  0
 19 41  1  0  0  0  0
 20 42  1  0  0  0  0
 20 43  1  0  0  0  0
 22 44  1  0  0  0  0
M  END
> <idnumber>
Z197607080

> <heavy_atoms>
24

> <LogS>
-4.679

> <LogP>
4.037

> <rotating_bonds>
4

> <PSA>
51.22

> <hb_acceptors>
3

> <hb_donors>
1

> <Collection>
Legacy

> <link>
https://www.enaminestore.com/catalog/Z197607080

> <ROCS_ShapeQuery>
_x1140_x0812_0A_x1140_0A_x1097_0A_x0365_0A_x1097_0A_x0310_0A

> <ROCS_TanimotoCombo>
0.628 

> <ROCS_ShapeTanimoto>
0.279 

> <ROCS_ColorTanimoto>
0.349 

> <ROCS_RefTversky>
0.252 

> <ROCS_RefColorTversky>
0.488 

> <ROCS_RefTverskyCombo>
0.740 

> <ROCS_FitTversky>
1.640 

> <ROCS_FitColorTversky>
0.550 

> <ROCS_FitTverskyCombo>
2.190 

> <ROCS_ColorScore>
-3.883

> <ROCS_Overlap>
2587.102

> <ROCS_Rank>
390                 

$$$$
untitled-dbase-1053407_14
  -OEChem-02092421083D

 29 30  0     0  0  0  0  0  0999 V2000
    8.3672   12.6619   24.1199 C   0  0  0  0  0  0  0  0  0  0  0  0
    7.3786   12.0770   24.9035 C   0  0  0  0  0  0  0  0  0  0  0  0
    9.2653   10.4949   23.7274 C   0  0  0  0  0  0  0  0  0  0  0  0
   11.2696   15.7295   23.6788 C   0  0  0  0  0  0  0  0  0  0  0  0
    9.3322   11.8628   23.5171 C   0  0  0  0  0  0  0  0  0  0  0  0
   11.9755   13.9406   21.8050 C   0  0  0  0  0  0  0  0  0  0  0  0
   12.5666   15.1845   21.8934 C   0  0  0  0  0  0  0  0  0  0  0  0
    7.3991   10.6995   25.0516 C   0  0  0  0  0  0  0  0  0  0  0  0
   10.9982   13.6761   22.7425 C   0  0  0  0  0  0  0  0  0  0  0  0
   13.6399   15.6071   20.9437 C   0  0  0  0  0  0  0  0  0  0  0  0
    5.7876   10.8036   26.9537 C   0  0  0  0  0  0  0  0  0  0  0  0
    8.3202    9.8905   24.4818 N   0  0  0  0  0  0  0  0  0  0  0  0
   12.2368   16.1069   22.8211 N   0  0  0  0  0  0  0  0  0  0  0  0
   10.6189   14.5506   23.6973 N   0  0  0  0  0  0  0  0  0  0  0  0
   10.3436   12.4246   22.7210 N   0  0  0  0  0  0  0  0  0  0  0  0
    6.3857   10.1189   25.8545 N   0  0  0  0  0  0  0  0  0  0  0  0
   12.4846   12.6899   20.4774 Br  0  0  0  0  0  0  0  0  0  0  0  0
    8.3765   13.7402   23.9852 H   0  0  0  0  0  0  0  0  0  0  0  0
    6.6220   12.6931   25.3781 H   0  0  0  0  0  0  0  0  0  0  0  0
    9.9905    9.8196   23.2834 H   0  0  0  0  0  0  0  0  0  0  0  0
   10.9848   16.4511   24.4346 H   0  0  0  0  0  0  0  0  0  0  0  0
   13.1999   16.0980   20.0682 H   0  0  0  0  0  0  0  0  0  0  0  0
   14.3390   16.3041   21.4214 H   0  0  0  0  0  0  0  0  0  0  0  0
   14.2287   14.7464   20.6036 H   0  0  0  0  0  0  0  0  0  0  0  0
    6.2345   11.8041   27.0502 H   0  0  0  0  0  0  0  0  0  0  0  0
    4.7057   10.9006   26.7803 H   0  0  0  0  0  0  0  0  0  0  0  0
    5.9611   10.2340   27.8786 H   0  0  0  0  0  0  0  0  0  0  0  0
   10.6732   11.8107   21.9786 H   0  0  0  0  0  0  0  0  0  0  0  0
    6.1021    9.1908   25.6154 H   0  0  0  0  0  0  0  0  0  0  0  0
  1  2  2  0  0  0  0
  1  5  1  0  0  0  0
  2  8  1  0  0  0  0
  3  5  2  0  0  0  0
  3 12  1  0  0  0  0
  4 13  1  0  0  0  0
  4 14  2  0  0  0  0
  5 15  1  0  0  0  0
  6  7  1  0  0  0  0
  6  9  2  0  0  0  0
  6 17  1  0  0  0  0
  7 10  1  0  0  0  0
  7 13  2  0  0  0  0
  8 12  2  0  0  0  0
  8 16  1  0  0  0  0
  9 14  1  0  0  0  0
  9 15  1  0  0  0  0
 11 16  1  0  0  0  0
  1 18  1  0  0  0  0
  2 19  1  0  0  0  0
  3 20  1  0  0  0  0
  4 21  1  0  0  0  0
 10 22  1  0  0  0  0
 10 23  1  0  0  0  0
 10 24  1  0  0  0  0
 11 25  1  0  0  0  0
 11 26  1  0  0  0  0
 11 27  1  0  0  0  0
 15 28  1  0  0  0  0
 16 29  1  0  0  0  0
M  END
> <idnumber>
Z3714214241

> <heavy_atoms>
17

> <LogS>
-3.034

> <LogP>
2.958

> <rotating_bonds>
3

> <PSA>
62.73

> <hb_acceptors>
5

> <hb_donors>
2

> <Collection>
HTS

> <link>
https://www.enaminestore.com/catalog/Z3714214241

> <ROCS_ShapeQuery>
_x1140_x0812_0A_x1140_0A_x1097_0A_x0365_0A_x1097_0A_x0310_0A

> <ROCS_TanimotoCombo>
0.628 

> <ROCS_ShapeTanimoto>
0.229 

> <ROCS_ColorTanimoto>
0.399 

> <ROCS_RefTversky>
0.209 

> <ROCS_RefColorTversky>
0.571 

> <ROCS_RefTverskyCombo>
0.780 

> <ROCS_FitTversky>
1.709 

> <ROCS_FitColorTversky>
0.570 

> <ROCS_FitTverskyCombo>
2.279 

> <ROCS_ColorScore>
-4.565

> <ROCS_Overlap>
2147.219

> <ROCS_Rank>
391                 

$$$$
untitled-dbase-1136746_41
  -OEChem-02092421083D

 40 43  0     1  0  0  0  0  0999 V2000
    8.1987   12.4572   24.3282 C   0  0  0  0  0  0  0  0  0  0  0  0
    6.3526   12.2631   26.1722 C   0  0  0  0  0  0  0  0  0  0  0  0
   14.0096   16.4990   24.4035 C   0  0  0  0  0  0  0  0  0  0  0  0
   13.2501   17.0816   23.4128 C   0  0  0  0  0  0  0  0  0  0  0  0
    8.8323   10.2674   23.5970 C   0  0  0  0  0  0  0  0  0  0  0  0
   13.0963   14.4624   23.9061 C   0  0  0  0  0  0  0  0  0  0  0  0
    7.2979   11.8309   25.2048 C   0  0  0  0  0  0  0  0  0  0  0  0
    8.9803   11.6450   23.5086 C   0  0  0  0  0  0  0  0  0  0  0  0
    5.7656   11.1390   26.7120 C   0  0  0  0  0  0  0  0  0  0  0  0
   12.3362   15.0449   22.9159 C   0  0  0  0  0  0  0  0  0  0  0  0
    7.2523   10.4399   25.1900 C   0  0  0  0  0  0  0  0  0  0  0  0
    9.9316   12.2310   22.5796 C   0  0  0  0  0  0  0  0  0  0  0  0
    5.1059   11.1622   29.2490 C   0  0  0  0  0  0  0  0  0  0  0  0
    4.5634    9.8892   28.6785 C   0  0  0  0  0  0  0  0  0  0  0  0
    4.6871   11.1136   27.7924 C   0  0  0  0  0  0  0  0  0  0  0  0
   10.6520   15.0348   21.0303 C   0  0  0  0  0  0  0  0  0  0  0  0
   11.3915   14.2082   22.0804 C   0  0  2  0  0  0  0  0  0  0  0  0
   13.9463   15.1790   24.6679 N   0  0  0  0  0  0  0  0  0  0  0  0
   12.3997   16.3650   22.6513 N   0  0  0  0  0  0  0  0  0  0  0  0
    7.9829    9.6106   24.4209 N   0  0  0  0  0  0  0  0  0  0  0  0
    6.3190   10.0391   26.1094 N   0  0  0  0  0  0  0  0  0  0  0  0
   10.4550   13.4866   22.9117 N   0  0  0  0  0  0  0  0  0  0  0  0
   10.2390   11.6369   21.5302 O   0  0  0  0  0  0  0  0  0  0  0  0
    8.2808   13.5393   24.2931 H   0  0  0  0  0  0  0  0  0  0  0  0
    6.1259   13.2854   26.4440 H   0  0  0  0  0  0  0  0  0  0  0  0
   14.6925   17.0756   25.0151 H   0  0  0  0  0  0  0  0  0  0  0  0
   13.3015   18.1423   23.2008 H   0  0  0  0  0  0  0  0  0  0  0  0
    9.4296    9.6101   22.9690 H   0  0  0  0  0  0  0  0  0  0  0  0
   13.0507   13.4019   24.1243 H   0  0  0  0  0  0  0  0  0  0  0  0
    4.4790   11.7147   29.9383 H   0  0  0  0  0  0  0  0  0  0  0  0
    6.1635   11.1993   29.4808 H   0  0  0  0  0  0  0  0  0  0  0  0
    5.2557    9.0701   28.5248 H   0  0  0  0  0  0  0  0  0  0  0  0
    3.5699    9.5819   28.9820 H   0  0  0  0  0  0  0  0  0  0  0  0
    3.7598   11.6234   27.5376 H   0  0  0  0  0  0  0  0  0  0  0  0
   10.0573   15.8268   21.4987 H   0  0  0  0  0  0  0  0  0  0  0  0
   11.3628   15.5061   20.3422 H   0  0  0  0  0  0  0  0  0  0  0  0
    9.9776   14.4193   20.4244 H   0  0  0  0  0  0  0  0  0  0  0  0
   11.9655   13.4364   21.5530 H   0  0  0  0  0  0  0  0  0  0  0  0
    6.0767    9.0788   26.3106 H   0  0  0  0  0  0  0  0  0  0  0  0
   10.1234   13.9561   23.7480 H   0  0  0  0  0  0  0  0  0  0  0  0
  1  7  1  0  0  0  0
  1  8  2  0  0  0  0
  2  7  1  0  0  0  0
  2  9  2  0  0  0  0
  3  4  2  0  0  0  0
  3 18  1  0  0  0  0
  4 19  1  0  0  0  0
  5  8  1  0  0  0  0
  5 20  2  0  0  0  0
  6 10  1  0  0  0  0
  6 18  2  0  0  0  0
  7 11  2  0  0  0  0
  8 12  1  0  0  0  0
  9 15  1  0  0  0  0
  9 21  1  0  0  0  0
 10 17  1  0  0  0  0
 10 19  2  0  0  0  0
 11 20  1  0  0  0  0
 11 21  1  0  0  0  0
 12 22  1  0  0  0  0
 12 23  2  0  0  0  0
 13 14  1  0  0  0  0
 13 15  1  0  0  0  0
 14 15  1  0  0  0  0
 16 17  1  1  0  0  0
 17 22  1  0  0  0  0
  1 24  1  0  0  0  0
  2 25  1  0  0  0  0
  3 26  1  0  0  0  0
  4 27  1  0  0  0  0
  5 28  1  0  0  0  0
  6 29  1  0  0  0  0
 13 30  1  0  0  0  0
 13 31  1  0  0  0  0
 14 32  1  0  0  0  0
 14 33  1  0  0  0  0
 15 34  1  0  0  0  0
 16 35  1  0  0  0  0
 16 36  1  0  0  0  0
 16 37  1  0  0  0  0
 17 38  1  0  0  0  0
 21 39  1  0  0  0  0
 22 40  1  0  0  0  0
M  END
> <idnumber>
Z6264469412

> <heavy_atoms>
23

> <LogS>
-3.088

> <LogP>
1.404

> <rotating_bonds>
4

> <PSA>
83.56

> <hb_acceptors>
4

> <hb_donors>
2

> <Collection>
Advanced

> <link>
https://www.enaminestore.com/catalog/Z6264469412

> <ROCS_ShapeQuery>
_x1140_x0812_0A_x1140_0A_x1097_0A_x0365_0A_x1097_0A_x0310_0A

> <ROCS_TanimotoCombo>
0.628 

> <ROCS_ShapeTanimoto>
0.258 

> <ROCS_ColorTanimoto>
0.370 

> <ROCS_RefTversky>
0.236 

> <ROCS_RefColorTversky>
0.572 

> <ROCS_RefTverskyCombo>
0.807 

> <ROCS_FitTversky>
1.566 

> <ROCS_FitColorTversky>
0.513 

> <ROCS_FitTverskyCombo>
2.079 

> <ROCS_ColorScore>
-4.602

> <ROCS_Overlap>
2422.107

> <ROCS_Rank>
392                 

$$$$
untitled-dbase-718319_40
  -OEChem-02092421083D

 42 44  0     0  0  0  0  0  0999 V2000
    7.8109    9.9376   24.0005 C   0  0  0  0  0  0  0  0  0  0  0  0
    8.8679   10.5336   23.3067 C   0  0  0  0  0  0  0  0  0  0  0  0
    8.9254   12.3892   24.8722 C   0  0  0  0  0  0  0  0  0  0  0  0
    7.1301   12.1755   26.7526 C   0  0  0  0  0  0  0  0  0  0  0  0
    7.8601   11.8073   25.5879 C   0  0  0  0  0  0  0  0  0  0  0  0
   11.9263   14.4502   21.6425 C   0  0  0  0  0  0  0  0  0  0  0  0
    7.3285   10.5974   25.1364 C   0  0  0  0  0  0  0  0  0  0  0  0
    9.4181   11.7405   23.7341 C   0  0  0  0  0  0  0  0  0  0  0  0
   12.5384   15.1046   22.7283 C   0  0  0  0  0  0  0  0  0  0  0  0
    6.1869   11.2003   26.9812 C   0  0  0  0  0  0  0  0  0  0  0  0
   11.2429   15.4431   20.9842 C   0  0  0  0  0  0  0  0  0  0  0  0
   10.7470   12.2113   21.6467 C   0  0  0  0  0  0  0  0  0  0  0  0
   13.3988   14.5159   23.7698 C   0  0  0  0  0  0  0  0  0  0  0  0
    5.1692   11.0745   28.0409 C   0  0  0  0  0  0  0  0  0  0  0  0
   10.4022   15.4084   19.7725 C   0  0  0  0  0  0  0  0  0  0  0  0
   10.9734   17.9081   21.3923 C   0  0  0  0  0  0  0  0  0  0  0  0
   12.0011   12.9898   21.2813 C   0  0  0  0  0  0  0  0  0  0  0  0
   12.2679   16.4121   22.7613 N   0  0  0  0  0  0  0  0  0  0  0  0
    6.3145   10.2526   26.0014 N   0  0  0  0  0  0  0  0  0  0  0  0
   11.4783   16.5874   21.6880 N   0  0  0  0  0  0  0  0  0  0  0  0
   10.4735   12.3111   23.0206 N   0  0  0  0  0  0  0  0  0  0  0  0
   10.0943   11.5910   20.8134 O   0  0  0  0  0  0  0  0  0  0  0  0
    7.3834    8.9980   23.6671 H   0  0  0  0  0  0  0  0  0  0  0  0
    9.2577   10.0373   22.4203 H   0  0  0  0  0  0  0  0  0  0  0  0
    9.3559   13.3303   25.2047 H   0  0  0  0  0  0  0  0  0  0  0  0
    7.2812   13.0596   27.3575 H   0  0  0  0  0  0  0  0  0  0  0  0
   14.4610   14.5424   23.4729 H   0  0  0  0  0  0  0  0  0  0  0  0
   13.3090   15.0476   24.7335 H   0  0  0  0  0  0  0  0  0  0  0  0
   13.1377   13.4635   23.9795 H   0  0  0  0  0  0  0  0  0  0  0  0
    4.2217   11.5537   27.7427 H   0  0  0  0  0  0  0  0  0  0  0  0
    4.9487   10.0199   28.2818 H   0  0  0  0  0  0  0  0  0  0  0  0
    5.4956   11.5400   28.9873 H   0  0  0  0  0  0  0  0  0  0  0  0
    9.3468   15.2135   20.0256 H   0  0  0  0  0  0  0  0  0  0  0  0
   10.4418   16.3589   19.2129 H   0  0  0  0  0  0  0  0  0  0  0  0
   10.7265   14.6255   19.0651 H   0  0  0  0  0  0  0  0  0  0  0  0
   10.0181   18.0278   21.9101 H   0  0  0  0  0  0  0  0  0  0  0  0
   11.6913   18.6579   21.7363 H   0  0  0  0  0  0  0  0  0  0  0  0
   10.8392   18.0101   20.3118 H   0  0  0  0  0  0  0  0  0  0  0  0
   12.1778   12.8857   20.2031 H   0  0  0  0  0  0  0  0  0  0  0  0
   12.8610   12.5306   21.7854 H   0  0  0  0  0  0  0  0  0  0  0  0
    5.7472    9.4199   25.9207 H   0  0  0  0  0  0  0  0  0  0  0  0
   11.1329   12.8746   23.5693 H   0  0  0  0  0  0  0  0  0  0  0  0
  1  2  2  0  0  0  0
  1  7  1  0  0  0  0
  2  8  1  0  0  0  0
  3  5  1  0  0  0  0
  3  8  2  0  0  0  0
  4  5  1  0  0  0  0
  4 10  2  0  0  0  0
  5  7  2  0  0  0  0
  6  9  1  0  0  0  0
  6 11  2  0  0  0  0
  6 17  1  0  0  0  0
  7 19  1  0  0  0  0
  8 21  1  0  0  0  0
  9 13  1  0  0  0  0
  9 18  2  0  0  0  0
 10 14  1  0  0  0  0
 10 19  1  0  0  0  0
 11 15  1  0  0  0  0
 11 20  1  0  0  0  0
 12 17  1  0  0  0  0
 12 21  1  0  0  0  0
 12 22  2  0  0  0  0
 16 20  1  0  0  0  0
 18 20  1  0  0  0  0
  1 23  1  0  0  0  0
  2 24  1  0  0  0  0
  3 25  1  0  0  0  0
  4 26  1  0  0  0  0
 13 27  1  0  0  0  0
 13 28  1  0  0  0  0
 13 29  1  0  0  0  0
 14 30  1  0  0  0  0
 14 31  1  0  0  0  0
 14 32  1  0  0  0  0
 15 33  1  0  0  0  0
 15 34  1  0  0  0  0
 15 35  1  0  0  0  0
 16 36  1  0  0  0  0
 16 37  1  0  0  0  0
 16 38  1  0  0  0  0
 17 39  1  0  0  0  0
 17 40  1  0  0  0  0
 19 41  1  0  0  0  0
 21 42  1  0  0  0  0
M  END
> <idnumber>
Z366741818

> <heavy_atoms>
22

> <LogS>
-2.496

> <LogP>
1.741

> <rotating_bonds>
3

> <PSA>
62.71

> <hb_acceptors>
2

> <hb_donors>
2

> <Collection>
HTS

> <link>
https://www.enaminestore.com/catalog/Z366741818

> <ROCS_ShapeQuery>
_x1140_x0812_0A_x1140_0A_x1097_0A_x0365_0A_x1097_0A_x0310_0A

> <ROCS_TanimotoCombo>
0.628 

> <ROCS_ShapeTanimoto>
0.244 

> <ROCS_ColorTanimoto>
0.384 

> <ROCS_RefTversky>
0.225 

> <ROCS_RefColorTversky>
0.524 

> <ROCS_RefTverskyCombo>
0.749 

> <ROCS_FitTversky>
1.542 

> <ROCS_FitColorTversky>
0.590 

> <ROCS_FitTverskyCombo>
2.132 

> <ROCS_ColorScore>
-4.168

> <ROCS_Overlap>
2308.126

> <ROCS_Rank>
393                 

$$$$
untitled-dbase-1066551_7
  -OEChem-02092421083D

 36 38  0     1  0  0  0  0  0999 V2000
    6.1661   12.3912   25.8747 C   0  0  0  0  0  0  0  0  0  0  0  0
    8.0407   12.6266   24.0646 C   0  0  0  0  0  0  0  0  0  0  0  0
    8.9862   10.4751   23.6078 C   0  0  0  0  0  0  0  0  0  0  0  0
    5.7122   11.2654   26.5274 C   0  0  0  0  0  0  0  0  0  0  0  0
    7.1972   11.9859   24.9865 C   0  0  0  0  0  0  0  0  0  0  0  0
    8.9541   11.8415   23.3634 C   0  0  0  0  0  0  0  0  0  0  0  0
    7.3364   10.6087   25.1322 C   0  0  0  0  0  0  0  0  0  0  0  0
    9.8646   12.4492   22.3870 C   0  0  0  0  0  0  0  0  0  0  0  0
   10.4076   14.4202   23.9080 C   0  0  0  0  0  0  0  0  0  0  0  0
   10.5658   14.6371   21.4697 C   0  0  0  0  0  0  0  0  0  0  0  0
   11.7849   15.0769   24.0327 C   0  0  1  0  0  0  0  0  0  0  0  0
   11.9568   15.2465   21.6380 C   0  0  1  0  0  0  0  0  0  0  0  0
   12.9051   14.0650   24.2667 C   0  0  0  0  0  0  0  0  0  0  0  0
   12.2365   16.2745   20.5500 C   0  0  0  0  0  0  0  0  0  0  0  0
    8.1996    9.8055   24.4821 N   0  0  0  0  0  0  0  0  0  0  0  0
    6.4292   10.1904   26.0698 N   0  0  0  0  0  0  0  0  0  0  0  0
   10.2645   13.7674   22.6032 N   0  0  0  0  0  0  0  0  0  0  0  0
   10.2090   11.7376   21.4452 O   0  0  0  0  0  0  0  0  0  0  0  0
   12.0556   15.9159   22.9020 O   0  0  0  0  0  0  0  0  0  0  0  0
    5.7931   13.3950   26.0237 H   0  0  0  0  0  0  0  0  0  0  0  0
    7.9803   13.6991   23.9057 H   0  0  0  0  0  0  0  0  0  0  0  0
    9.6903    9.8390   23.0758 H   0  0  0  0  0  0  0  0  0  0  0  0
    4.9435   11.1332   27.2757 H   0  0  0  0  0  0  0  0  0  0  0  0
   10.2305   13.7300   24.7368 H   0  0  0  0  0  0  0  0  0  0  0  0
    9.6281   15.1910   23.9469 H   0  0  0  0  0  0  0  0  0  0  0  0
    9.7957   15.4182   21.4632 H   0  0  0  0  0  0  0  0  0  0  0  0
   10.4948   14.0862   20.5262 H   0  0  0  0  0  0  0  0  0  0  0  0
   11.7632   15.7447   24.9011 H   0  0  0  0  0  0  0  0  0  0  0  0
   12.7276   14.4677   21.5767 H   0  0  0  0  0  0  0  0  0  0  0  0
   12.9637   13.3775   23.4243 H   0  0  0  0  0  0  0  0  0  0  0  0
   12.7076   13.4990   25.1756 H   0  0  0  0  0  0  0  0  0  0  0  0
   13.8565   14.5846   24.3697 H   0  0  0  0  0  0  0  0  0  0  0  0
   11.4870   17.0653   20.5823 H   0  0  0  0  0  0  0  0  0  0  0  0
   12.2056   15.7981   19.5699 H   0  0  0  0  0  0  0  0  0  0  0  0
   13.2225   16.7154   20.6980 H   0  0  0  0  0  0  0  0  0  0  0  0
    6.3075    9.2349   26.3755 H   0  0  0  0  0  0  0  0  0  0  0  0
  1  4  2  0  0  0  0
  1  5  1  0  0  0  0
  2  5  1  0  0  0  0
  2  6  2  0  0  0  0
  3  6  1  0  0  0  0
  3 15  2  0  0  0  0
  4 16  1  0  0  0  0
  5  7  2  0  0  0  0
  6  8  1  0  0  0  0
  7 15  1  0  0  0  0
  7 16  1  0  0  0  0
  8 17  1  0  0  0  0
  8 18  2  0  0  0  0
  9 11  1  0  0  0  0
  9 17  1  0  0  0  0
 10 12  1  0  0  0  0
 10 17  1  0  0  0  0
 11 13  1  6  0  0  0
 11 19  1  0  0  0  0
 12 14  1  1  0  0  0
 12 19  1  0  0  0  0
  1 20  1  0  0  0  0
  2 21  1  0  0  0  0
  3 22  1  0  0  0  0
  4 23  1  0  0  0  0
  9 24  1  0  0  0  0
  9 25  1  0  0  0  0
 10 26  1  0  0  0  0
 10 27  1  0  0  0  0
 11 28  1  0  0  0  0
 12 29  1  0  0  0  0
 13 30  1  0  0  0  0
 13 31  1  0  0  0  0
 13 32  1  0  0  0  0
 14 33  1  0  0  0  0
 14 34  1  0  0  0  0
 14 35  1  0  0  0  0
 16 36  1  0  0  0  0
M  END
> <idnumber>
Z4023712482

> <heavy_atoms>
19

> <LogS>
-3.32

> <LogP>
1.239

> <rotating_bonds>
1

> <PSA>
58.22

> <hb_acceptors>
3

> <hb_donors>
1

> <Collection>
Advanced

> <link>
https://www.enaminestore.com/catalog/Z4023712482

> <ROCS_ShapeQuery>
_x1140_x0812_0A_x1140_0A_x1097_0A_x0365_0A_x1097_0A_x0310_0A

> <ROCS_TanimotoCombo>
0.628 

> <ROCS_ShapeTanimoto>
0.255 

> <ROCS_ColorTanimoto>
0.373 

> <ROCS_RefTversky>
0.230 

> <ROCS_RefColorTversky>
0.514 

> <ROCS_RefTverskyCombo>
0.744 

> <ROCS_FitTversky>
1.728 

> <ROCS_FitColorTversky>
0.578 

> <ROCS_FitTverskyCombo>
2.305 

> <ROCS_ColorScore>
-4.084

> <ROCS_Overlap>
2361.654

> <ROCS_Rank>
394                 

$$$$
untitled-dbase-461293_129
  -OEChem-02092421083D

 37 38  0     0  0  0  0  0  0999 V2000
   12.0934   15.1203   24.7345 C   0  0  0  0  0  0  0  0  0  0  0  0
    9.1067   11.3097   23.4811 C   0  0  0  0  0  0  0  0  0  0  0  0
    8.3222   12.0454   24.4012 C   0  0  0  0  0  0  0  0  0  0  0  0
   12.4656   15.1858   23.4081 C   0  0  0  0  0  0  0  0  0  0  0  0
    8.8894    9.9825   23.7693 C   0  0  0  0  0  0  0  0  0  0  0  0
    7.6812   11.1152   25.1860 C   0  0  0  0  0  0  0  0  0  0  0  0
   11.7602   17.2477   23.6548 C   0  0  0  0  0  0  0  0  0  0  0  0
   10.0007   11.8167   22.4083 C   0  0  0  0  0  0  0  0  0  0  0  0
    8.2105   13.5129   24.5035 C   0  0  0  0  0  0  0  0  0  0  0  0
    9.3948    8.7255   23.1965 C   0  0  0  0  0  0  0  0  0  0  0  0
    6.7386   11.2191   26.3099 C   0  0  0  0  0  0  0  0  0  0  0  0
   11.4177   18.6546   23.3528 C   0  0  0  0  0  0  0  0  0  0  0  0
   13.0516   14.0539   22.6003 C   0  0  0  0  0  0  0  0  0  0  0  0
   11.9895   13.2102   21.8995 C   0  0  0  0  0  0  0  0  0  0  0  0
   12.2749   16.4048   22.7872 N   0  0  0  0  0  0  0  0  0  0  0  0
   11.0535   12.6241   22.8211 N   0  0  0  0  0  0  0  0  0  0  0  0
    9.7618   11.5236   21.2397 O   0  0  0  0  0  0  0  0  0  0  0  0
    8.0215    9.8553   24.8073 O   0  0  0  0  0  0  0  0  0  0  0  0
   11.4801   16.6415   25.2356 S   0  0  0  0  0  0  0  0  0  0  0  0
   12.1497   14.2814   25.4137 H   0  0  0  0  0  0  0  0  0  0  0  0
    7.3925   13.8949   23.8705 H   0  0  0  0  0  0  0  0  0  0  0  0
    8.0146   13.8426   25.5384 H   0  0  0  0  0  0  0  0  0  0  0  0
    9.1395   14.0219   24.1931 H   0  0  0  0  0  0  0  0  0  0  0  0
   10.3200    8.3965   23.7015 H   0  0  0  0  0  0  0  0  0  0  0  0
    8.6618    7.9024   23.2799 H   0  0  0  0  0  0  0  0  0  0  0  0
    9.6212    8.8177   22.1184 H   0  0  0  0  0  0  0  0  0  0  0  0
    5.6921   11.2341   25.9578 H   0  0  0  0  0  0  0  0  0  0  0  0
    6.8368   10.3766   27.0188 H   0  0  0  0  0  0  0  0  0  0  0  0
    6.8992   12.1348   26.9084 H   0  0  0  0  0  0  0  0  0  0  0  0
   10.3804   18.7393   22.9930 H   0  0  0  0  0  0  0  0  0  0  0  0
   11.5218   19.3019   24.2388 H   0  0  0  0  0  0  0  0  0  0  0  0
   12.0789   19.0816   22.5809 H   0  0  0  0  0  0  0  0  0  0  0  0
   13.6378   13.4140   23.2720 H   0  0  0  0  0  0  0  0  0  0  0  0
   13.7631   14.4519   21.8656 H   0  0  0  0  0  0  0  0  0  0  0  0
   11.4084   13.8359   21.2147 H   0  0  0  0  0  0  0  0  0  0  0  0
   12.4375   12.3957   21.3209 H   0  0  0  0  0  0  0  0  0  0  0  0
   11.1465   12.8717   23.8041 H   0  0  0  0  0  0  0  0  0  0  0  0
  1  4  2  0  0  0  0
  1 19  1  0  0  0  0
  2  3  1  0  0  0  0
  2  5  2  0  0  0  0
  2  8  1  0  0  0  0
  3  6  2  0  0  0  0
  3  9  1  0  0  0  0
  4 13  1  0  0  0  0
  4 15  1  0  0  0  0
  5 10  1  0  0  0  0
  5 18  1  0  0  0  0
  6 11  1  0  0  0  0
  6 18  1  0  0  0  0
  7 12  1  0  0  0  0
  7 15  2  0  0  0  0
  7 19  1  0  0  0  0
  8 16  1  0  0  0  0
  8 17  2  0  0  0  0
 13 14  1  0  0  0  0
 14 16  1  0  0  0  0
  1 20  1  0  0  0  0
  9 21  1  0  0  0  0
  9 22  1  0  0  0  0
  9 23  1  0  0  0  0
 10 24  1  0  0  0  0
 10 25  1  0  0  0  0
 10 26  1  0  0  0  0
 11 27  1  0  0  0  0
 11 28  1  0  0  0  0
 11 29  1  0  0  0  0
 12 30  1  0  0  0  0
 12 31  1  0  0  0  0
 12 32  1  0  0  0  0
 13 33  1  0  0  0  0
 13 34  1  0  0  0  0
 14 35  1  0  0  0  0
 14 36  1  0  0  0  0
 16 37  1  0  0  0  0
M  END
> <idnumber>
Z275902004

> <heavy_atoms>
19

> <LogS>
-2.06

> <LogP>
1.744

> <rotating_bonds>
4

> <PSA>
55.13

> <hb_acceptors>
2

> <hb_donors>
1

> <Collection>
HTS

> <link>
https://www.enaminestore.com/catalog/Z275902004

> <ROCS_ShapeQuery>
_x1140_x0812_0A_x1140_0A_x1097_0A_x0365_0A_x1097_0A_x0310_0A

> <ROCS_TanimotoCombo>
0.628 

> <ROCS_ShapeTanimoto>
0.240 

> <ROCS_ColorTanimoto>
0.388 

> <ROCS_RefTversky>
0.218 

> <ROCS_RefColorTversky>
0.496 

> <ROCS_RefTverskyCombo>
0.714 

> <ROCS_FitTversky>
1.693 

> <ROCS_FitColorTversky>
0.642 

> <ROCS_FitTverskyCombo>
2.336 

> <ROCS_ColorScore>
-3.917

> <ROCS_Overlap>
2240.120

> <ROCS_Rank>
395                 

$$$$
untitled-dbase-681870_98
  -OEChem-02092421083D

 43 45  0     0  0  0  0  0  0999 V2000
    6.6586   12.9672   25.5360 C   0  0  0  0  0  0  0  0  0  0  0  0
    5.6861   12.6154   26.4676 C   0  0  0  0  0  0  0  0  0  0  0  0
    8.4734   12.3110   24.0269 C   0  0  0  0  0  0  0  0  0  0  0  0
    6.3603   10.3069   26.2676 C   0  0  0  0  0  0  0  0  0  0  0  0
   12.7735   15.4859   22.0778 C   0  0  0  0  0  0  0  0  0  0  0  0
   11.7117   14.7526   23.8582 C   0  0  0  0  0  0  0  0  0  0  0  0
    7.4865   11.9847   24.9669 C   0  0  0  0  0  0  0  0  0  0  0  0
    9.2749   11.3176   23.4831 C   0  0  0  0  0  0  0  0  0  0  0  0
    5.5370   11.2835   26.8336 C   0  0  0  0  0  0  0  0  0  0  0  0
   12.3209   14.3117   22.7088 C   0  0  0  0  0  0  0  0  0  0  0  0
    7.3407   10.6304   25.3337 C   0  0  0  0  0  0  0  0  0  0  0  0
    9.0578   10.0211   23.9036 C   0  0  0  0  0  0  0  0  0  0  0  0
   10.2982   11.6612   22.5079 C   0  0  0  0  0  0  0  0  0  0  0  0
    4.4983   10.8945   27.8307 C   0  0  0  0  0  0  0  0  0  0  0  0
    9.8838    8.9017   23.3583 C   0  0  0  0  0  0  0  0  0  0  0  0
   11.3419   17.0230   24.8519 C   0  0  0  0  0  0  0  0  0  0  0  0
   12.1423   11.4210   24.1878 C   0  0  0  0  0  0  0  0  0  0  0  0
   12.4673   12.8952   22.2333 C   0  0  0  0  0  0  0  0  0  0  0  0
   12.4770   16.5898   22.7688 N   0  0  0  0  0  0  0  0  0  0  0  0
    8.1170    9.6642   24.8077 N   0  0  0  0  0  0  0  0  0  0  0  0
   11.8315   16.1112   23.8459 N   0  0  0  0  0  0  0  0  0  0  0  0
   11.5909   11.9805   22.9617 N   0  0  0  0  0  0  0  0  0  0  0  0
    9.9669   11.6388   21.3153 O   0  0  0  0  0  0  0  0  0  0  0  0
    6.7669   14.0127   25.2557 H   0  0  0  0  0  0  0  0  0  0  0  0
    5.0529   13.3847   26.9006 H   0  0  0  0  0  0  0  0  0  0  0  0
    8.6136   13.3460   23.7198 H   0  0  0  0  0  0  0  0  0  0  0  0
    6.2317    9.2672   26.5658 H   0  0  0  0  0  0  0  0  0  0  0  0
   13.3065   15.5858   21.1428 H   0  0  0  0  0  0  0  0  0  0  0  0
   11.2144   14.2285   24.6630 H   0  0  0  0  0  0  0  0  0  0  0  0
    3.5525   10.6622   27.3260 H   0  0  0  0  0  0  0  0  0  0  0  0
    4.8100   10.0145   28.4081 H   0  0  0  0  0  0  0  0  0  0  0  0
    4.3181   11.7010   28.5535 H   0  0  0  0  0  0  0  0  0  0  0  0
   10.7740    8.7500   23.9792 H   0  0  0  0  0  0  0  0  0  0  0  0
    9.3127    7.9658   23.3302 H   0  0  0  0  0  0  0  0  0  0  0  0
   10.2051    9.1113   22.3307 H   0  0  0  0  0  0  0  0  0  0  0  0
   12.1316   17.1609   25.5951 H   0  0  0  0  0  0  0  0  0  0  0  0
   11.0859   17.9778   24.3843 H   0  0  0  0  0  0  0  0  0  0  0  0
   10.4468   16.6009   25.3173 H   0  0  0  0  0  0  0  0  0  0  0  0
   12.6673   10.4818   23.9591 H   0  0  0  0  0  0  0  0  0  0  0  0
   12.8491   12.1372   24.6320 H   0  0  0  0  0  0  0  0  0  0  0  0
   11.3270   11.2214   24.8987 H   0  0  0  0  0  0  0  0  0  0  0  0
   12.2242   12.8185   21.1679 H   0  0  0  0  0  0  0  0  0  0  0  0
   13.4967   12.5431   22.3582 H   0  0  0  0  0  0  0  0  0  0  0  0
  1  2  2  0  0  0  0
  1  7  1  0  0  0  0
  2  9  1  0  0  0  0
  3  7  2  0  0  0  0
  3  8  1  0  0  0  0
  4  9  2  0  0  0  0
  4 11  1  0  0  0  0
  5 10  1  0  0  0  0
  5 19  2  0  0  0  0
  6 10  2  0  0  0  0
  6 21  1  0  0  0  0
  7 11  1  0  0  0  0
  8 12  2  0  0  0  0
  8 13  1  0  0  0  0
  9 14  1  0  0  0  0
 10 18  1  0  0  0  0
 11 20  2  0  0  0  0
 12 15  1  0  0  0  0
 12 20  1  0  0  0  0
 13 22  1  0  0  0  0
 13 23  2  0  0  0  0
 16 21  1  0  0  0  0
 17 22  1  0  0  0  0
 18 22  1  0  0  0  0
 19 21  1  0  0  0  0
  1 24  1  0  0  0  0
  2 25  1  0  0  0  0
  3 26  1  0  0  0  0
  4 27  1  0  0  0  0
  5 28  1  0  0  0  0
  6 29  1  0  0  0  0
 14 30  1  0  0  0  0
 14 31  1  0  0  0  0
 14 32  1  0  0  0  0
 15 33  1  0  0  0  0
 15 34  1  0  0  0  0
 15 35  1  0  0  0  0
 16 36  1  0  0  0  0
 16 37  1  0  0  0  0
 16 38  1  0  0  0  0
 17 39  1  0  0  0  0
 17 40  1  0  0  0  0
 17 41  1  0  0  0  0
 18 42  1  0  0  0  0
 18 43  1  0  0  0  0
M  END
> <idnumber>
Z383128038

> <heavy_atoms>
23

> <LogS>
-2.85

> <LogP>
2.191

> <rotating_bonds>
3

> <PSA>
51.02

> <hb_acceptors>
3

> <hb_donors>
0

> <Collection>
Legacy

> <link>
https://www.enaminestore.com/catalog/Z383128038

> <ROCS_ShapeQuery>
_x1140_x0812_0A_x1140_0A_x1097_0A_x0365_0A_x1097_0A_x0310_0A

> <ROCS_TanimotoCombo>
0.628 

> <ROCS_ShapeTanimoto>
0.295 

> <ROCS_ColorTanimoto>
0.333 

> <ROCS_RefTversky>
0.262 

> <ROCS_RefColorTversky>
0.443 

> <ROCS_RefTverskyCombo>
0.705 

> <ROCS_FitTversky>
1.749 

> <ROCS_FitColorTversky>
0.573 

> <ROCS_FitTverskyCombo>
2.321 

> <ROCS_ColorScore>
-3.497

> <ROCS_Overlap>
2694.089

> <ROCS_Rank>
396                 

$$$$
untitled-dbase-95443_15
  -OEChem-02092421083D

 36 37  0     0  0  0  0  0  0999 V2000
    8.5010   12.4365   24.2284 C   0  0  0  0  0  0  0  0  0  0  0  0
    8.9770   10.1716   23.6806 C   0  0  0  0  0  0  0  0  0  0  0  0
    9.2522   11.5180   23.5037 C   0  0  0  0  0  0  0  0  0  0  0  0
    7.5114   11.9870   25.0955 C   0  0  0  0  0  0  0  0  0  0  0  0
    7.3139   10.6196   25.2010 C   0  0  0  0  0  0  0  0  0  0  0  0
   10.3043   11.9602   22.5800 C   0  0  0  0  0  0  0  0  0  0  0  0
   12.6303   14.8456   24.5650 C   0  0  0  0  0  0  0  0  0  0  0  0
   12.1473   15.0378   23.1271 C   0  0  0  0  0  0  0  0  0  0  0  0
   11.8289   13.7537   25.2740 C   0  0  0  0  0  0  0  0  0  0  0  0
   12.1424   13.7140   22.3673 C   0  0  0  0  0  0  0  0  0  0  0  0
   11.8220   12.4573   24.4675 C   0  0  0  0  0  0  0  0  0  0  0  0
    5.0065    8.2829   25.2822 C   0  0  0  0  0  0  0  0  0  0  0  0
    6.0350    8.7534   26.2534 C   0  0  0  0  0  0  0  0  0  0  0  0
    8.0238    9.6970   24.5135 N   0  0  0  0  0  0  0  0  0  0  0  0
   11.3668   12.7035   23.0989 N   0  0  0  0  0  0  0  0  0  0  0  0
    6.3097   10.1425   26.0796 N   0  0  0  0  0  0  0  0  0  0  0  0
   10.1690   11.6272   21.4036 O   0  0  0  0  0  0  0  0  0  0  0  0
    6.5894   13.1383   25.9862 Cl  0  0  0  0  0  0  0  0  0  0  0  0
    8.6911   13.5013   24.1134 H   0  0  0  0  0  0  0  0  0  0  0  0
    9.5298    9.4073   23.1427 H   0  0  0  0  0  0  0  0  0  0  0  0
   13.6927   14.5722   24.5593 H   0  0  0  0  0  0  0  0  0  0  0  0
   12.5436   15.7886   25.1159 H   0  0  0  0  0  0  0  0  0  0  0  0
   11.1363   15.4636   23.1307 H   0  0  0  0  0  0  0  0  0  0  0  0
   12.7968   15.7560   22.6144 H   0  0  0  0  0  0  0  0  0  0  0  0
   12.2567   13.5698   26.2658 H   0  0  0  0  0  0  0  0  0  0  0  0
   10.7976   14.0951   25.4268 H   0  0  0  0  0  0  0  0  0  0  0  0
   11.7502   13.8723   21.3597 H   0  0  0  0  0  0  0  0  0  0  0  0
   13.1633   13.3277   22.2627 H   0  0  0  0  0  0  0  0  0  0  0  0
   12.8323   12.0359   24.4074 H   0  0  0  0  0  0  0  0  0  0  0  0
   11.1845   11.7161   24.9600 H   0  0  0  0  0  0  0  0  0  0  0  0
    5.3676    8.4475   24.2563 H   0  0  0  0  0  0  0  0  0  0  0  0
    4.8196    7.2100   25.4373 H   0  0  0  0  0  0  0  0  0  0  0  0
    4.0729    8.8438   25.4365 H   0  0  0  0  0  0  0  0  0  0  0  0
    5.6665    8.5855   27.2761 H   0  0  0  0  0  0  0  0  0  0  0  0
    6.9623    8.1821   26.0993 H   0  0  0  0  0  0  0  0  0  0  0  0
    5.7898   10.8326   26.5822 H   0  0  0  0  0  0  0  0  0  0  0  0
  1  3  2  0  0  0  0
  1  4  1  0  0  0  0
  2  3  1  0  0  0  0
  2 14  2  0  0  0  0
  3  6  1  0  0  0  0
  4  5  2  0  0  0  0
  4 18  1  0  0  0  0
  5 14  1  0  0  0  0
  5 16  1  0  0  0  0
  6 15  1  0  0  0  0
  6 17  2  0  0  0  0
  7  8  1  0  0  0  0
  7  9  1  0  0  0  0
  8 10  1  0  0  0  0
  9 11  1  0  0  0  0
 10 15  1  0  0  0  0
 11 15  1  0  0  0  0
 12 13  1  0  0  0  0
 13 16  1  0  0  0  0
  1 19  1  0  0  0  0
  2 20  1  0  0  0  0
  7 21  1  0  0  0  0
  7 22  1  0  0  0  0
  8 23  1  0  0  0  0
  8 24  1  0  0  0  0
  9 25  1  0  0  0  0
  9 26  1  0  0  0  0
 10 27  1  0  0  0  0
 10 28  1  0  0  0  0
 11 29  1  0  0  0  0
 11 30  1  0  0  0  0
 12 31  1  0  0  0  0
 12 32  1  0  0  0  0
 12 33  1  0  0  0  0
 13 34  1  0  0  0  0
 13 35  1  0  0  0  0
 16 36  1  0  0  0  0
M  END
> <idnumber>
Z785179350

> <heavy_atoms>
18

> <LogS>
-2.87

> <LogP>
2.546

> <rotating_bonds>
3

> <PSA>
45.23

> <hb_acceptors>
3

> <hb_donors>
1

> <Collection>
HTS

> <link>
https://www.enaminestore.com/catalog/Z785179350

> <ROCS_ShapeQuery>
_x1140_x0812_0A_x1140_0A_x1097_0A_x0365_0A_x1097_0A_x0310_0A

> <ROCS_TanimotoCombo>
0.628 

> <ROCS_ShapeTanimoto>
0.248 

> <ROCS_ColorTanimoto>
0.380 

> <ROCS_RefTversky>
0.223 

> <ROCS_RefColorTversky>
0.456 

> <ROCS_RefTverskyCombo>
0.680 

> <ROCS_FitTversky>
1.792 

> <ROCS_FitColorTversky>
0.695 

> <ROCS_FitTverskyCombo>
2.487 

> <ROCS_ColorScore>
-3.581

> <ROCS_Overlap>
2292.399

> <ROCS_Rank>
397                 

$$$$
untitled-dbase-608785_88
  -OEChem-02092421083D

 43 46  0     0  0  0  0  0  0999 V2000
    8.2555   12.4124   24.0669 C   0  0  0  0  0  0  0  0  0  0  0  0
    7.2921   11.9304   24.9462 C   0  0  0  0  0  0  0  0  0  0  0  0
    9.0000   10.1775   23.7395 C   0  0  0  0  0  0  0  0  0  0  0  0
    9.1295   11.5258   23.4479 C   0  0  0  0  0  0  0  0  0  0  0  0
    7.2447   10.5640   25.1705 C   0  0  0  0  0  0  0  0  0  0  0  0
   12.0003   15.1836   22.9471 C   0  0  0  0  0  0  0  0  0  0  0  0
   12.1362   16.5020   24.6835 C   0  0  0  0  0  0  0  0  0  0  0  0
   10.1578   12.0049   22.5117 C   0  0  0  0  0  0  0  0  0  0  0  0
   11.7692   13.9451   22.1603 C   0  0  0  0  0  0  0  0  0  0  0  0
    4.6867   10.5695   28.0305 C   0  0  0  0  0  0  0  0  0  0  0  0
    5.7133   11.6650   28.0040 C   0  0  0  0  0  0  0  0  0  0  0  0
   11.3636   14.1377   25.1110 C   0  0  0  0  0  0  0  0  0  0  0  0
   11.5610   12.8124   24.3818 C   0  0  0  0  0  0  0  0  0  0  0  0
    5.3400   10.9551   26.7341 C   0  0  0  0  0  0  0  0  0  0  0  0
   12.1480   18.5047   26.1920 C   0  0  0  0  0  0  0  0  0  0  0  0
   12.0635   16.9780   26.0760 C   0  0  0  0  0  0  0  0  0  0  0  0
    8.0768    9.6719   24.5878 N   0  0  0  0  0  0  0  0  0  0  0  0
   12.4083   16.3628   22.5249 N   0  0  0  0  0  0  0  0  0  0  0  0
   12.4932   17.1975   23.6258 N   0  0  0  0  0  0  0  0  0  0  0  0
   11.8224   15.2415   24.3006 N   0  0  0  0  0  0  0  0  0  0  0  0
   11.1138   12.9107   22.9851 N   0  0  0  0  0  0  0  0  0  0  0  0
    6.2585   10.0886   26.0702 N   0  0  0  0  0  0  0  0  0  0  0  0
   10.0934   11.5702   21.3624 O   0  0  0  0  0  0  0  0  0  0  0  0
    8.3171   13.4797   23.8726 H   0  0  0  0  0  0  0  0  0  0  0  0
    6.6055   12.6152   25.4335 H   0  0  0  0  0  0  0  0  0  0  0  0
    9.6532    9.4367   23.2880 H   0  0  0  0  0  0  0  0  0  0  0  0
   11.1681   14.1768   21.2769 H   0  0  0  0  0  0  0  0  0  0  0  0
   12.7264   13.5318   21.8241 H   0  0  0  0  0  0  0  0  0  0  0  0
    4.9663    9.6293   28.4893 H   0  0  0  0  0  0  0  0  0  0  0  0
    3.6514   10.8517   28.1773 H   0  0  0  0  0  0  0  0  0  0  0  0
    5.3680   12.6832   28.1334 H   0  0  0  0  0  0  0  0  0  0  0  0
    6.6803   11.4582   28.4459 H   0  0  0  0  0  0  0  0  0  0  0  0
   10.3030   14.3146   25.3214 H   0  0  0  0  0  0  0  0  0  0  0  0
   11.9218   14.1411   26.0525 H   0  0  0  0  0  0  0  0  0  0  0  0
   12.6241   12.5428   24.3551 H   0  0  0  0  0  0  0  0  0  0  0  0
   11.0331   12.0113   24.9090 H   0  0  0  0  0  0  0  0  0  0  0  0
    4.7303   11.5062   26.0265 H   0  0  0  0  0  0  0  0  0  0  0  0
   13.0618   18.8791   25.7182 H   0  0  0  0  0  0  0  0  0  0  0  0
   12.1529   18.8253   27.2385 H   0  0  0  0  0  0  0  0  0  0  0  0
   11.2941   18.9785   25.6960 H   0  0  0  0  0  0  0  0  0  0  0  0
   11.1275   16.6443   26.5667 H   0  0  0  0  0  0  0  0  0  0  0  0
   12.8717   16.5381   26.6939 H   0  0  0  0  0  0  0  0  0  0  0  0
    6.2325    9.1016   26.2253 H   0  0  0  0  0  0  0  0  0  0  0  0
  1  2  2  0  0  0  0
  1  4  1  0  0  0  0
  2  5  1  0  0  0  0
  3  4  2  0  0  0  0
  3 17  1  0  0  0  0
  4  8  1  0  0  0  0
  5 17  2  0  0  0  0
  5 22  1  0  0  0  0
  6  9  1  0  0  0  0
  6 18  2  0  0  0  0
  6 20  1  0  0  0  0
  7 16  1  0  0  0  0
  7 19  2  0  0  0  0
  7 20  1  0  0  0  0
  8 21  1  0  0  0  0
  8 23  2  0  0  0  0
  9 21  1  0  0  0  0
 10 11  1  0  0  0  0
 10 14  1  0  0  0  0
 11 14  1  0  0  0  0
 12 13  1  0  0  0  0
 12 20  1  0  0  0  0
 13 21  1  0  0  0  0
 14 22  1  0  0  0  0
 15 16  1  0  0  0  0
 18 19  1  0  0  0  0
  1 24  1  0  0  0  0
  2 25  1  0  0  0  0
  3 26  1  0  0  0  0
  9 27  1  0  0  0  0
  9 28  1  0  0  0  0
 10 29  1  0  0  0  0
 10 30  1  0  0  0  0
 11 31  1  0  0  0  0
 11 32  1  0  0  0  0
 12 33  1  0  0  0  0
 12 34  1  0  0  0  0
 13 35  1  0  0  0  0
 13 36  1  0  0  0  0
 14 37  1  0  0  0  0
 15 38  1  0  0  0  0
 15 39  1  0  0  0  0
 15 40  1  0  0  0  0
 16 41  1  0  0  0  0
 16 42  1  0  0  0  0
 22 43  1  0  0  0  0
M  END
> <idnumber>
Z1139300866

> <heavy_atoms>
23

> <LogS>
-2.12

> <LogP>
0.539

> <rotating_bonds>
4

> <PSA>
75.94

> <hb_acceptors>
5

> <hb_donors>
1

> <Collection>
HTS

> <link>
https://www.enaminestore.com/catalog/Z1139300866

> <ROCS_ShapeQuery>
_x1140_x0812_0A_x1140_0A_x1097_0A_x0365_0A_x1097_0A_x0310_0A

> <ROCS_TanimotoCombo>
0.628 

> <ROCS_ShapeTanimoto>
0.251 

> <ROCS_ColorTanimoto>
0.377 

> <ROCS_RefTversky>
0.231 

> <ROCS_RefColorTversky>
0.588 

> <ROCS_RefTverskyCombo>
0.819 

> <ROCS_FitTversky>
1.539 

> <ROCS_FitColorTversky>
0.513 

> <ROCS_FitTverskyCombo>
2.051 

> <ROCS_ColorScore>
-4.740

> <ROCS_Overlap>
2371.007

> <ROCS_Rank>
398                 

$$$$
untitled-dbase-795985_8
  -OEChem-02092421083D

 43 46  0     0  0  0  0  0  0999 V2000
    5.2615   12.1291   26.3476 C   0  0  0  0  0  0  0  0  0  0  0  0
    5.2811   10.7669   26.6201 C   0  0  0  0  0  0  0  0  0  0  0  0
    6.2273   12.6757   25.5075 C   0  0  0  0  0  0  0  0  0  0  0  0
    6.2658    9.9548   26.0521 C   0  0  0  0  0  0  0  0  0  0  0  0
    7.2177   11.8586   24.9363 C   0  0  0  0  0  0  0  0  0  0  0  0
    9.1661   11.5493   23.5389 C   0  0  0  0  0  0  0  0  0  0  0  0
    8.2018   12.3826   24.0873 C   0  0  0  0  0  0  0  0  0  0  0  0
    7.2436   10.4747   25.2084 C   0  0  0  0  0  0  0  0  0  0  0  0
    9.1103   10.2090   23.8631 C   0  0  0  0  0  0  0  0  0  0  0  0
   12.2910   16.4799   21.2849 C   0  0  0  0  0  0  0  0  0  0  0  0
   12.4334   14.5069   22.2147 C   0  0  0  0  0  0  0  0  0  0  0  0
   12.1794   17.3749   20.1845 C   0  0  0  0  0  0  0  0  0  0  0  0
   12.1133   16.8784   18.9333 C   0  0  0  0  0  0  0  0  0  0  0  0
   12.1534   15.4450   18.6784 C   0  0  0  0  0  0  0  0  0  0  0  0
   12.2588   14.5990   19.7168 C   0  0  0  0  0  0  0  0  0  0  0  0
   10.2022   12.0611   22.6505 C   0  0  0  0  0  0  0  0  0  0  0  0
    8.2379   13.8440   23.7528 C   0  0  0  0  0  0  0  0  0  0  0  0
   11.6606   12.4856   24.6422 C   0  0  0  0  0  0  0  0  0  0  0  0
   12.5070   13.0169   22.3839 C   0  0  0  0  0  0  0  0  0  0  0  0
    8.1782    9.6636   24.6778 N   0  0  0  0  0  0  0  0  0  0  0  0
   12.3730   16.6532   22.5869 N   0  0  0  0  0  0  0  0  0  0  0  0
   12.4628   15.4060   23.1731 N   0  0  0  0  0  0  0  0  0  0  0  0
   12.3258   15.1236   21.0012 N   0  0  0  0  0  0  0  0  0  0  0  0
   11.4136   12.5053   23.2073 N   0  0  0  0  0  0  0  0  0  0  0  0
    9.9500   12.0599   21.4398 O   0  0  0  0  0  0  0  0  0  0  0  0
   10.0375    9.3419   23.3453 O   0  0  0  0  0  0  0  0  0  0  0  0
    4.4980   12.7631   26.7882 H   0  0  0  0  0  0  0  0  0  0  0  0
    4.5311   10.3315   27.2741 H   0  0  0  0  0  0  0  0  0  0  0  0
    6.1884   13.7447   25.3130 H   0  0  0  0  0  0  0  0  0  0  0  0
    6.2608    8.8911   26.2834 H   0  0  0  0  0  0  0  0  0  0  0  0
   12.1479   18.4435   20.3645 H   0  0  0  0  0  0  0  0  0  0  0  0
   12.0269   17.5397   18.0779 H   0  0  0  0  0  0  0  0  0  0  0  0
   12.0989   15.0925   17.6558 H   0  0  0  0  0  0  0  0  0  0  0  0
   12.2945   13.5237   19.5945 H   0  0  0  0  0  0  0  0  0  0  0  0
    8.8558   14.3787   24.4803 H   0  0  0  0  0  0  0  0  0  0  0  0
    8.6499   14.0050   22.7513 H   0  0  0  0  0  0  0  0  0  0  0  0
    7.2299   14.2713   23.7614 H   0  0  0  0  0  0  0  0  0  0  0  0
   12.1110   11.5225   24.9241 H   0  0  0  0  0  0  0  0  0  0  0  0
   12.3475   13.3030   24.9071 H   0  0  0  0  0  0  0  0  0  0  0  0
   10.7098   12.6170   25.1796 H   0  0  0  0  0  0  0  0  0  0  0  0
   12.4601   12.5151   21.4112 H   0  0  0  0  0  0  0  0  0  0  0  0
   13.4492   12.7212   22.8572 H   0  0  0  0  0  0  0  0  0  0  0  0
    9.8622    8.4466   23.6661 H   0  0  0  0  0  0  0  0  0  0  0  0
  1  2  1  0  0  0  0
  1  3  2  0  0  0  0
  2  4  2  0  0  0  0
  3  5  1  0  0  0  0
  4  8  1  0  0  0  0
  5  7  2  0  0  0  0
  5  8  1  0  0  0  0
  6  7  1  0  0  0  0
  6  9  2  0  0  0  0
  6 16  1  0  0  0  0
  7 17  1  0  0  0  0
  8 20  2  0  0  0  0
  9 20  1  0  0  0  0
  9 26  1  0  0  0  0
 10 12  1  0  0  0  0
 10 21  2  0  0  0  0
 10 23  1  0  0  0  0
 11 19  1  0  0  0  0
 11 22  2  0  0  0  0
 11 23  1  0  0  0  0
 12 13  2  0  0  0  0
 13 14  1  0  0  0  0
 14 15  2  0  0  0  0
 15 23  1  0  0  0  0
 16 24  1  0  0  0  0
 16 25  2  0  0  0  0
 18 24  1  0  0  0  0
 19 24  1  0  0  0  0
 21 22  1  0  0  0  0
  1 27  1  0  0  0  0
  2 28  1  0  0  0  0
  3 29  1  0  0  0  0
  4 30  1  0  0  0  0
 12 31  1  0  0  0  0
 13 32  1  0  0  0  0
 14 33  1  0  0  0  0
 15 34  1  0  0  0  0
 17 35  1  0  0  0  0
 17 36  1  0  0  0  0
 17 37  1  0  0  0  0
 18 38  1  0  0  0  0
 18 39  1  0  0  0  0
 18 40  1  0  0  0  0
 19 41  1  0  0  0  0
 19 42  1  0  0  0  0
 26 43  1  0  0  0  0
M  END
> <idnumber>
Z1343947154

> <heavy_atoms>
26

> <LogS>
-4.34

> <LogP>
2.114

> <rotating_bonds>
3

> <PSA>
83.62

> <hb_acceptors>
5

> <hb_donors>
1

> <Collection>
HTS

> <link>
https://www.enaminestore.com/catalog/Z1343947154

> <ROCS_ShapeQuery>
_x1140_x0812_0A_x1140_0A_x1097_0A_x0365_0A_x1097_0A_x0310_0A

> <ROCS_TanimotoCombo>
0.628 

> <ROCS_ShapeTanimoto>
0.300 

> <ROCS_ColorTanimoto>
0.328 

> <ROCS_RefTversky>
0.269 

> <ROCS_RefColorTversky>
0.558 

> <ROCS_RefTverskyCombo>
0.827 

> <ROCS_FitTversky>
1.620 

> <ROCS_FitColorTversky>
0.444 

> <ROCS_FitTverskyCombo>
2.064 

> <ROCS_ColorScore>
-4.533

> <ROCS_Overlap>
2763.646

> <ROCS_Rank>
399                 

$$$$
untitled-dbase-480942_73
  -OEChem-02092421083D

 38 39  0     0  0  0  0  0  0999 V2000
    7.4204   12.0052   25.1004 C   0  0  0  0  0  0  0  0  0  0  0  0
    8.2795   12.4288   24.0925 C   0  0  0  0  0  0  0  0  0  0  0  0
    7.4189   10.6589   25.4280 C   0  0  0  0  0  0  0  0  0  0  0  0
    9.0992   11.5061   23.4521 C   0  0  0  0  0  0  0  0  0  0  0  0
    9.0227   10.1822   23.8536 C   0  0  0  0  0  0  0  0  0  0  0  0
   10.0191   11.9511   22.3736 C   0  0  0  0  0  0  0  0  0  0  0  0
   12.3640   16.8716   20.8193 C   0  0  0  0  0  0  0  0  0  0  0  0
   12.6210   16.9298   22.3217 C   0  0  0  0  0  0  0  0  0  0  0  0
   10.9230   16.6035   20.3963 C   0  0  0  0  0  0  0  0  0  0  0  0
   12.3817   15.6538   23.1298 C   0  0  0  0  0  0  0  0  0  0  0  0
   10.3134   15.2535   20.7772 C   0  0  0  0  0  0  0  0  0  0  0  0
   12.9343   14.3722   22.4987 C   0  0  0  0  0  0  0  0  0  0  0  0
   11.2223   14.0427   20.5467 C   0  0  0  0  0  0  0  0  0  0  0  0
   11.9263   13.4527   21.7838 C   0  0  0  0  0  0  0  0  0  0  0  0
    8.2006    9.7332   24.8285 N   0  0  0  0  0  0  0  0  0  0  0  0
   10.9629   12.8951   22.7399 N   0  0  0  0  0  0  0  0  0  0  0  0
    9.8864   11.4891   21.2434 O   0  0  0  0  0  0  0  0  0  0  0  0
    9.8136    9.2405   23.2478 O   0  0  0  0  0  0  0  0  0  0  0  0
    6.7732   12.7065   25.6147 H   0  0  0  0  0  0  0  0  0  0  0  0
    8.3020   13.4791   23.8143 H   0  0  0  0  0  0  0  0  0  0  0  0
    6.7678   10.2774   26.2077 H   0  0  0  0  0  0  0  0  0  0  0  0
   12.6424   17.8623   20.4175 H   0  0  0  0  0  0  0  0  0  0  0  0
   13.0635   16.1698   20.3342 H   0  0  0  0  0  0  0  0  0  0  0  0
   13.6755   17.2146   22.4647 H   0  0  0  0  0  0  0  0  0  0  0  0
   12.0366   17.7535   22.7615 H   0  0  0  0  0  0  0  0  0  0  0  0
   10.2576   17.4271   20.7178 H   0  0  0  0  0  0  0  0  0  0  0  0
   10.8788   16.6613   19.2897 H   0  0  0  0  0  0  0  0  0  0  0  0
   12.7298   15.7783   24.1643 H   0  0  0  0  0  0  0  0  0  0  0  0
   11.2899   15.5344   23.2067 H   0  0  0  0  0  0  0  0  0  0  0  0
    9.9973   15.2880   21.8142 H   0  0  0  0  0  0  0  0  0  0  0  0
    9.4208   15.1069   20.1739 H   0  0  0  0  0  0  0  0  0  0  0  0
   13.6787   14.6765   21.7363 H   0  0  0  0  0  0  0  0  0  0  0  0
   13.5344   13.8059   23.2344 H   0  0  0  0  0  0  0  0  0  0  0  0
   10.6053   13.2516   20.1062 H   0  0  0  0  0  0  0  0  0  0  0  0
   11.9621   14.2750   19.7791 H   0  0  0  0  0  0  0  0  0  0  0  0
   12.4941   12.5736   21.4246 H   0  0  0  0  0  0  0  0  0  0  0  0
   10.9734   13.2784   23.6780 H   0  0  0  0  0  0  0  0  0  0  0  0
   10.3603    9.6607   22.5696 H   0  0  0  0  0  0  0  0  0  0  0  0
  1  2  2  0  0  0  0
  1  3  1  0  0  0  0
  2  4  1  0  0  0  0
  3 15  2  0  0  0  0
  4  5  2  0  0  0  0
  4  6  1  0  0  0  0
  5 15  1  0  0  0  0
  5 18  1  0  0  0  0
  6 16  1  0  0  0  0
  6 17  2  0  0  0  0
  7  8  1  0  0  0  0
  7  9  1  0  0  0  0
  8 10  1  0  0  0  0
  9 11  1  0  0  0  0
 10 12  1  0  0  0  0
 11 13  1  0  0  0  0
 12 14  1  0  0  0  0
 13 14  1  0  0  0  0
 14 16  1  0  0  0  0
  1 19  1  0  0  0  0
  2 20  1  0  0  0  0
  3 21  1  0  0  0  0
  7 22  1  0  0  0  0
  7 23  1  0  0  0  0
  8 24  1  0  0  0  0
  8 25  1  0  0  0  0
  9 26  1  0  0  0  0
  9 27  1  0  0  0  0
 10 28  1  0  0  0  0
 10 29  1  0  0  0  0
 11 30  1  0  0  0  0
 11 31  1  0  0  0  0
 12 32  1  0  0  0  0
 12 33  1  0  0  0  0
 13 34  1  0  0  0  0
 13 35  1  0  0  0  0
 14 36  1  0  0  0  0
 16 37  1  0  0  0  0
 18 38  1  0  0  0  0
M  END
> <idnumber>
Z68312909

> <heavy_atoms>
18

> <LogS>
-3.442

> <LogP>
4.546

> <rotating_bonds>
2

> <PSA>
62.22

> <hb_acceptors>
3

> <hb_donors>
2

> <Collection>
Legacy

> <link>
https://www.enaminestore.com/catalog/Z68312909

> <ROCS_ShapeQuery>
_x1140_x0812_0A_x1140_0A_x1097_0A_x0365_0A_x1097_0A_x0310_0A

> <ROCS_TanimotoCombo>
0.628 

> <ROCS_ShapeTanimoto>
0.233 

> <ROCS_ColorTanimoto>
0.395 

> <ROCS_RefTversky>
0.213 

> <ROCS_RefColorTversky>
0.502 

> <ROCS_RefTverskyCombo>
0.715 

> <ROCS_FitTversky>
1.710 

> <ROCS_FitColorTversky>
0.649 

> <ROCS_FitTverskyCombo>
2.358 

> <ROCS_ColorScore>
-3.965

> <ROCS_Overlap>
2183.201

> <ROCS_Rank>
400                 

$$$$
untitled-dbase-691315_7
  -OEChem-02092421083D

 46 48  0     0  0  0  0  0  0999 V2000
    4.6274   10.8045   27.6675 C   0  0  0  0  0  0  0  0  0  0  0  0
    4.9129   11.9732   26.9616 C   0  0  0  0  0  0  0  0  0  0  0  0
    5.3773    9.6508   27.4389 C   0  0  0  0  0  0  0  0  0  0  0  0
    5.9483   11.9881   26.0270 C   0  0  0  0  0  0  0  0  0  0  0  0
    6.4127    9.6657   26.5044 C   0  0  0  0  0  0  0  0  0  0  0  0
    8.1095   11.9237   24.1133 C   0  0  0  0  0  0  0  0  0  0  0  0
    9.1584   11.4902   23.3396 C   0  0  0  0  0  0  0  0  0  0  0  0
    6.6982   10.8343   25.7984 C   0  0  0  0  0  0  0  0  0  0  0  0
    9.3305   10.1413   23.7040 C   0  0  0  0  0  0  0  0  0  0  0  0
   11.6871   15.4424   23.0779 C   0  0  0  0  0  0  0  0  0  0  0  0
    9.8982   12.3038   22.3640 C   0  0  0  0  0  0  0  0  0  0  0  0
   11.3466   14.3734   22.0632 C   0  0  0  0  0  0  0  0  0  0  0  0
   10.4264   13.8413   24.2199 C   0  0  0  0  0  0  0  0  0  0  0  0
   11.7904    9.6670   23.4399 C   0  0  0  0  0  0  0  0  0  0  0  0
   10.1758    8.9756   21.6368 C   0  0  0  0  0  0  0  0  0  0  0  0
   10.2658    7.7343   23.7891 C   0  0  0  0  0  0  0  0  0  0  0  0
   11.2413   15.8240   25.5116 C   0  0  0  0  0  0  0  0  0  0  0  0
   10.3222    9.1842   23.1827 C   0  0  0  0  0  0  0  0  0  0  0  0
    8.4608    9.7441   24.6366 N   0  0  0  0  0  0  0  0  0  0  0  0
    7.7321   10.8500   24.8649 N   0  0  0  0  0  0  0  0  0  0  0  0
   11.1361   15.0758   24.2996 N   0  0  0  0  0  0  0  0  0  0  0  0
   10.5463   13.4336   22.8402 N   0  0  0  0  0  0  0  0  0  0  0  0
   12.3462   16.4420   22.8269 O   0  0  0  0  0  0  0  0  0  0  0  0
    9.9025   11.9209   21.1961 O   0  0  0  0  0  0  0  0  0  0  0  0
    3.8226   10.7929   28.3965 H   0  0  0  0  0  0  0  0  0  0  0  0
    4.3301   12.8719   27.1403 H   0  0  0  0  0  0  0  0  0  0  0  0
    5.1553    8.7415   27.9901 H   0  0  0  0  0  0  0  0  0  0  0  0
    6.1609   12.9058   25.4841 H   0  0  0  0  0  0  0  0  0  0  0  0
    6.9898    8.7595   26.3366 H   0  0  0  0  0  0  0  0  0  0  0  0
    7.6147   12.8835   24.1877 H   0  0  0  0  0  0  0  0  0  0  0  0
   10.7506   14.7852   21.2453 H   0  0  0  0  0  0  0  0  0  0  0  0
   12.2502   13.8790   21.6983 H   0  0  0  0  0  0  0  0  0  0  0  0
   10.8832   13.0902   24.8716 H   0  0  0  0  0  0  0  0  0  0  0  0
    9.3725   13.9818   24.4786 H   0  0  0  0  0  0  0  0  0  0  0  0
   12.5489    8.9720   23.0613 H   0  0  0  0  0  0  0  0  0  0  0  0
   11.9780   10.6356   22.9637 H   0  0  0  0  0  0  0  0  0  0  0  0
   11.9593    9.7914   24.5161 H   0  0  0  0  0  0  0  0  0  0  0  0
   10.9179    8.2626   21.2613 H   0  0  0  0  0  0  0  0  0  0  0  0
    9.1902    8.5975   21.3409 H   0  0  0  0  0  0  0  0  0  0  0  0
   10.3391    9.9259   21.1148 H   0  0  0  0  0  0  0  0  0  0  0  0
   11.0224    7.0600   23.3700 H   0  0  0  0  0  0  0  0  0  0  0  0
   10.4266    7.7641   24.8731 H   0  0  0  0  0  0  0  0  0  0  0  0
    9.2875    7.2767   23.6013 H   0  0  0  0  0  0  0  0  0  0  0  0
   10.3980   16.5266   25.5838 H   0  0  0  0  0  0  0  0  0  0  0  0
   11.2199   15.1363   26.3699 H   0  0  0  0  0  0  0  0  0  0  0  0
   12.1874   16.3852   25.5149 H   0  0  0  0  0  0  0  0  0  0  0  0
  1  2  1  0  0  0  0
  1  3  2  0  0  0  0
  2  4  2  0  0  0  0
  3  5  1  0  0  0  0
  4  8  1  0  0  0  0
  5  8  2  0  0  0  0
  6  7  2  0  0  0  0
  6 20  1  0  0  0  0
  7  9  1  0  0  0  0
  7 11  1  0  0  0  0
  8 20  1  0  0  0  0
  9 18  1  0  0  0  0
  9 19  2  0  0  0  0
 10 12  1  0  0  0  0
 10 21  1  0  0  0  0
 10 23  2  0  0  0  0
 11 22  1  0  0  0  0
 11 24  2  0  0  0  0
 12 22  1  0  0  0  0
 13 21  1  0  0  0  0
 13 22  1  0  0  0  0
 14 18  1  0  0  0  0
 15 18  1  0  0  0  0
 16 18  1  0  0  0  0
 17 21  1  0  0  0  0
 19 20  1  0  0  0  0
  1 25  1  0  0  0  0
  2 26  1  0  0  0  0
  3 27  1  0  0  0  0
  4 28  1  0  0  0  0
  5 29  1  0  0  0  0
  6 30  1  0  0  0  0
 12 31  1  0  0  0  0
 12 32  1  0  0  0  0
 13 33  1  0  0  0  0
 13 34  1  0  0  0  0
 14 35  1  0  0  0  0
 14 36  1  0  0  0  0
 14 37  1  0  0  0  0
 15 38  1  0  0  0  0
 15 39  1  0  0  0  0
 15 40  1  0  0  0  0
 16 41  1  0  0  0  0
 16 42  1  0  0  0  0
 16 43  1  0  0  0  0
 17 44  1  0  0  0  0
 17 45  1  0  0  0  0
 17 46  1  0  0  0  0
M  END
> <idnumber>
Z1613943598

> <heavy_atoms>
24

> <LogS>
-3.263

> <LogP>
2.714

> <rotating_bonds>
3

> <PSA>
58.44

> <hb_acceptors>
3

> <hb_donors>
0

> <Collection>
HTS

> <link>
https://www.enaminestore.com/catalog/Z1613943598

> <ROCS_ShapeQuery>
_x1140_x0812_0A_x1140_0A_x1097_0A_x0365_0A_x1097_0A_x0310_0A

> <ROCS_TanimotoCombo>
0.628 

> <ROCS_ShapeTanimoto>
0.292 

> <ROCS_ColorTanimoto>
0.336 

> <ROCS_RefTversky>
0.261 

> <ROCS_RefColorTversky>
0.474 

> <ROCS_RefTverskyCombo>
0.735 

> <ROCS_FitTversky>
1.696 

> <ROCS_FitColorTversky>
0.535 

> <ROCS_FitTverskyCombo>
2.231 

> <ROCS_ColorScore>
-3.770

> <ROCS_Overlap>
2682.188

> <ROCS_Rank>
401                 

$$$$
untitled-dbase-714022_96
  -OEChem-02092421083D

 36 38  0     0  0  0  0  0  0999 V2000
    4.0993   12.9948   27.1402 C   0  0  0  0  0  0  0  0  0  0  0  0
    3.2012   12.3046   27.9543 C   0  0  0  0  0  0  0  0  0  0  0  0
    5.1176   12.3042   26.4831 C   0  0  0  0  0  0  0  0  0  0  0  0
    4.3399   10.2333   27.4543 C   0  0  0  0  0  0  0  0  0  0  0  0
    8.3494   12.3207   23.9961 C   0  0  0  0  0  0  0  0  0  0  0  0
    3.3215   10.9239   28.1114 C   0  0  0  0  0  0  0  0  0  0  0  0
    5.2380   10.9235   26.6402 C   0  0  0  0  0  0  0  0  0  0  0  0
    9.2608   11.4348   23.4588 C   0  0  0  0  0  0  0  0  0  0  0  0
    9.0969   10.1143   23.8247 C   0  0  0  0  0  0  0  0  0  0  0  0
    7.2965   10.6411   25.1084 C   0  0  0  0  0  0  0  0  0  0  0  0
    9.7822    8.0227   21.0233 C   0  0  0  0  0  0  0  0  0  0  0  0
   10.5657    7.0943   21.9057 C   0  0  0  0  0  0  0  0  0  0  0  0
    9.5756    8.0478   22.5109 C   0  0  0  0  0  0  0  0  0  0  0  0
    2.3616   10.1865   28.9824 C   0  0  0  0  0  0  0  0  0  0  0  0
    7.3509   11.9570   24.8274 N   0  0  0  0  0  0  0  0  0  0  0  0
    8.1222    9.6808   24.6507 N   0  0  0  0  0  0  0  0  0  0  0  0
    6.2674   10.2252   25.9754 N   0  0  0  0  0  0  0  0  0  0  0  0
    9.9999    9.1518   23.3085 N   0  0  0  0  0  0  0  0  0  0  0  0
   10.2866   11.8876   22.5902 N   0  3  0  0  0  0  0  0  0  0  0  0
   11.3882   12.2396   23.0792 O   0  5  0  0  0  0  0  0  0  0  0  0
   10.0667   11.9254   21.3546 O   0  0  0  0  0  0  0  0  0  0  0  0
    4.0055   14.0701   27.0178 H   0  0  0  0  0  0  0  0  0  0  0  0
    2.4107   12.8509   28.4625 H   0  0  0  0  0  0  0  0  0  0  0  0
    5.8119   12.8519   25.8509 H   0  0  0  0  0  0  0  0  0  0  0  0
    4.4321    9.1566   27.5777 H   0  0  0  0  0  0  0  0  0  0  0  0
    8.3885   13.3830   23.7732 H   0  0  0  0  0  0  0  0  0  0  0  0
   10.3133    8.8463   20.5624 H   0  0  0  0  0  0  0  0  0  0  0  0
    8.9970    7.5951   20.4120 H   0  0  0  0  0  0  0  0  0  0  0  0
   10.3075    6.0428   21.8871 H   0  0  0  0  0  0  0  0  0  0  0  0
   11.6221    7.2960   22.0349 H   0  0  0  0  0  0  0  0  0  0  0  0
    8.6495    7.6220   22.8812 H   0  0  0  0  0  0  0  0  0  0  0  0
    1.4955    9.8517   28.3985 H   0  0  0  0  0  0  0  0  0  0  0  0
    2.8333    9.3072   29.4403 H   0  0  0  0  0  0  0  0  0  0  0  0
    2.0032   10.8189   29.8051 H   0  0  0  0  0  0  0  0  0  0  0  0
    6.2647    9.2260   26.1581 H   0  0  0  0  0  0  0  0  0  0  0  0
   10.9658    9.2795   23.5313 H   0  0  0  0  0  0  0  0  0  0  0  0
  1  2  2  0  0  0  0
  1  3  1  0  0  0  0
  2  6  1  0  0  0  0
  3  7  2  0  0  0  0
  4  6  2  0  0  0  0
  4  7  1  0  0  0  0
  5  8  1  0  0  0  0
  5 15  2  0  0  0  0
  6 14  1  0  0  0  0
  7 17  1  0  0  0  0
  8  9  2  0  0  0  0
  8 19  1  0  0  0  0
  9 16  1  0  0  0  0
  9 18  1  0  0  0  0
 10 15  1  0  0  0  0
 10 16  2  0  0  0  0
 10 17  1  0  0  0  0
 11 12  1  0  0  0  0
 11 13  1  0  0  0  0
 12 13  1  0  0  0  0
 13 18  1  0  0  0  0
 19 20  1  0  0  0  0
 19 21  2  0  0  0  0
  1 22  1  0  0  0  0
  2 23  1  0  0  0  0
  3 24  1  0  0  0  0
  4 25  1  0  0  0  0
  5 26  1  0  0  0  0
 11 27  1  0  0  0  0
 11 28  1  0  0  0  0
 12 29  1  0  0  0  0
 12 30  1  0  0  0  0
 13 31  1  0  0  0  0
 14 32  1  0  0  0  0
 14 33  1  0  0  0  0
 14 34  1  0  0  0  0
 17 35  1  0  0  0  0
 18 36  1  0  0  0  0
M  CHG  2  19   1  20  -1
M  END
> <idnumber>
Z354262604

> <heavy_atoms>
21

> <LogS>
-4.64

> <LogP>
4.376

> <rotating_bonds>
5

> <PSA>
92.98

> <hb_acceptors>
6

> <hb_donors>
2

> <Collection>
Legacy

> <link>
https://www.enaminestore.com/catalog/Z354262604

> <ROCS_ShapeQuery>
_x1140_x0812_0A_x1140_0A_x1097_0A_x0365_0A_x1097_0A_x0310_0A

> <ROCS_TanimotoCombo>
0.628 

> <ROCS_ShapeTanimoto>
0.256 

> <ROCS_ColorTanimoto>
0.372 

> <ROCS_RefTversky>
0.233 

> <ROCS_RefColorTversky>
0.543 

> <ROCS_RefTverskyCombo>
0.775 

> <ROCS_FitTversky>
1.652 

> <ROCS_FitColorTversky>
0.541 

> <ROCS_FitTverskyCombo>
2.193 

> <ROCS_ColorScore>
-4.342

> <ROCS_Overlap>
2389.475

> <ROCS_Rank>
402                 

$$$$
untitled-dbase-723162_143
  -OEChem-02092421083D

 40 42  0     0  0  0  0  0  0999 V2000
   10.9978   17.9370   22.6207 C   0  0  0  0  0  0  0  0  0  0  0  0
   10.1372   15.8897   21.6974 C   0  0  0  0  0  0  0  0  0  0  0  0
   12.1316   17.2310   22.9892 C   0  0  0  0  0  0  0  0  0  0  0  0
    9.9862   17.2462   21.9629 C   0  0  0  0  0  0  0  0  0  0  0  0
    9.0605   11.3162   23.3238 C   0  0  0  0  0  0  0  0  0  0  0  0
   11.3097   15.2754   22.1070 C   0  0  0  0  0  0  0  0  0  0  0  0
    9.0163    9.9586   23.5374 C   0  0  0  0  0  0  0  0  0  0  0  0
    7.7777   10.8037   25.0606 C   0  0  0  0  0  0  0  0  0  0  0  0
    6.9173   11.1312   26.1491 C   0  0  0  0  0  0  0  0  0  0  0  0
    6.6137   12.4201   26.3983 C   0  0  0  0  0  0  0  0  0  0  0  0
    7.9595   13.1975   24.5478 C   0  0  0  0  0  0  0  0  0  0  0  0
    7.1473   13.4958   25.5756 C   0  0  0  0  0  0  0  0  0  0  0  0
    9.7679   12.0413   22.3149 C   0  0  0  0  0  0  0  0  0  0  0  0
    8.7445   17.9578   21.5446 C   0  0  0  0  0  0  0  0  0  0  0  0
   11.2133    9.0472   22.7443 C   0  0  0  0  0  0  0  0  0  0  0  0
    9.6881    8.8887   22.7813 C   0  0  0  0  0  0  0  0  0  0  0  0
   11.5070   13.8118   21.8371 C   0  0  0  0  0  0  0  0  0  0  0  0
   12.3143   15.9134   22.7485 N   0  0  0  0  0  0  0  0  0  0  0  0
    8.2224    9.6475   24.6120 N   0  0  0  0  0  0  0  0  0  0  0  0
    8.2665   11.8619   24.2997 N   0  0  0  0  0  0  0  0  0  0  0  0
   10.7284   12.9869   22.7327 N   0  0  0  0  0  0  0  0  0  0  0  0
    9.5336   11.8636   21.0933 O   0  0  0  0  0  0  0  0  0  0  0  0
    6.7203   15.1194   25.9465 Cl  0  0  0  0  0  0  0  0  0  0  0  0
   10.9105   18.9953   22.8419 H   0  0  0  0  0  0  0  0  0  0  0  0
    9.3604   15.3310   21.1850 H   0  0  0  0  0  0  0  0  0  0  0  0
   12.9496   17.7239   23.5045 H   0  0  0  0  0  0  0  0  0  0  0  0
    6.5153   10.3359   26.7669 H   0  0  0  0  0  0  0  0  0  0  0  0
    5.9590   12.6722   27.2264 H   0  0  0  0  0  0  0  0  0  0  0  0
    8.3924   13.9466   23.8949 H   0  0  0  0  0  0  0  0  0  0  0  0
    8.8601   18.3660   20.5330 H   0  0  0  0  0  0  0  0  0  0  0  0
    7.8775   17.2843   21.5507 H   0  0  0  0  0  0  0  0  0  0  0  0
    8.5090   18.7842   22.2282 H   0  0  0  0  0  0  0  0  0  0  0  0
   11.4909   10.0240   22.3339 H   0  0  0  0  0  0  0  0  0  0  0  0
   11.6801    8.2744   22.1255 H   0  0  0  0  0  0  0  0  0  0  0  0
   11.6343    8.9744   23.7528 H   0  0  0  0  0  0  0  0  0  0  0  0
    9.4543    7.8899   23.2018 H   0  0  0  0  0  0  0  0  0  0  0  0
    9.3198    8.8410   21.7366 H   0  0  0  0  0  0  0  0  0  0  0  0
   11.2136   13.5654   20.8108 H   0  0  0  0  0  0  0  0  0  0  0  0
   12.5589   13.5294   21.9513 H   0  0  0  0  0  0  0  0  0  0  0  0
   10.8452   13.1483   23.7277 H   0  0  0  0  0  0  0  0  0  0  0  0
  1  3  2  0  0  0  0
  1  4  1  0  0  0  0
  2  4  2  0  0  0  0
  2  6  1  0  0  0  0
  3 18  1  0  0  0  0
  4 14  1  0  0  0  0
  5  7  2  0  0  0  0
  5 13  1  0  0  0  0
  5 20  1  0  0  0  0
  6 17  1  0  0  0  0
  6 18  2  0  0  0  0
  7 16  1  0  0  0  0
  7 19  1  0  0  0  0
  8  9  1  0  0  0  0
  8 19  2  0  0  0  0
  8 20  1  0  0  0  0
  9 10  2  0  0  0  0
 10 12  1  0  0  0  0
 11 12  2  0  0  0  0
 11 20  1  0  0  0  0
 12 23  1  0  0  0  0
 13 21  1  0  0  0  0
 13 22  2  0  0  0  0
 15 16  1  0  0  0  0
 17 21  1  0  0  0  0
  1 24  1  0  0  0  0
  2 25  1  0  0  0  0
  3 26  1  0  0  0  0
  9 27  1  0  0  0  0
 10 28  1  0  0  0  0
 11 29  1  0  0  0  0
 14 30  1  0  0  0  0
 14 31  1  0  0  0  0
 14 32  1  0  0  0  0
 15 33  1  0  0  0  0
 15 34  1  0  0  0  0
 15 35  1  0  0  0  0
 16 36  1  0  0  0  0
 16 37  1  0  0  0  0
 17 38  1  0  0  0  0
 17 39  1  0  0  0  0
 21 40  1  0  0  0  0
M  END
> <idnumber>
Z2231926593

> <heavy_atoms>
23

> <LogS>
-4.054

> <LogP>
3.348

> <rotating_bonds>
4

> <PSA>
59.29

> <hb_acceptors>
3

> <hb_donors>
1

> <Collection>
Advanced

> <link>
https://www.enaminestore.com/catalog/Z2231926593

> <ROCS_ShapeQuery>
_x1140_x0812_0A_x1140_0A_x1097_0A_x0365_0A_x1097_0A_x0310_0A

> <ROCS_TanimotoCombo>
0.628 

> <ROCS_ShapeTanimoto>
0.282 

> <ROCS_ColorTanimoto>
0.346 

> <ROCS_RefTversky>
0.253 

> <ROCS_RefColorTversky>
0.543 

> <ROCS_RefTverskyCombo>
0.796 

> <ROCS_FitTversky>
1.699 

> <ROCS_FitColorTversky>
0.488 

> <ROCS_FitTverskyCombo>
2.186 

> <ROCS_ColorScore>
-4.374

> <ROCS_Overlap>
2597.143

> <ROCS_Rank>
403                 

$$$$
untitled-dbase-808510_10
  -OEChem-02092421083D

 23 24  0     0  0  0  0  0  0999 V2000
   11.8488   15.2157   22.3410 C   0  0  0  0  0  0  0  0  0  0  0  0
    8.1679   13.4030   24.9275 C   0  0  0  0  0  0  0  0  0  0  0  0
    7.3677   13.6414   26.0533 C   0  0  0  0  0  0  0  0  0  0  0  0
    7.0078   11.2560   26.3907 C   0  0  0  0  0  0  0  0  0  0  0  0
    8.9212   10.0817   23.6559 C   0  0  0  0  0  0  0  0  0  0  0  0
    8.3908   12.0737   24.5278 C   0  0  0  0  0  0  0  0  0  0  0  0
    9.1110   11.4335   23.4850 C   0  0  0  0  0  0  0  0  0  0  0  0
    7.8072   11.0505   25.2678 C   0  0  0  0  0  0  0  0  0  0  0  0
    6.7992   12.5854   26.7702 C   0  0  0  0  0  0  0  0  0  0  0  0
    9.8934   12.0237   22.4392 C   0  0  0  0  0  0  0  0  0  0  0  0
   11.3313   13.9816   21.7528 C   0  0  0  0  0  0  0  0  0  0  0  0
   12.2616   16.1959   22.8050 N   0  0  0  0  0  0  0  0  0  0  0  0
   10.5291   13.2524   22.7085 N   0  0  0  0  0  0  0  0  0  0  0  0
    9.9948   11.4789   21.3136 O   0  0  0  0  0  0  0  0  0  0  0  0
    8.1319    9.8390   24.7348 O   0  0  0  0  0  0  0  0  0  0  0  0
    6.0401   12.8520   27.8423 F   0  0  0  0  0  0  0  0  0  0  0  0
    8.6022   14.2345   24.3810 H   0  0  0  0  0  0  0  0  0  0  0  0
    7.1876   14.6644   26.3730 H   0  0  0  0  0  0  0  0  0  0  0  0
    6.5699   10.4322   26.9413 H   0  0  0  0  0  0  0  0  0  0  0  0
    9.2617    9.2048   23.1242 H   0  0  0  0  0  0  0  0  0  0  0  0
   10.7007   14.1930   20.8845 H   0  0  0  0  0  0  0  0  0  0  0  0
   12.1460   13.3246   21.4354 H   0  0  0  0  0  0  0  0  0  0  0  0
   10.3713   13.6921   23.6094 H   0  0  0  0  0  0  0  0  0  0  0  0
  1 11  1  0  0  0  0
  1 12  3  0  0  0  0
  2  3  2  0  0  0  0
  2  6  1  0  0  0  0
  3  9  1  0  0  0  0
  4  8  1  0  0  0  0
  4  9  2  0  0  0  0
  5  7  2  0  0  0  0
  5 15  1  0  0  0  0
  6  7  1  0  0  0  0
  6  8  2  0  0  0  0
  7 10  1  0  0  0  0
  8 15  1  0  0  0  0
  9 16  1  0  0  0  0
 10 13  1  0  0  0  0
 10 14  2  0  0  0  0
 11 13  1  0  0  0  0
  2 17  1  0  0  0  0
  3 18  1  0  0  0  0
  4 19  1  0  0  0  0
  5 20  1  0  0  0  0
 11 21  1  0  0  0  0
 11 22  1  0  0  0  0
 13 23  1  0  0  0  0
M  END
> <idnumber>
Z1951386268

> <heavy_atoms>
16

> <LogS>
-3.049

> <LogP>
1.084

> <rotating_bonds>
2

> <PSA>
66.03

> <hb_acceptors>
2

> <hb_donors>
1

> <Collection>
Functional

> <link>
https://www.enaminestore.com/catalog/Z1951386268

> <ROCS_ShapeQuery>
_x1140_x0812_0A_x1140_0A_x1097_0A_x0365_0A_x1097_0A_x0310_0A

> <ROCS_TanimotoCombo>
0.628 

> <ROCS_ShapeTanimoto>
0.247 

> <ROCS_ColorTanimoto>
0.381 

> <ROCS_RefTversky>
0.222 

> <ROCS_RefColorTversky>
0.490 

> <ROCS_RefTverskyCombo>
0.711 

> <ROCS_FitTversky>
1.851 

> <ROCS_FitColorTversky>
0.632 

> <ROCS_FitTverskyCombo>
2.483 

> <ROCS_ColorScore>
-3.868

> <ROCS_Overlap>
2274.158

> <ROCS_Rank>
404                 

$$$$
untitled-dbase-792250_59
  -OEChem-02092421083D

 46 48  0     1  0  0  0  0  0999 V2000
    7.6308   12.8271   30.1332 C   0  0  0  0  0  0  0  0  0  0  0  0
    6.5897   13.4982   29.4920 C   0  0  0  0  0  0  0  0  0  0  0  0
    7.9794   11.5368   29.7340 C   0  0  0  0  0  0  0  0  0  0  0  0
    8.1310   12.5074   24.0510 C   0  0  0  0  0  0  0  0  0  0  0  0
    5.8970   12.8790   28.4516 C   0  0  0  0  0  0  0  0  0  0  0  0
    7.2868   10.9176   28.6936 C   0  0  0  0  0  0  0  0  0  0  0  0
    7.2596   11.9812   24.9981 C   0  0  0  0  0  0  0  0  0  0  0  0
    8.8704   10.2966   23.5792 C   0  0  0  0  0  0  0  0  0  0  0  0
    8.9552   11.6558   23.3238 C   0  0  0  0  0  0  0  0  0  0  0  0
    6.2455   11.5887   28.0523 C   0  0  0  0  0  0  0  0  0  0  0  0
    7.2506   10.6074   25.1785 C   0  0  0  0  0  0  0  0  0  0  0  0
    9.8839   12.1807   22.3161 C   0  0  0  0  0  0  0  0  0  0  0  0
   10.6384   14.1023   23.8116 C   0  0  0  0  0  0  0  0  0  0  0  0
   10.8298   14.2472   21.3434 C   0  0  0  0  0  0  0  0  0  0  0  0
   12.1279   14.2473   24.0866 C   0  0  0  0  0  0  0  0  0  0  0  0
   12.3425   14.4089   21.3215 C   0  0  0  0  0  0  0  0  0  0  0  0
    4.2869   10.1214   27.4173 C   0  0  0  0  0  0  0  0  0  0  0  0
    5.4942   10.9161   26.9237 C   0  0  2  0  0  0  0  0  0  0  0  0
    8.0363    9.7485   24.4912 N   0  0  0  0  0  0  0  0  0  0  0  0
   10.4051   13.4637   22.5068 N   0  0  0  0  0  0  0  0  0  0  0  0
    6.3582   10.0869   26.1484 N   0  0  0  0  0  0  0  0  0  0  0  0
   10.1380   11.4345   21.3720 O   0  0  0  0  0  0  0  0  0  0  0  0
   14.3585   14.9630   22.9057 O   0  0  0  0  0  0  0  0  0  0  0  0
   12.3993   16.5497   22.8461 O   0  0  0  0  0  0  0  0  0  0  0  0
   12.9316   15.2014   22.8089 S   0  0  0  0  0  0  0  0  0  0  0  0
    8.1710   13.3099   30.9424 H   0  0  0  0  0  0  0  0  0  0  0  0
    6.3188   14.5033   29.8019 H   0  0  0  0  0  0  0  0  0  0  0  0
    8.7907   11.0145   30.2322 H   0  0  0  0  0  0  0  0  0  0  0  0
    8.1608   13.5814   23.8889 H   0  0  0  0  0  0  0  0  0  0  0  0
    5.0870   13.4094   27.9578 H   0  0  0  0  0  0  0  0  0  0  0  0
    7.5652    9.9121   28.3894 H   0  0  0  0  0  0  0  0  0  0  0  0
    6.6124   12.6384   25.5701 H   0  0  0  0  0  0  0  0  0  0  0  0
    9.4883    9.5817   23.0441 H   0  0  0  0  0  0  0  0  0  0  0  0
   10.1736   13.5311   24.6191 H   0  0  0  0  0  0  0  0  0  0  0  0
   10.1491   15.0830   23.7886 H   0  0  0  0  0  0  0  0  0  0  0  0
   10.3290   15.2206   21.3957 H   0  0  0  0  0  0  0  0  0  0  0  0
   10.5030   13.7593   20.4194 H   0  0  0  0  0  0  0  0  0  0  0  0
   12.3012   14.7673   25.0337 H   0  0  0  0  0  0  0  0  0  0  0  0
   12.6199   13.2701   24.1297 H   0  0  0  0  0  0  0  0  0  0  0  0
   12.8434   13.4385   21.2429 H   0  0  0  0  0  0  0  0  0  0  0  0
   12.6561   15.0318   20.4786 H   0  0  0  0  0  0  0  0  0  0  0  0
    4.5911    9.3367   28.1186 H   0  0  0  0  0  0  0  0  0  0  0  0
    3.5780   10.7800   27.9317 H   0  0  0  0  0  0  0  0  0  0  0  0
    3.7441    9.6459   26.5927 H   0  0  0  0  0  0  0  0  0  0  0  0
    5.1275   11.6821   26.2293 H   0  0  0  0  0  0  0  0  0  0  0  0
    6.3592    9.0949   26.2711 H   0  0  0  0  0  0  0  0  0  0  0  0
  1  2  1  0  0  0  0
  1  3  2  0  0  0  0
  2  5  2  0  0  0  0
  3  6  1  0  0  0  0
  4  7  2  0  0  0  0
  4  9  1  0  0  0  0
  5 10  1  0  0  0  0
  6 10  2  0  0  0  0
  7 11  1  0  0  0  0
  8  9  2  0  0  0  0
  8 19  1  0  0  0  0
  9 12  1  0  0  0  0
 10 18  1  0  0  0  0
 11 19  2  0  0  0  0
 11 21  1  0  0  0  0
 12 20  1  0  0  0  0
 12 22  2  0  0  0  0
 13 15  1  0  0  0  0
 13 20  1  0  0  0  0
 14 16  1  0  0  0  0
 14 20  1  0  0  0  0
 15 25  1  0  0  0  0
 16 25  1  0  0  0  0
 17 18  1  1  0  0  0
 18 21  1  0  0  0  0
 23 25  2  0  0  0  0
 24 25  2  0  0  0  0
  1 26  1  0  0  0  0
  2 27  1  0  0  0  0
  3 28  1  0  0  0  0
  4 29  1  0  0  0  0
  5 30  1  0  0  0  0
  6 31  1  0  0  0  0
  7 32  1  0  0  0  0
  8 33  1  0  0  0  0
 13 34  1  0  0  0  0
 13 35  1  0  0  0  0
 14 36  1  0  0  0  0
 14 37  1  0  0  0  0
 15 38  1  0  0  0  0
 15 39  1  0  0  0  0
 16 40  1  0  0  0  0
 16 41  1  0  0  0  0
 17 42  1  0  0  0  0
 17 43  1  0  0  0  0
 17 44  1  0  0  0  0
 18 45  1  0  0  0  0
 21 46  1  0  0  0  0
M  END
> <idnumber>
Z1815673619

> <heavy_atoms>
25

> <LogS>
-3.418

> <LogP>
1.019

> <rotating_bonds>
4

> <PSA>
79.37

> <hb_acceptors>
5

> <hb_donors>
1

> <Collection>
HTS

> <link>
https://www.enaminestore.com/catalog/Z1815673619

> <ROCS_ShapeQuery>
_x1140_x0812_0A_x1140_0A_x1097_0A_x0365_0A_x1097_0A_x0310_0A

> <ROCS_TanimotoCombo>
0.628 

> <ROCS_ShapeTanimoto>
0.244 

> <ROCS_ColorTanimoto>
0.384 

> <ROCS_RefTversky>
0.227 

> <ROCS_RefColorTversky>
0.555 

> <ROCS_RefTverskyCombo>
0.781 

> <ROCS_FitTversky>
1.470 

> <ROCS_FitColorTversky>
0.554 

> <ROCS_FitTverskyCombo>
2.024 

> <ROCS_ColorScore>
-4.437

> <ROCS_Overlap>
2327.855

> <ROCS_Rank>
405                 

$$$$
untitled-dbase-24502_14
  -OEChem-02092421083D

 22 22  0     0  0  0  0  0  0999 V2000
    8.3139   12.4996   25.3973 C   0  0  0  0  0  0  0  0  0  0  0  0
    9.1543   12.2433   24.3197 C   0  0  0  0  0  0  0  0  0  0  0  0
    7.5476   10.2519   25.2675 C   0  0  0  0  0  0  0  0  0  0  0  0
    7.4921   11.4903   25.8863 C   0  0  0  0  0  0  0  0  0  0  0  0
    9.1357   10.9710   23.7712 C   0  0  0  0  0  0  0  0  0  0  0  0
   10.0063   10.6426   22.6271 C   0  0  0  0  0  0  0  0  0  0  0  0
   11.8021    9.3482   21.4576 C   0  0  0  0  0  0  0  0  0  0  0  0
   10.3697    8.2113   23.1744 C   0  0  0  0  0  0  0  0  0  0  0  0
   11.0461    9.5237   22.7714 C   0  0  0  0  0  0  0  0  0  0  0  0
    8.3511    9.9652   24.2188 N   0  0  0  0  0  0  0  0  0  0  0  0
    9.9294   11.2515   21.5564 O   0  0  0  0  0  0  0  0  0  0  0  0
    6.6734   11.7089   26.9215 F   0  0  0  0  0  0  0  0  0  0  0  0
    8.2990   13.4839   25.8553 H   0  0  0  0  0  0  0  0  0  0  0  0
    9.8000   13.0229   23.9295 H   0  0  0  0  0  0  0  0  0  0  0  0
    6.9263    9.4315   25.6112 H   0  0  0  0  0  0  0  0  0  0  0  0
   11.1187    9.0998   20.6378 H   0  0  0  0  0  0  0  0  0  0  0  0
   12.5422    8.5453   21.5386 H   0  0  0  0  0  0  0  0  0  0  0  0
   12.3294   10.2643   21.1733 H   0  0  0  0  0  0  0  0  0  0  0  0
    9.6513    7.8955   22.4107 H   0  0  0  0  0  0  0  0  0  0  0  0
    9.8314    8.3082   24.1238 H   0  0  0  0  0  0  0  0  0  0  0  0
   11.1111    7.4136   23.2933 H   0  0  0  0  0  0  0  0  0  0  0  0
   11.7434    9.7712   23.5781 H   0  0  0  0  0  0  0  0  0  0  0  0
  1  2  2  0  0  0  0
  1  4  1  0  0  0  0
  2  5  1  0  0  0  0
  3  4  2  0  0  0  0
  3 10  1  0  0  0  0
  4 12  1  0  0  0  0
  5  6  1  0  0  0  0
  5 10  2  0  0  0  0
  6  9  1  0  0  0  0
  6 11  2  0  0  0  0
  7  9  1  0  0  0  0
  8  9  1  0  0  0  0
  1 13  1  0  0  0  0
  2 14  1  0  0  0  0
  3 15  1  0  0  0  0
  7 16  1  0  0  0  0
  7 17  1  0  0  0  0
  7 18  1  0  0  0  0
  8 19  1  0  0  0  0
  8 20  1  0  0  0  0
  8 21  1  0  0  0  0
  9 22  1  0  0  0  0
M  END
> <idnumber>
Z1341677118

> <heavy_atoms>
12

> <LogS>
-2.01

> <LogP>
1.898

> <rotating_bonds>
2

> <PSA>
29.96

> <hb_acceptors>
2

> <hb_donors>
0

> <Collection>
Legacy

> <link>
https://www.enaminestore.com/catalog/Z1341677118

> <ROCS_ShapeQuery>
_x1140_x0812_0A_x1140_0A_x1097_0A_x0365_0A_x1097_0A_x0310_0A

> <ROCS_TanimotoCombo>
0.628 

> <ROCS_ShapeTanimoto>
0.203 

> <ROCS_ColorTanimoto>
0.425 

> <ROCS_RefTversky>
0.186 

> <ROCS_RefColorTversky>
0.459 

> <ROCS_RefTverskyCombo>
0.644 

> <ROCS_FitTversky>
1.846 

> <ROCS_FitColorTversky>
0.852 

> <ROCS_FitTverskyCombo>
2.698 

> <ROCS_ColorScore>
-3.579

> <ROCS_Overlap>
1902.018

> <ROCS_Rank>
406                 

$$$$
untitled-dbase-185689_68
  -OEChem-02092421083D

 33 34  0     0  0  0  0  0  0999 V2000
   10.4010   16.4581   21.6983 C   0  0  0  0  0  0  0  0  0  0  0  0
    8.8338   12.4066   24.2661 C   0  0  0  0  0  0  0  0  0  0  0  0
   10.6953   15.1143   21.4959 C   0  0  0  0  0  0  0  0  0  0  0  0
    7.9520   12.1068   25.2984 C   0  0  0  0  0  0  0  0  0  0  0  0
   11.3289   17.2298   22.3789 C   0  0  0  0  0  0  0  0  0  0  0  0
    8.9105   10.0910   23.7288 C   0  0  0  0  0  0  0  0  0  0  0  0
   12.7528   15.4462   22.6417 C   0  0  0  0  0  0  0  0  0  0  0  0
    9.3269   11.3853   23.4617 C   0  0  0  0  0  0  0  0  0  0  0  0
   11.8916   14.5907   21.9736 C   0  0  0  0  0  0  0  0  0  0  0  0
    7.5970   10.7802   25.4832 C   0  0  0  0  0  0  0  0  0  0  0  0
   10.2608   11.6693   22.3606 C   0  0  0  0  0  0  0  0  0  0  0  0
   12.0920   12.0308   23.9700 C   0  0  0  0  0  0  0  0  0  0  0  0
   12.2386   13.1442   21.7706 C   0  0  0  0  0  0  0  0  0  0  0  0
    6.6538   10.4220   26.5830 C   0  0  0  0  0  0  0  0  0  0  0  0
   12.5013   16.7568   22.8576 N   0  0  0  0  0  0  0  0  0  0  0  0
    8.0552    9.7610   24.7224 N   0  0  0  0  0  0  0  0  0  0  0  0
   11.4860   12.2702   22.6678 N   0  0  0  0  0  0  0  0  0  0  0  0
    9.8914   11.3387   21.2344 O   0  0  0  0  0  0  0  0  0  0  0  0
    6.2317   11.4964   27.3125 F   0  0  0  0  0  0  0  0  0  0  0  0
    5.5108    9.8162   26.1458 F   0  0  0  0  0  0  0  0  0  0  0  0
    7.2044    9.5593   27.4854 F   0  0  0  0  0  0  0  0  0  0  0  0
    9.4747   16.8878   21.3345 H   0  0  0  0  0  0  0  0  0  0  0  0
    9.1300   13.4383   24.0968 H   0  0  0  0  0  0  0  0  0  0  0  0
    9.9874   14.4833   20.9654 H   0  0  0  0  0  0  0  0  0  0  0  0
    7.5589   12.8939   25.9330 H   0  0  0  0  0  0  0  0  0  0  0  0
   11.1460   18.2835   22.5627 H   0  0  0  0  0  0  0  0  0  0  0  0
    9.2614    9.2516   23.1358 H   0  0  0  0  0  0  0  0  0  0  0  0
   13.7008   15.0945   23.0368 H   0  0  0  0  0  0  0  0  0  0  0  0
   12.7449   11.1472   23.9144 H   0  0  0  0  0  0  0  0  0  0  0  0
   12.6868   12.9080   24.2643 H   0  0  0  0  0  0  0  0  0  0  0  0
   11.3021   11.8565   24.7155 H   0  0  0  0  0  0  0  0  0  0  0  0
   12.0239   12.8364   20.7414 H   0  0  0  0  0  0  0  0  0  0  0  0
   13.3047   12.9673   21.9472 H   0  0  0  0  0  0  0  0  0  0  0  0
  1  3  2  0  0  0  0
  1  5  1  0  0  0  0
  2  4  2  0  0  0  0
  2  8  1  0  0  0  0
  3  9  1  0  0  0  0
  4 10  1  0  0  0  0
  5 15  2  0  0  0  0
  6  8  2  0  0  0  0
  6 16  1  0  0  0  0
  7  9  2  0  0  0  0
  7 15  1  0  0  0  0
  8 11  1  0  0  0  0
  9 13  1  0  0  0  0
 10 14  1  0  0  0  0
 10 16  2  0  0  0  0
 11 17  1  0  0  0  0
 11 18  2  0  0  0  0
 12 17  1  0  0  0  0
 13 17  1  0  0  0  0
 14 19  1  0  0  0  0
 14 20  1  0  0  0  0
 14 21  1  0  0  0  0
  1 22  1  0  0  0  0
  2 23  1  0  0  0  0
  3 24  1  0  0  0  0
  4 25  1  0  0  0  0
  5 26  1  0  0  0  0
  6 27  1  0  0  0  0
  7 28  1  0  0  0  0
 12 29  1  0  0  0  0
 12 30  1  0  0  0  0
 12 31  1  0  0  0  0
 13 32  1  0  0  0  0
 13 33  1  0  0  0  0
M  END
> <idnumber>
Z246858130

> <heavy_atoms>
21

> <LogS>
-2.527

> <LogP>
1.145

> <rotating_bonds>
4

> <PSA>
46.09

> <hb_acceptors>
3

> <hb_donors>
0

> <Collection>
Legacy

> <link>
https://www.enaminestore.com/catalog/Z246858130

> <ROCS_ShapeQuery>
_x1140_x0812_0A_x1140_0A_x1097_0A_x0365_0A_x1097_0A_x0310_0A

> <ROCS_TanimotoCombo>
0.628 

> <ROCS_ShapeTanimoto>
0.251 

> <ROCS_ColorTanimoto>
0.377 

> <ROCS_RefTversky>
0.229 

> <ROCS_RefColorTversky>
0.453 

> <ROCS_RefTverskyCombo>
0.682 

> <ROCS_FitTversky>
1.627 

> <ROCS_FitColorTversky>
0.691 

> <ROCS_FitTverskyCombo>
2.318 

> <ROCS_ColorScore>
-3.559

> <ROCS_Overlap>
2348.831

> <ROCS_Rank>
407                 

$$$$
untitled-dbase-1087602_2
  -OEChem-02092421083D

 24 25  0     0  0  0  0  0  0999 V2000
    8.5098   12.5720   24.7636 C   0  0  0  0  0  0  0  0  0  0  0  0
    7.4790   11.9725   25.4787 C   0  0  0  0  0  0  0  0  0  0  0  0
    9.3134   11.7989   23.9330 C   0  0  0  0  0  0  0  0  0  0  0  0
    7.2947   10.6074   25.3297 C   0  0  0  0  0  0  0  0  0  0  0  0
    9.0471   10.4415   23.8533 C   0  0  0  0  0  0  0  0  0  0  0  0
   10.5133   10.0719   21.8439 C   0  0  0  0  0  0  0  0  0  0  0  0
   10.8662    7.5509   21.5227 C   0  0  0  0  0  0  0  0  0  0  0  0
   10.6530    8.1412   20.1614 C   0  0  0  0  0  0  0  0  0  0  0  0
   11.3009    8.9407   21.2320 C   0  0  0  0  0  0  0  0  0  0  0  0
    8.0549    9.8236   24.5326 N   0  0  0  0  0  0  0  0  0  0  0  0
    6.2402   10.0111   26.0650 N   0  0  0  0  0  0  0  0  0  0  0  0
    9.8618    9.6716   23.0146 N   0  0  0  0  0  0  0  0  0  0  0  0
   10.4979   11.1815   21.3208 O   0  0  0  0  0  0  0  0  0  0  0  0
    8.6865   13.6396   24.8534 H   0  0  0  0  0  0  0  0  0  0  0  0
    6.8470   12.5683   26.1292 H   0  0  0  0  0  0  0  0  0  0  0  0
   10.1201   12.2588   23.3714 H   0  0  0  0  0  0  0  0  0  0  0  0
    9.9921    7.3740   22.1376 H   0  0  0  0  0  0  0  0  0  0  0  0
   11.6496    6.8113   21.6351 H   0  0  0  0  0  0  0  0  0  0  0  0
   11.2926    7.7986   19.3571 H   0  0  0  0  0  0  0  0  0  0  0  0
    9.6350    8.3586   19.8616 H   0  0  0  0  0  0  0  0  0  0  0  0
   12.3445    9.1590   21.1621 H   0  0  0  0  0  0  0  0  0  0  0  0
    5.7084   10.5777   26.6892 H   0  0  0  0  0  0  0  0  0  0  0  0
    6.1157    9.0236   26.0125 H   0  0  0  0  0  0  0  0  0  0  0  0
    9.9991    8.6949   23.2916 H   0  0  0  0  0  0  0  0  0  0  0  0
  1  2  2  0  0  0  0
  1  3  1  0  0  0  0
  2  4  1  0  0  0  0
  3  5  2  0  0  0  0
  4 10  2  0  0  0  0
  4 11  1  0  0  0  0
  5 10  1  0  0  0  0
  5 12  1  0  0  0  0
  6  9  1  0  0  0  0
  6 12  1  0  0  0  0
  6 13  2  0  0  0  0
  7  8  1  0  0  0  0
  7  9  1  0  0  0  0
  8  9  1  0  0  0  0
  1 14  1  0  0  0  0
  2 15  1  0  0  0  0
  3 16  1  0  0  0  0
  7 17  1  0  0  0  0
  7 18  1  0  0  0  0
  8 19  1  0  0  0  0
  8 20  1  0  0  0  0
  9 21  1  0  0  0  0
 11 22  1  0  0  0  0
 11 23  1  0  0  0  0
 12 24  1  0  0  0  0
M  END
> <idnumber>
Z4430134940

> <heavy_atoms>
13

> <LogS>
-2.013

> <LogP>
0.749

> <rotating_bonds>
2

> <PSA>
68.01

> <hb_acceptors>
3

> <hb_donors>
2

> <Collection>
Advanced

> <link>
https://www.enaminestore.com/catalog/Z4430134940

> <ROCS_ShapeQuery>
_x1140_x0812_0A_x1140_0A_x1097_0A_x0365_0A_x1097_0A_x0310_0A

> <ROCS_TanimotoCombo>
0.628 

> <ROCS_ShapeTanimoto>
0.198 

> <ROCS_ColorTanimoto>
0.430 

> <ROCS_RefTversky>
0.183 

> <ROCS_RefColorTversky>
0.533 

> <ROCS_RefTverskyCombo>
0.716 

> <ROCS_FitTversky>
1.728 

> <ROCS_FitColorTversky>
0.689 

> <ROCS_FitTverskyCombo>
2.418 

> <ROCS_ColorScore>
-4.209

> <ROCS_Overlap>
1874.459

> <ROCS_Rank>
408                 

$$$$
untitled-dbase-1134246_95
  -OEChem-02092421083D

 46 49  0     0  0  0  0  0  0999 V2000
   11.9488   16.0579   22.2049 C   0  0  0  0  0  0  0  0  0  0  0  0
   10.1679   16.8124   17.5498 C   0  0  0  0  0  0  0  0  0  0  0  0
   11.3391   16.0715   17.7075 C   0  0  0  0  0  0  0  0  0  0  0  0
    9.3118   17.0031   18.6345 C   0  0  0  0  0  0  0  0  0  0  0  0
   11.6542   15.5211   18.9498 C   0  0  0  0  0  0  0  0  0  0  0  0
    9.6270   16.4527   19.8768 C   0  0  0  0  0  0  0  0  0  0  0  0
    8.4010   12.4730   24.0716 C   0  0  0  0  0  0  0  0  0  0  0  0
    7.4028   11.9818   24.9057 C   0  0  0  0  0  0  0  0  0  0  0  0
    9.1228   10.2368   23.7047 C   0  0  0  0  0  0  0  0  0  0  0  0
   10.7982   15.7117   20.0345 C   0  0  0  0  0  0  0  0  0  0  0  0
    9.2814   11.5905   23.4558 C   0  0  0  0  0  0  0  0  0  0  0  0
    7.3282   10.6105   25.0896 C   0  0  0  0  0  0  0  0  0  0  0  0
    4.4648   11.0808   28.5384 C   0  0  0  0  0  0  0  0  0  0  0  0
    4.2811   10.1525   27.3159 C   0  0  0  0  0  0  0  0  0  0  0  0
    5.8969   11.3495   28.0223 C   0  0  0  0  0  0  0  0  0  0  0  0
   11.7741   13.6334   21.4715 C   0  0  0  0  0  0  0  0  0  0  0  0
    9.9795   14.4576   22.2916 C   0  0  0  0  0  0  0  0  0  0  0  0
    5.3610   11.0055   26.6156 C   0  0  0  0  0  0  0  0  0  0  0  0
   10.9507   13.3493   22.7428 C   0  0  0  0  0  0  0  0  0  0  0  0
   11.1593   15.0822   21.4576 C   0  0  0  0  0  0  0  0  0  0  0  0
   12.5759   16.8328   22.7986 N   0  0  0  0  0  0  0  0  0  0  0  0
    8.1654    9.7221   24.5086 N   0  0  0  0  0  0  0  0  0  0  0  0
   10.2965   12.0551   22.6121 N   0  0  0  0  0  0  0  0  0  0  0  0
    6.3063   10.1258   25.9437 N   0  0  0  0  0  0  0  0  0  0  0  0
    9.9226   17.2419   16.5829 H   0  0  0  0  0  0  0  0  0  0  0  0
   12.0058   15.9238   16.8627 H   0  0  0  0  0  0  0  0  0  0  0  0
    8.4003   17.5808   18.5110 H   0  0  0  0  0  0  0  0  0  0  0  0
   12.5685   14.9453   19.0653 H   0  0  0  0  0  0  0  0  0  0  0  0
    8.9552   16.6062   20.7172 H   0  0  0  0  0  0  0  0  0  0  0  0
    8.4839   13.5442   23.9080 H   0  0  0  0  0  0  0  0  0  0  0  0
    6.7118   12.6633   25.3908 H   0  0  0  0  0  0  0  0  0  0  0  0
    9.7793    9.4992   23.2529 H   0  0  0  0  0  0  0  0  0  0  0  0
    3.8163   11.9644   28.5244 H   0  0  0  0  0  0  0  0  0  0  0  0
    4.3937   10.5996   29.5168 H   0  0  0  0  0  0  0  0  0  0  0  0
    4.5595    9.1105   27.5141 H   0  0  0  0  0  0  0  0  0  0  0  0
    3.2889   10.1733   26.8573 H   0  0  0  0  0  0  0  0  0  0  0  0
    6.2589   12.3723   28.1561 H   0  0  0  0  0  0  0  0  0  0  0  0
    6.6431   10.6522   28.4220 H   0  0  0  0  0  0  0  0  0  0  0  0
   12.8600   13.5701   21.5996 H   0  0  0  0  0  0  0  0  0  0  0  0
   11.5015   13.0289   20.5963 H   0  0  0  0  0  0  0  0  0  0  0  0
    9.1373   14.1115   21.6777 H   0  0  0  0  0  0  0  0  0  0  0  0
    9.5766   15.0776   23.0994 H   0  0  0  0  0  0  0  0  0  0  0  0
    5.0258   11.8054   26.0168 H   0  0  0  0  0  0  0  0  0  0  0  0
   11.4366   13.4775   23.6688 H   0  0  0  0  0  0  0  0  0  0  0  0
   10.5813   11.4232   21.8564 H   0  0  0  0  0  0  0  0  0  0  0  0
    6.2608    9.1354   26.0698 H   0  0  0  0  0  0  0  0  0  0  0  0
  1 20  1  0  0  0  0
  1 21  3  0  0  0  0
  2  3  1  0  0  0  0
  2  4  2  0  0  0  0
  3  5  2  0  0  0  0
  4  6  1  0  0  0  0
  5 10  1  0  0  0  0
  6 10  2  0  0  0  0
  7  8  2  0  0  0  0
  7 11  1  0  0  0  0
  8 12  1  0  0  0  0
  9 11  2  0  0  0  0
  9 22  1  0  0  0  0
 10 20  1  0  0  0  0
 11 23  1  0  0  0  0
 12 22  2  0  0  0  0
 12 24  1  0  0  0  0
 13 14  1  0  0  0  0
 13 15  1  0  0  0  0
 14 18  1  0  0  0  0
 15 18  1  0  0  0  0
 16 19  1  0  0  0  0
 16 20  1  0  0  0  0
 17 19  1  0  0  0  0
 17 20  1  0  0  0  0
 18 24  1  0  0  0  0
 19 23  1  0  0  0  0
  2 25  1  0  0  0  0
  3 26  1  0  0  0  0
  4 27  1  0  0  0  0
  5 28  1  0  0  0  0
  6 29  1  0  0  0  0
  7 30  1  0  0  0  0
  8 31  1  0  0  0  0
  9 32  1  0  0  0  0
 13 33  1  0  0  0  0
 13 34  1  0  0  0  0
 14 35  1  0  0  0  0
 14 36  1  0  0  0  0
 15 37  1  0  0  0  0
 15 38  1  0  0  0  0
 16 39  1  0  0  0  0
 16 40  1  0  0  0  0
 17 41  1  0  0  0  0
 17 42  1  0  0  0  0
 18 43  1  0  0  0  0
 19 44  1  0  0  0  0
 23 45  1  0  0  0  0
 24 46  1  0  0  0  0
M  END
> <idnumber>
Z6032156791

> <heavy_atoms>
24

> <LogS>
-3.494

> <LogP>
4.408

> <rotating_bonds>
5

> <PSA>
60.74

> <hb_acceptors>
4

> <hb_donors>
2

> <Collection>
Advanced

> <link>
https://www.enaminestore.com/catalog/Z6032156791

> <ROCS_ShapeQuery>
_x1140_x0812_0A_x1140_0A_x1097_0A_x0365_0A_x1097_0A_x0310_0A

> <ROCS_TanimotoCombo>
0.628 

> <ROCS_ShapeTanimoto>
0.233 

> <ROCS_ColorTanimoto>
0.395 

> <ROCS_RefTversky>
0.218 

> <ROCS_RefColorTversky>
0.566 

> <ROCS_RefTverskyCombo>
0.784 

> <ROCS_FitTversky>
1.434 

> <ROCS_FitColorTversky>
0.566 

> <ROCS_FitTverskyCombo>
2.000 

> <ROCS_ColorScore>
-4.528

> <ROCS_Overlap>
2236.285

> <ROCS_Rank>
409                 

$$$$
untitled-dbase-951725_12
  -OEChem-02092421083D

 30 31  0     1  0  0  0  0  0999 V2000
    5.9234   12.2652   27.0583 C   0  0  0  0  0  0  0  0  0  0  0  0
    5.6876   10.8939   26.9909 C   0  0  0  0  0  0  0  0  0  0  0  0
    6.9239   12.8405   26.2744 C   0  0  0  0  0  0  0  0  0  0  0  0
    6.4569   10.0958   26.1457 C   0  0  0  0  0  0  0  0  0  0  0  0
    7.6952   12.0485   25.4133 C   0  0  0  0  0  0  0  0  0  0  0  0
    7.4679   10.6685   25.3695 C   0  0  0  0  0  0  0  0  0  0  0  0
   10.6772   12.0931   21.4660 C   0  0  0  0  0  0  0  0  0  0  0  0
    8.7703   12.6801   24.5759 C   0  0  0  0  0  0  0  0  0  0  0  0
    9.1978   11.7396   23.4448 C   0  0  2  0  0  0  0  0  0  0  0  0
    9.4021   10.3311   24.0290 C   0  0  2  0  0  0  0  0  0  0  0  0
   11.9638   12.7477   21.0319 C   0  0  0  0  0  0  0  0  0  0  0  0
    9.8681    9.3141   22.9882 C   0  0  0  0  0  0  0  0  0  0  0  0
   10.4022   12.2725   22.8130 N   0  0  0  0  0  0  0  0  0  0  0  0
    9.9602   11.4835   20.6744 O   0  0  0  0  0  0  0  0  0  0  0  0
    8.1689    9.8124   24.5622 O   0  0  0  0  0  0  0  0  0  0  0  0
    9.9608    8.0965   23.5441 F   0  0  0  0  0  0  0  0  0  0  0  0
    8.9935    9.2622   21.9721 F   0  0  0  0  0  0  0  0  0  0  0  0
   11.0709    9.6652   22.5085 F   0  0  0  0  0  0  0  0  0  0  0  0
   12.6801   13.5328   22.4481 Cl  0  0  0  0  0  0  0  0  0  0  0  0
    5.3272   12.8873   27.7195 H   0  0  0  0  0  0  0  0  0  0  0  0
    4.9060   10.4465   27.5979 H   0  0  0  0  0  0  0  0  0  0  0  0
    7.0961   13.9122   26.3349 H   0  0  0  0  0  0  0  0  0  0  0  0
    6.2675    9.0265   26.1010 H   0  0  0  0  0  0  0  0  0  0  0  0
    8.4099   13.6240   24.1487 H   0  0  0  0  0  0  0  0  0  0  0  0
    9.6230   12.9061   25.2291 H   0  0  0  0  0  0  0  0  0  0  0  0
    8.4235   11.7185   22.6796 H   0  0  0  0  0  0  0  0  0  0  0  0
   10.1383   10.3505   24.8472 H   0  0  0  0  0  0  0  0  0  0  0  0
   12.6833   12.0319   20.6269 H   0  0  0  0  0  0  0  0  0  0  0  0
   11.7480   13.5052   20.2734 H   0  0  0  0  0  0  0  0  0  0  0  0
   11.0637   12.7947   23.3824 H   0  0  0  0  0  0  0  0  0  0  0  0
  1  2  1  0  0  0  0
  1  3  2  0  0  0  0
  2  4  2  0  0  0  0
  3  5  1  0  0  0  0
  4  6  1  0  0  0  0
  5  6  2  0  0  0  0
  5  8  1  0  0  0  0
  6 15  1  0  0  0  0
  7 11  1  0  0  0  0
  7 13  1  0  0  0  0
  7 14  2  0  0  0  0
  8  9  1  0  0  0  0
  9 10  1  0  0  0  0
  9 13  1  1  0  0  0
 10 12  1  6  0  0  0
 10 15  1  0  0  0  0
 11 19  1  0  0  0  0
 12 16  1  0  0  0  0
 12 17  1  0  0  0  0
 12 18  1  0  0  0  0
  1 20  1  0  0  0  0
  2 21  1  0  0  0  0
  3 22  1  0  0  0  0
  4 23  1  0  0  0  0
  8 24  1  0  0  0  0
  8 25  1  0  0  0  0
  9 26  1  0  0  0  0
 10 27  1  0  0  0  0
 11 28  1  0  0  0  0
 11 29  1  0  0  0  0
 13 30  1  0  0  0  0
M  END
> <idnumber>
Z2763282095

> <heavy_atoms>
19

> <LogS>
-4.205

> <LogP>
2.774

> <rotating_bonds>
3

> <PSA>
38.33

> <hb_acceptors>
2

> <hb_donors>
1

> <Collection>
Functional

> <link>
https://www.enaminestore.com/catalog/Z2763282095

> <ROCS_ShapeQuery>
_x1140_x0812_0A_x1140_0A_x1097_0A_x0365_0A_x1097_0A_x0310_0A

> <ROCS_TanimotoCombo>
0.628 

> <ROCS_ShapeTanimoto>
0.291 

> <ROCS_ColorTanimoto>
0.336 

> <ROCS_RefTversky>
0.255 

> <ROCS_RefColorTversky>
0.417 

> <ROCS_RefTverskyCombo>
0.672 

> <ROCS_FitTversky>
1.946 

> <ROCS_FitColorTversky>
0.635 

> <ROCS_FitTverskyCombo>
2.581 

> <ROCS_ColorScore>
-3.273

> <ROCS_Overlap>
2619.875

> <ROCS_Rank>
410                 

$$$$
untitled-dbase-98003_60
  -OEChem-02092421083D

 31 32  0     0  0  0  0  0  0999 V2000
    8.0074   12.2496   23.8350 C   0  0  0  0  0  0  0  0  0  0  0  0
    7.0362   11.7913   24.7183 C   0  0  0  0  0  0  0  0  0  0  0  0
    8.9778   10.0783   23.8571 C   0  0  0  0  0  0  0  0  0  0  0  0
    9.0001   11.3831   23.3914 C   0  0  0  0  0  0  0  0  0  0  0  0
   12.6071   14.3021   22.5660 C   0  0  0  0  0  0  0  0  0  0  0  0
   11.8957   15.4529   22.1850 C   0  0  0  0  0  0  0  0  0  0  0  0
   13.6500   14.7939   23.3054 C   0  0  0  0  0  0  0  0  0  0  0  0
    7.1017   10.4682   25.1245 C   0  0  0  0  0  0  0  0  0  0  0  0
   10.0281   11.8316   22.4686 C   0  0  0  0  0  0  0  0  0  0  0  0
   10.6709   15.5353   21.3714 C   0  0  0  0  0  0  0  0  0  0  0  0
   14.7802   14.1761   24.0112 C   0  0  0  0  0  0  0  0  0  0  0  0
   12.3011   12.8684   22.2420 C   0  0  0  0  0  0  0  0  0  0  0  0
    8.0508    9.5968   24.7153 N   0  0  0  0  0  0  0  0  0  0  0  0
   12.4546   16.5728   22.6523 N   0  0  0  0  0  0  0  0  0  0  0  0
   11.1991   12.3599   23.0267 N   0  0  0  0  0  0  0  0  0  0  0  0
    9.8496   11.7610   21.2387 O   0  0  0  0  0  0  0  0  0  0  0  0
   13.5700   16.1478   23.3641 O   0  0  0  0  0  0  0  0  0  0  0  0
    6.1557    9.9930   25.9947 O   0  0  0  0  0  0  0  0  0  0  0  0
    7.9815   13.2826   23.4988 H   0  0  0  0  0  0  0  0  0  0  0  0
    6.2552   12.4546   25.0736 H   0  0  0  0  0  0  0  0  0  0  0  0
    9.7263    9.3555   23.5465 H   0  0  0  0  0  0  0  0  0  0  0  0
    9.7668   15.4870   22.0024 H   0  0  0  0  0  0  0  0  0  0  0  0
   10.6195   16.4722   20.7885 H   0  0  0  0  0  0  0  0  0  0  0  0
   10.6048   14.7164   20.6328 H   0  0  0  0  0  0  0  0  0  0  0  0
   15.6624   14.0765   23.3534 H   0  0  0  0  0  0  0  0  0  0  0  0
   15.0942   14.7605   24.8963 H   0  0  0  0  0  0  0  0  0  0  0  0
   14.5377   13.1659   24.3915 H   0  0  0  0  0  0  0  0  0  0  0  0
   12.0404   12.7589   21.1837 H   0  0  0  0  0  0  0  0  0  0  0  0
   13.1698   12.2288   22.4309 H   0  0  0  0  0  0  0  0  0  0  0  0
   11.2685   12.4533   24.0348 H   0  0  0  0  0  0  0  0  0  0  0  0
    5.5326   10.6985   26.2176 H   0  0  0  0  0  0  0  0  0  0  0  0
  1  2  2  0  0  0  0
  1  4  1  0  0  0  0
  2  8  1  0  0  0  0
  3  4  2  0  0  0  0
  3 13  1  0  0  0  0
  4  9  1  0  0  0  0
  5  6  1  0  0  0  0
  5  7  2  0  0  0  0
  5 12  1  0  0  0  0
  6 10  1  0  0  0  0
  6 14  2  0  0  0  0
  7 11  1  0  0  0  0
  7 17  1  0  0  0  0
  8 13  2  0  0  0  0
  8 18  1  0  0  0  0
  9 15  1  0  0  0  0
  9 16  2  0  0  0  0
 12 15  1  0  0  0  0
 14 17  1  0  0  0  0
  1 19  1  0  0  0  0
  2 20  1  0  0  0  0
  3 21  1  0  0  0  0
 10 22  1  0  0  0  0
 10 23  1  0  0  0  0
 10 24  1  0  0  0  0
 11 25  1  0  0  0  0
 11 26  1  0  0  0  0
 11 27  1  0  0  0  0
 12 28  1  0  0  0  0
 12 29  1  0  0  0  0
 15 30  1  0  0  0  0
 18 31  1  0  0  0  0
M  END
> <idnumber>
Z827751398

> <heavy_atoms>
18

> <LogS>
-1.082

> <LogP>
0.832

> <rotating_bonds>
3

> <PSA>
88.25

> <hb_acceptors>
4

> <hb_donors>
2

> <Collection>
HTS

> <link>
https://www.enaminestore.com/catalog/Z827751398

> <ROCS_ShapeQuery>
_x1140_x0812_0A_x1140_0A_x1097_0A_x0365_0A_x1097_0A_x0310_0A

> <ROCS_TanimotoCombo>
0.628 

> <ROCS_ShapeTanimoto>
0.222 

> <ROCS_ColorTanimoto>
0.405 

> <ROCS_RefTversky>
0.205 

> <ROCS_RefColorTversky>
0.577 

> <ROCS_RefTverskyCombo>
0.782 

> <ROCS_FitTversky>
1.608 

> <ROCS_FitColorTversky>
0.576 

> <ROCS_FitTverskyCombo>
2.185 

> <ROCS_ColorScore>
-4.617

> <ROCS_Overlap>
2103.921

> <ROCS_Rank>
411                 

$$$$
untitled-dbase-414859_102
  -OEChem-02092421083D

 31 32  0     0  0  0  0  0  0999 V2000
   11.8818   15.3662   22.3237 C   0  0  0  0  0  0  0  0  0  0  0  0
   13.5682    7.6275   23.3421 C   0  0  0  0  0  0  0  0  0  0  0  0
    7.8254   12.2006   25.6230 C   0  0  0  0  0  0  0  0  0  0  0  0
   12.4976    6.9351   22.7765 C   0  0  0  0  0  0  0  0  0  0  0  0
   13.3789    8.9149   23.8445 C   0  0  0  0  0  0  0  0  0  0  0  0
    7.7024   10.8332   25.8690 C   0  0  0  0  0  0  0  0  0  0  0  0
    8.5984   12.6500   24.5524 C   0  0  0  0  0  0  0  0  0  0  0  0
   11.2376    7.5302   22.7132 C   0  0  0  0  0  0  0  0  0  0  0  0
   12.1189    9.5100   23.7812 C   0  0  0  0  0  0  0  0  0  0  0  0
    8.3526    9.9150   25.0444 C   0  0  0  0  0  0  0  0  0  0  0  0
    9.2486   11.7319   23.7278 C   0  0  0  0  0  0  0  0  0  0  0  0
   11.0482    8.8176   23.2156 C   0  0  0  0  0  0  0  0  0  0  0  0
    9.1257   10.3644   23.9738 C   0  0  0  0  0  0  0  0  0  0  0  0
   10.0493   12.2334   22.6179 C   0  0  0  0  0  0  0  0  0  0  0  0
   11.3879   14.0623   21.8813 C   0  0  0  0  0  0  0  0  0  0  0  0
   12.2740   16.4005   22.6738 N   0  0  0  0  0  0  0  0  0  0  0  0
    9.7776    9.4180   23.1520 N   0  0  0  0  0  0  0  0  0  0  0  0
   10.2263   11.6257   21.5558 O   0  0  0  0  0  0  0  0  0  0  0  0
   10.5793   13.4617   22.8987 O   0  0  0  0  0  0  0  0  0  0  0  0
   14.5494    7.1641   23.3911 H   0  0  0  0  0  0  0  0  0  0  0  0
    7.3188   12.9159   26.2643 H   0  0  0  0  0  0  0  0  0  0  0  0
   12.6451    5.9330   22.3853 H   0  0  0  0  0  0  0  0  0  0  0  0
   14.2128    9.4539   24.2850 H   0  0  0  0  0  0  0  0  0  0  0  0
    7.1010   10.4835   26.7031 H   0  0  0  0  0  0  0  0  0  0  0  0
    8.6869   13.7184   24.3728 H   0  0  0  0  0  0  0  0  0  0  0  0
   10.4099    6.9823   22.2703 H   0  0  0  0  0  0  0  0  0  0  0  0
   11.9832   10.5136   24.1762 H   0  0  0  0  0  0  0  0  0  0  0  0
    8.2492    8.8519   25.2462 H   0  0  0  0  0  0  0  0  0  0  0  0
   10.7729   14.1684   20.9829 H   0  0  0  0  0  0  0  0  0  0  0  0
   12.2130   13.3829   21.6474 H   0  0  0  0  0  0  0  0  0  0  0  0
    9.2170    9.1132   22.3629 H   0  0  0  0  0  0  0  0  0  0  0  0
  1 15  1  0  0  0  0
  1 16  3  0  0  0  0
  2  4  1  0  0  0  0
  2  5  2  0  0  0  0
  3  6  1  0  0  0  0
  3  7  2  0  0  0  0
  4  8  2  0  0  0  0
  5  9  1  0  0  0  0
  6 10  2  0  0  0  0
  7 11  1  0  0  0  0
  8 12  1  0  0  0  0
  9 12  2  0  0  0  0
 10 13  1  0  0  0  0
 11 13  2  0  0  0  0
 11 14  1  0  0  0  0
 12 17  1  0  0  0  0
 13 17  1  0  0  0  0
 14 18  2  0  0  0  0
 14 19  1  0  0  0  0
 15 19  1  0  0  0  0
  2 20  1  0  0  0  0
  3 21  1  0  0  0  0
  4 22  1  0  0  0  0
  5 23  1  0  0  0  0
  6 24  1  0  0  0  0
  7 25  1  0  0  0  0
  8 26  1  0  0  0  0
  9 27  1  0  0  0  0
 10 28  1  0  0  0  0
 15 29  1  0  0  0  0
 15 30  1  0  0  0  0
 17 31  1  0  0  0  0
M  END
> <idnumber>
Z53791784

> <heavy_atoms>
19

> <LogS>
-3.962

> <LogP>
3.623

> <rotating_bonds>
5

> <PSA>
62.12

> <hb_acceptors>
3

> <hb_donors>
1

> <Collection>
Legacy

> <link>
https://www.enaminestore.com/catalog/Z53791784

> <ROCS_ShapeQuery>
_x1140_x0812_0A_x1140_0A_x1097_0A_x0365_0A_x1097_0A_x0310_0A

> <ROCS_TanimotoCombo>
0.627 

> <ROCS_ShapeTanimoto>
0.231 

> <ROCS_ColorTanimoto>
0.397 

> <ROCS_RefTversky>
0.212 

> <ROCS_RefColorTversky>
0.470 

> <ROCS_RefTverskyCombo>
0.682 

> <ROCS_FitTversky>
1.618 

> <ROCS_FitColorTversky>
0.717 

> <ROCS_FitTverskyCombo>
2.335 

> <ROCS_ColorScore>
-3.693

> <ROCS_Overlap>
2175.152

> <ROCS_Rank>
412                 

$$$$
untitled-dbase-1063561_120
  -OEChem-02092421083D

 39 41  0     1  0  0  0  0  0999 V2000
   10.8211   14.9402   21.6784 C   0  0  0  0  0  0  0  0  0  0  0  0
   11.2777   16.2493   21.9223 C   0  0  0  0  0  0  0  0  0  0  0  0
   11.6230   14.1455   22.4606 C   0  0  0  0  0  0  0  0  0  0  0  0
    5.4995   11.1881   26.0636 C   0  0  0  0  0  0  0  0  0  0  0  0
    7.3204   10.1683   25.0932 C   0  0  0  0  0  0  0  0  0  0  0  0
   10.2864   12.0382   22.4739 C   0  0  0  0  0  0  0  0  0  0  0  0
    6.2345   12.2884   25.3506 C   0  0  0  0  0  0  0  0  0  0  0  0
    8.7387   12.0925   25.8496 C   0  0  0  0  0  0  0  0  0  0  0  0
    9.9728   11.8626   24.9854 C   0  0  0  0  0  0  0  0  0  0  0  0
    8.0454   12.0439   23.5488 C   0  0  0  0  0  0  0  0  0  0  0  0
    7.5726   11.6611   24.9474 C   0  0  1  0  0  0  0  0  0  0  0  0
   13.5164   14.6354   24.0384 C   0  0  0  0  0  0  0  0  0  0  0  0
   11.6491   12.6583   22.6528 C   0  0  0  0  0  0  0  0  0  0  0  0
   10.7685   17.5009   21.3369 C   0  0  0  0  0  0  0  0  0  0  0  0
   12.2909   16.2884   22.7917 N   0  0  0  0  0  0  0  0  0  0  0  0
   12.4776   14.9940   23.1009 N   0  0  0  0  0  0  0  0  0  0  0  0
    6.1664   10.0149   25.8215 N   0  0  0  0  0  0  0  0  0  0  0  0
    9.5004   11.9846   23.6116 N   0  0  0  0  0  0  0  0  0  0  0  0
    4.4659   11.3336   26.6987 O   0  0  0  0  0  0  0  0  0  0  0  0
    8.0375    9.2744   24.6678 O   0  0  0  0  0  0  0  0  0  0  0  0
    9.9305   11.6229   21.3698 O   0  0  0  0  0  0  0  0  0  0  0  0
    9.7282   17.3319   20.4558 F   0  0  0  0  0  0  0  0  0  0  0  0
   10.2903   18.4021   22.2566 F   0  0  0  0  0  0  0  0  0  0  0  0
   11.7166   18.1952   20.6282 F   0  0  0  0  0  0  0  0  0  0  0  0
   10.0226   14.6170   21.0260 H   0  0  0  0  0  0  0  0  0  0  0  0
    5.6405   12.5783   24.4770 H   0  0  0  0  0  0  0  0  0  0  0  0
    6.3476   13.1512   26.0130 H   0  0  0  0  0  0  0  0  0  0  0  0
    8.7960   11.5273   26.7855 H   0  0  0  0  0  0  0  0  0  0  0  0
    8.6652   13.1590   26.0952 H   0  0  0  0  0  0  0  0  0  0  0  0
   10.7673   12.5850   25.1916 H   0  0  0  0  0  0  0  0  0  0  0  0
   10.3722   10.8513   25.1166 H   0  0  0  0  0  0  0  0  0  0  0  0
    7.6805   11.3784   22.7594 H   0  0  0  0  0  0  0  0  0  0  0  0
    7.7764   13.0744   23.2897 H   0  0  0  0  0  0  0  0  0  0  0  0
   14.4358   14.4618   23.4729 H   0  0  0  0  0  0  0  0  0  0  0  0
   13.6565   15.4491   24.7554 H   0  0  0  0  0  0  0  0  0  0  0  0
   13.2208   13.7306   24.5767 H   0  0  0  0  0  0  0  0  0  0  0  0
   12.3365   12.1987   21.9404 H   0  0  0  0  0  0  0  0  0  0  0  0
   12.0159   12.4030   23.6482 H   0  0  0  0  0  0  0  0  0  0  0  0
    5.8369    9.1143   26.1509 H   0  0  0  0  0  0  0  0  0  0  0  0
  1  2  1  0  0  0  0
  1  3  2  0  0  0  0
  2 14  1  0  0  0  0
  2 15  2  0  0  0  0
  3 13  1  0  0  0  0
  3 16  1  0  0  0  0
  4  7  1  0  0  0  0
  4 17  1  0  0  0  0
  4 19  2  0  0  0  0
  5 11  1  0  0  0  0
  5 17  1  0  0  0  0
  5 20  2  0  0  0  0
  6 13  1  0  0  0  0
  6 18  1  0  0  0  0
  6 21  2  0  0  0  0
  7 11  1  0  0  0  0
  8  9  1  0  0  0  0
  8 11  1  0  0  0  0
  9 18  1  0  0  0  0
 10 11  1  0  0  0  0
 10 18  1  0  0  0  0
 12 16  1  0  0  0  0
 14 22  1  0  0  0  0
 14 23  1  0  0  0  0
 14 24  1  0  0  0  0
 15 16  1  0  0  0  0
  1 25  1  0  0  0  0
  7 26  1  0  0  0  0
  7 27  1  0  0  0  0
  8 28  1  0  0  0  0
  8 29  1  0  0  0  0
  9 30  1  0  0  0  0
  9 31  1  0  0  0  0
 10 32  1  0  0  0  0
 10 33  1  0  0  0  0
 12 34  1  0  0  0  0
 12 35  1  0  0  0  0
 12 36  1  0  0  0  0
 13 37  1  0  0  0  0
 13 38  1  0  0  0  0
 17 39  1  0  0  0  0
M  END
> <idnumber>
Z3917181933

> <heavy_atoms>
24

> <LogS>
-1.457

> <LogP>
-0.92

> <rotating_bonds>
3

> <PSA>
84.3

> <hb_acceptors>
4

> <hb_donors>
1

> <Collection>
Advanced

> <link>
https://www.enaminestore.com/catalog/Z3917181933

> <ROCS_ShapeQuery>
_x1140_x0812_0A_x1140_0A_x1097_0A_x0365_0A_x1097_0A_x0310_0A

> <ROCS_TanimotoCombo>
0.627 

> <ROCS_ShapeTanimoto>
0.243 

> <ROCS_ColorTanimoto>
0.385 

> <ROCS_RefTversky>
0.226 

> <ROCS_RefColorTversky>
0.556 

> <ROCS_RefTverskyCombo>
0.781 

> <ROCS_FitTversky>
1.454 

> <ROCS_FitColorTversky>
0.556 

> <ROCS_FitTverskyCombo>
2.010 

> <ROCS_ColorScore>
-4.447

> <ROCS_Overlap>
2317.885

> <ROCS_Rank>
413                 

$$$$
untitled-dbase-1043207_48
  -OEChem-02092421083D

 39 42  0     0  0  0  0  0  0999 V2000
   12.5129   17.6623   24.7737 C   0  0  0  0  0  0  0  0  0  0  0  0
   12.0928   16.5208   25.4447 C   0  0  0  0  0  0  0  0  0  0  0  0
   12.6544   17.5881   23.4002 C   0  0  0  0  0  0  0  0  0  0  0  0
    8.3029   12.3779   24.3214 C   0  0  0  0  0  0  0  0  0  0  0  0
    9.1795   11.5645   23.6328 C   0  0  0  0  0  0  0  0  0  0  0  0
   11.8360   15.3458   24.7341 C   0  0  0  0  0  0  0  0  0  0  0  0
   11.9918   15.3735   23.3456 C   0  0  0  0  0  0  0  0  0  0  0  0
    9.0442   10.2107   23.8633 C   0  0  0  0  0  0  0  0  0  0  0  0
    7.3309   10.5774   25.3116 C   0  0  0  0  0  0  0  0  0  0  0  0
   10.1768   12.1449   22.7204 C   0  0  0  0  0  0  0  0  0  0  0  0
   11.3523   14.1128   25.4432 C   0  0  0  0  0  0  0  0  0  0  0  0
   11.7267   14.1501   22.5055 C   0  0  0  0  0  0  0  0  0  0  0  0
    5.7885   10.9001   27.3587 C   0  0  0  0  0  0  0  0  0  0  0  0
    6.6864    9.7441   27.6713 C   0  0  0  0  0  0  0  0  0  0  0  0
   11.5916   12.8548   24.6162 C   0  0  0  0  0  0  0  0  0  0  0  0
    6.3030   10.0290   26.2431 C   0  0  0  0  0  0  0  0  0  0  0  0
   12.4055   16.4768   22.6728 N   0  0  0  0  0  0  0  0  0  0  0  0
    7.3627   11.9164   25.1718 N   0  0  0  0  0  0  0  0  0  0  0  0
    8.1275    9.6806   24.6994 N   0  0  0  0  0  0  0  0  0  0  0  0
   11.1137   13.0396   23.2476 N   0  0  0  0  0  0  0  0  0  0  0  0
    9.9166    9.3230   23.1861 N   0  0  0  0  0  0  0  0  0  0  0  0
   10.1055   11.7975   21.5423 O   0  0  0  0  0  0  0  0  0  0  0  0
   12.7240   18.5799   25.3104 H   0  0  0  0  0  0  0  0  0  0  0  0
   11.9655   16.5508   26.5236 H   0  0  0  0  0  0  0  0  0  0  0  0
   12.9847   18.4490   22.8284 H   0  0  0  0  0  0  0  0  0  0  0  0
    8.3251   13.4580   24.2117 H   0  0  0  0  0  0  0  0  0  0  0  0
   11.8775   14.0309   26.4026 H   0  0  0  0  0  0  0  0  0  0  0  0
   10.2800   14.1980   25.6546 H   0  0  0  0  0  0  0  0  0  0  0  0
   11.0297   14.4165   21.7021 H   0  0  0  0  0  0  0  0  0  0  0  0
   12.6662   13.8274   22.0464 H   0  0  0  0  0  0  0  0  0  0  0  0
    4.7403   10.8091   27.6183 H   0  0  0  0  0  0  0  0  0  0  0  0
    6.1920   11.8980   27.4805 H   0  0  0  0  0  0  0  0  0  0  0  0
    7.6945    9.9654   28.0016 H   0  0  0  0  0  0  0  0  0  0  0  0
    6.2446    8.8744   28.1430 H   0  0  0  0  0  0  0  0  0  0  0  0
   12.6552   12.5954   24.6287 H   0  0  0  0  0  0  0  0  0  0  0  0
   11.0425   12.0032   25.0373 H   0  0  0  0  0  0  0  0  0  0  0  0
    5.5893    9.3517   25.7922 H   0  0  0  0  0  0  0  0  0  0  0  0
   10.5681    9.6954   22.5301 H   0  0  0  0  0  0  0  0  0  0  0  0
    9.7954    8.3414   23.3101 H   0  0  0  0  0  0  0  0  0  0  0  0
  1  2  2  0  0  0  0
  1  3  1  0  0  0  0
  2  6  1  0  0  0  0
  3 17  2  0  0  0  0
  4  5  1  0  0  0  0
  4 18  2  0  0  0  0
  5  8  2  0  0  0  0
  5 10  1  0  0  0  0
  6  7  2  0  0  0  0
  6 11  1  0  0  0  0
  7 12  1  0  0  0  0
  7 17  1  0  0  0  0
  8 19  1  0  0  0  0
  8 21  1  0  0  0  0
  9 16  1  0  0  0  0
  9 18  1  0  0  0  0
  9 19  2  0  0  0  0
 10 20  1  0  0  0  0
 10 22  2  0  0  0  0
 11 15  1  0  0  0  0
 12 20  1  0  0  0  0
 13 14  1  0  0  0  0
 13 16  1  0  0  0  0
 14 16  1  0  0  0  0
 15 20  1  0  0  0  0
  1 23  1  0  0  0  0
  2 24  1  0  0  0  0
  3 25  1  0  0  0  0
  4 26  1  0  0  0  0
 11 27  1  0  0  0  0
 11 28  1  0  0  0  0
 12 29  1  0  0  0  0
 12 30  1  0  0  0  0
 13 31  1  0  0  0  0
 13 32  1  0  0  0  0
 14 33  1  0  0  0  0
 14 34  1  0  0  0  0
 15 35  1  0  0  0  0
 15 36  1  0  0  0  0
 16 37  1  0  0  0  0
 21 38  1  0  0  0  0
 21 39  1  0  0  0  0
M  END
> <idnumber>
Z3579732226

> <heavy_atoms>
22

> <LogS>
-2.36

> <LogP>
0.471

> <rotating_bonds>
2

> <PSA>
85

> <hb_acceptors>
5

> <hb_donors>
1

> <Collection>
Advanced

> <link>
https://www.enaminestore.com/catalog/Z3579732226

> <ROCS_ShapeQuery>
_x1140_x0812_0A_x1140_0A_x1097_0A_x0365_0A_x1097_0A_x0310_0A

> <ROCS_TanimotoCombo>
0.627 

> <ROCS_ShapeTanimoto>
0.265 

> <ROCS_ColorTanimoto>
0.362 

> <ROCS_RefTversky>
0.240 

> <ROCS_RefColorTversky>
0.562 

> <ROCS_RefTverskyCombo>
0.802 

> <ROCS_FitTversky>
1.643 

> <ROCS_FitColorTversky>
0.504 

> <ROCS_FitTverskyCombo>
2.148 

> <ROCS_ColorScore>
-4.523

> <ROCS_Overlap>
2468.912

> <ROCS_Rank>
414                 

$$$$
untitled-dbase-2989_1
  -OEChem-02092421083D

 18 18  0     0  0  0  0  0  0999 V2000
    8.5204   12.5296   24.1373 C   0  0  0  0  0  0  0  0  0  0  0  0
    7.5407   12.0358   24.9915 C   0  0  0  0  0  0  0  0  0  0  0  0
    9.0853   10.2890   23.5741 C   0  0  0  0  0  0  0  0  0  0  0  0
    9.3117   11.6463   23.4115 C   0  0  0  0  0  0  0  0  0  0  0  0
    7.3935   10.6611   25.0833 C   0  0  0  0  0  0  0  0  0  0  0  0
    5.1959   10.8986   26.2408 C   0  0  0  0  0  0  0  0  0  0  0  0
    8.1433    9.7718   24.3943 N   0  0  0  0  0  0  0  0  0  0  0  0
   10.3097   12.1150   22.5417 N   0  0  0  0  0  0  0  0  0  0  0  0
    6.3917   10.1736   25.9593 N   0  0  0  0  0  0  0  0  0  0  0  0
    8.6589   13.6035   24.0442 H   0  0  0  0  0  0  0  0  0  0  0  0
    6.9191   12.7179   25.5621 H   0  0  0  0  0  0  0  0  0  0  0  0
    9.6710    9.5507   23.0347 H   0  0  0  0  0  0  0  0  0  0  0  0
    5.2008   11.8461   25.6819 H   0  0  0  0  0  0  0  0  0  0  0  0
    4.3243   10.2994   25.9388 H   0  0  0  0  0  0  0  0  0  0  0  0
    5.1403   11.1094   27.3190 H   0  0  0  0  0  0  0  0  0  0  0  0
   10.4230   13.1023   22.4062 H   0  0  0  0  0  0  0  0  0  0  0  0
   10.8351   11.4593   21.9941 H   0  0  0  0  0  0  0  0  0  0  0  0
    6.5609    9.2837   26.3816 H   0  0  0  0  0  0  0  0  0  0  0  0
  1  2  2  0  0  0  0
  1  4  1  0  0  0  0
  2  5  1  0  0  0  0
  3  4  2  0  0  0  0
  3  7  1  0  0  0  0
  4  8  1  0  0  0  0
  5  7  2  0  0  0  0
  5  9  1  0  0  0  0
  6  9  1  0  0  0  0
  1 10  1  0  0  0  0
  2 11  1  0  0  0  0
  3 12  1  0  0  0  0
  6 13  1  0  0  0  0
  6 14  1  0  0  0  0
  6 15  1  0  0  0  0
  8 16  1  0  0  0  0
  8 17  1  0  0  0  0
  9 18  1  0  0  0  0
M  END
> <idnumber>
Z234897373

> <heavy_atoms>
9

> <LogS>
-0.48

> <LogP>
0.789

> <rotating_bonds>
1

> <PSA>
50.94

> <hb_acceptors>
3

> <hb_donors>
2

> <Collection>
Legacy

> <link>
https://www.enaminestore.com/catalog/Z234897373

> <ROCS_ShapeQuery>
_x1140_x0812_0A_x1140_0A_x1097_0A_x0365_0A_x1097_0A_x0310_0A

> <ROCS_TanimotoCombo>
0.627 

> <ROCS_ShapeTanimoto>
0.192 

> <ROCS_ColorTanimoto>
0.435 

> <ROCS_RefTversky>
0.175 

> <ROCS_RefColorTversky>
0.502 

> <ROCS_RefTverskyCombo>
0.678 

> <ROCS_FitTversky>
1.981 

> <ROCS_FitColorTversky>
0.765 

> <ROCS_FitTverskyCombo>
2.746 

> <ROCS_ColorScore>
-3.942

> <ROCS_Overlap>
1795.835

> <ROCS_Rank>
415                 

$$$$
untitled-dbase-1170384_0
  -OEChem-02092421083D

 30 31  0     0  0  0  0  0  0999 V2000
    8.5820   12.6093   24.2388 C   0  0  0  0  0  0  0  0  0  0  0  0
    7.4526   10.7770   25.2505 C   0  0  0  0  0  0  0  0  0  0  0  0
    7.5933   12.1472   25.1003 C   0  0  0  0  0  0  0  0  0  0  0  0
    9.3884   11.6999   23.5634 C   0  0  0  0  0  0  0  0  0  0  0  0
    9.1674   10.3498   23.7825 C   0  0  0  0  0  0  0  0  0  0  0  0
   10.7072   13.4905   22.3892 C   0  0  0  0  0  0  0  0  0  0  0  0
   13.1433   12.9463   21.8407 C   0  0  0  0  0  0  0  0  0  0  0  0
   13.0073   14.4381   21.8066 C   0  0  0  0  0  0  0  0  0  0  0  0
   11.8278   13.5693   21.4209 C   0  0  0  0  0  0  0  0  0  0  0  0
   11.4749   13.5034   19.9565 C   0  0  0  0  0  0  0  0  0  0  0  0
    6.7142   13.0942   25.8368 C   0  0  0  0  0  0  0  0  0  0  0  0
    8.2169    9.8631   24.6116 N   0  0  0  0  0  0  0  0  0  0  0  0
    9.9854    9.4145   23.0992 N   0  0  0  0  0  0  0  0  0  0  0  0
   10.3943   12.1701   22.6861 N   0  0  0  0  0  0  0  0  0  0  0  0
   10.1816   14.5093   22.8258 O   0  0  0  0  0  0  0  0  0  0  0  0
    6.9817   14.4102   25.5778 F   0  0  0  0  0  0  0  0  0  0  0  0
    5.3844   12.9432   25.5560 F   0  0  0  0  0  0  0  0  0  0  0  0
    6.8152   12.9642   27.1933 F   0  0  0  0  0  0  0  0  0  0  0  0
    8.7207   13.6786   24.0962 H   0  0  0  0  0  0  0  0  0  0  0  0
    6.6972   10.3582   25.9083 H   0  0  0  0  0  0  0  0  0  0  0  0
   13.7627   12.4794   21.0840 H   0  0  0  0  0  0  0  0  0  0  0  0
   13.2055   12.4689   22.8118 H   0  0  0  0  0  0  0  0  0  0  0  0
   12.9790   14.9621   22.7550 H   0  0  0  0  0  0  0  0  0  0  0  0
   13.5342   14.9746   21.0263 H   0  0  0  0  0  0  0  0  0  0  0  0
   12.3755   13.5704   19.3363 H   0  0  0  0  0  0  0  0  0  0  0  0
   10.8085   14.3278   19.6800 H   0  0  0  0  0  0  0  0  0  0  0  0
   10.9679   12.5612   19.7210 H   0  0  0  0  0  0  0  0  0  0  0  0
   10.6602    9.7519   22.4486 H   0  0  0  0  0  0  0  0  0  0  0  0
    9.8022    8.4420   23.2148 H   0  0  0  0  0  0  0  0  0  0  0  0
   10.9449   11.4475   22.2271 H   0  0  0  0  0  0  0  0  0  0  0  0
  1  3  2  0  0  0  0
  1  4  1  0  0  0  0
  2  3  1  0  0  0  0
  2 12  2  0  0  0  0
  3 11  1  0  0  0  0
  4  5  2  0  0  0  0
  4 14  1  0  0  0  0
  5 12  1  0  0  0  0
  5 13  1  0  0  0  0
  6  9  1  0  0  0  0
  6 14  1  0  0  0  0
  6 15  2  0  0  0  0
  7  8  1  0  0  0  0
  7  9  1  0  0  0  0
  8  9  1  0  0  0  0
  9 10  1  0  0  0  0
 11 16  1  0  0  0  0
 11 17  1  0  0  0  0
 11 18  1  0  0  0  0
  1 19  1  0  0  0  0
  2 20  1  0  0  0  0
  7 21  1  0  0  0  0
  7 22  1  0  0  0  0
  8 23  1  0  0  0  0
  8 24  1  0  0  0  0
 10 25  1  0  0  0  0
 10 26  1  0  0  0  0
 10 27  1  0  0  0  0
 13 28  1  0  0  0  0
 13 29  1  0  0  0  0
 14 30  1  0  0  0  0
M  END
> <idnumber>
Z8467784064

> <heavy_atoms>
18

> <LogS>
-2.777

> <LogP>
2.153

> <rotating_bonds>
3

> <PSA>
68.01

> <hb_acceptors>
3

> <hb_donors>
2

> <Collection>
Advanced

> <link>
https://www.enaminestore.com/catalog/Z8467784064

> <ROCS_ShapeQuery>
_x1140_x0812_0A_x1140_0A_x1097_0A_x0365_0A_x1097_0A_x0310_0A

> <ROCS_TanimotoCombo>
0.627 

> <ROCS_ShapeTanimoto>
0.258 

> <ROCS_ColorTanimoto>
0.370 

> <ROCS_RefTversky>
0.231 

> <ROCS_RefColorTversky>
0.479 

> <ROCS_RefTverskyCombo>
0.709 

> <ROCS_FitTversky>
1.812 

> <ROCS_FitColorTversky>
0.619 

> <ROCS_FitTverskyCombo>
2.431 

> <ROCS_ColorScore>
-3.781

> <ROCS_Overlap>
2369.045

> <ROCS_Rank>
416                 

$$$$
untitled-dbase-851658_73
  -OEChem-02092421083D

 34 35  0     0  0  0  0  0  0999 V2000
    8.1397   12.3198   23.8330 C   0  0  0  0  0  0  0  0  0  0  0  0
    7.1619   11.8981   24.7339 C   0  0  0  0  0  0  0  0  0  0  0  0
   13.9546   15.0207   22.1383 C   0  0  0  0  0  0  0  0  0  0  0  0
    8.1658    9.7014   24.7953 C   0  0  0  0  0  0  0  0  0  0  0  0
   13.7566   16.3455   22.4511 C   0  0  0  0  0  0  0  0  0  0  0  0
    9.1305   11.4322   23.4131 C   0  0  0  0  0  0  0  0  0  0  0  0
   12.7018   14.3849   22.3095 C   0  0  0  0  0  0  0  0  0  0  0  0
    7.1750   10.5889   25.2151 C   0  0  0  0  0  0  0  0  0  0  0  0
    9.1436   10.1231   23.8943 C   0  0  0  0  0  0  0  0  0  0  0  0
   11.8275   15.3665   22.7149 C   0  0  0  0  0  0  0  0  0  0  0  0
   10.1410   11.8928   22.4712 C   0  0  0  0  0  0  0  0  0  0  0  0
   10.3973   15.3667   23.0563 C   0  0  0  0  0  0  0  0  0  0  0  0
   11.5693   12.6178   24.3978 C   0  0  0  0  0  0  0  0  0  0  0  0
   12.3941   12.9317   22.0913 C   0  0  0  0  0  0  0  0  0  0  0  0
   11.3263   12.4608   22.9707 N   0  0  0  0  0  0  0  0  0  0  0  0
    9.8951   11.7414   21.2680 O   0  0  0  0  0  0  0  0  0  0  0  0
   12.4627   16.5645   22.8037 O   0  0  0  0  0  0  0  0  0  0  0  0
    6.2198   10.1774   26.0934 O   0  0  0  0  0  0  0  0  0  0  0  0
   10.1031    9.2406   23.4962 O   0  0  0  0  0  0  0  0  0  0  0  0
    8.1189   13.3426   23.4655 H   0  0  0  0  0  0  0  0  0  0  0  0
    6.3928   12.5946   25.0565 H   0  0  0  0  0  0  0  0  0  0  0  0
   14.8873   14.5730   21.8260 H   0  0  0  0  0  0  0  0  0  0  0  0
    8.1740    8.6802   25.1685 H   0  0  0  0  0  0  0  0  0  0  0  0
   14.3998   17.2130   22.4716 H   0  0  0  0  0  0  0  0  0  0  0  0
   10.2396   15.1699   24.1315 H   0  0  0  0  0  0  0  0  0  0  0  0
    9.9103   16.3312   22.8221 H   0  0  0  0  0  0  0  0  0  0  0  0
    9.8317   14.6010   22.4938 H   0  0  0  0  0  0  0  0  0  0  0  0
   12.0686   11.7179   24.7864 H   0  0  0  0  0  0  0  0  0  0  0  0
   12.2116   13.4948   24.5659 H   0  0  0  0  0  0  0  0  0  0  0  0
   10.6113   12.7595   24.9193 H   0  0  0  0  0  0  0  0  0  0  0  0
   12.0817   12.7543   21.0564 H   0  0  0  0  0  0  0  0  0  0  0  0
   13.2774   12.3111   22.2752 H   0  0  0  0  0  0  0  0  0  0  0  0
    6.3623    9.2481   26.3340 H   0  0  0  0  0  0  0  0  0  0  0  0
   10.7121    9.6671   22.8736 H   0  0  0  0  0  0  0  0  0  0  0  0
  1  2  2  0  0  0  0
  1  6  1  0  0  0  0
  2  8  1  0  0  0  0
  3  5  2  0  0  0  0
  3  7  1  0  0  0  0
  4  8  2  0  0  0  0
  4  9  1  0  0  0  0
  5 17  1  0  0  0  0
  6  9  2  0  0  0  0
  6 11  1  0  0  0  0
  7 10  2  0  0  0  0
  7 14  1  0  0  0  0
  8 18  1  0  0  0  0
  9 19  1  0  0  0  0
 10 12  1  0  0  0  0
 10 17  1  0  0  0  0
 11 15  1  0  0  0  0
 11 16  2  0  0  0  0
 13 15  1  0  0  0  0
 14 15  1  0  0  0  0
  1 20  1  0  0  0  0
  2 21  1  0  0  0  0
  3 22  1  0  0  0  0
  4 23  1  0  0  0  0
  5 24  1  0  0  0  0
 12 25  1  0  0  0  0
 12 26  1  0  0  0  0
 12 27  1  0  0  0  0
 13 28  1  0  0  0  0
 13 29  1  0  0  0  0
 13 30  1  0  0  0  0
 14 31  1  0  0  0  0
 14 32  1  0  0  0  0
 18 33  1  0  0  0  0
 19 34  1  0  0  0  0
M  END
> <idnumber>
Z1632941375

> <heavy_atoms>
19

> <LogS>
-1.94

> <LogP>
1.789

> <rotating_bonds>
3

> <PSA>
73.91

> <hb_acceptors>
3

> <hb_donors>
2

> <Collection>
HTS

> <link>
https://www.enaminestore.com/catalog/Z1632941375

> <ROCS_ShapeQuery>
_x1140_x0812_0A_x1140_0A_x1097_0A_x0365_0A_x1097_0A_x0310_0A

> <ROCS_TanimotoCombo>
0.627 

> <ROCS_ShapeTanimoto>
0.253 

> <ROCS_ColorTanimoto>
0.374 

> <ROCS_RefTversky>
0.229 

> <ROCS_RefColorTversky>
0.544 

> <ROCS_RefTverskyCombo>
0.773 

> <ROCS_FitTversky>
1.740 

> <ROCS_FitColorTversky>
0.544 

> <ROCS_FitTverskyCombo>
2.284 

> <ROCS_ColorScore>
-4.352

> <ROCS_Overlap>
2347.852

> <ROCS_Rank>
417                 

$$$$
untitled-dbase-929095_193
  -OEChem-02092421083D

 31 32  0     0  0  0  0  0  0999 V2000
    7.5975   11.9298   25.2753 C   0  0  0  0  0  0  0  0  0  0  0  0
    8.4399   12.3233   24.2415 C   0  0  0  0  0  0  0  0  0  0  0  0
   11.8332   15.5394   20.8406 C   0  0  0  0  0  0  0  0  0  0  0  0
    7.4221   10.5719   25.4878 C   0  0  0  0  0  0  0  0  0  0  0  0
   12.0711   16.7720   21.4776 C   0  0  0  0  0  0  0  0  0  0  0  0
    9.0723   11.3605   23.4628 C   0  0  0  0  0  0  0  0  0  0  0  0
   12.0726   14.5988   21.8125 C   0  0  0  0  0  0  0  0  0  0  0  0
    8.8311   10.0281   23.7566 C   0  0  0  0  0  0  0  0  0  0  0  0
    9.9529   11.7831   22.3835 C   0  0  0  0  0  0  0  0  0  0  0  0
   14.2732   14.7670   24.4648 C   0  0  0  0  0  0  0  0  0  0  0  0
   11.9961   13.0999   21.7747 C   0  0  0  0  0  0  0  0  0  0  0  0
   12.7740   14.7530   24.2207 C   0  0  0  0  0  0  0  0  0  0  0  0
    8.0193    9.6075   24.7525 N   0  0  0  0  0  0  0  0  0  0  0  0
   12.4336   16.6307   22.7553 N   0  0  0  0  0  0  0  0  0  0  0  0
   12.4252   15.2981   22.9292 N   0  0  0  0  0  0  0  0  0  0  0  0
   11.0466   12.5824   22.7336 N   0  0  0  0  0  0  0  0  0  0  0  0
    9.7126   11.4541   21.2090 O   0  0  0  0  0  0  0  0  0  0  0  0
    9.5510    8.7429   22.8669 Cl  0  0  0  0  0  0  0  0  0  0  0  0
    7.0948   12.6628   25.8959 H   0  0  0  0  0  0  0  0  0  0  0  0
    8.5970   13.3822   24.0538 H   0  0  0  0  0  0  0  0  0  0  0  0
   11.5306   15.3609   19.8191 H   0  0  0  0  0  0  0  0  0  0  0  0
    6.7757   10.2131   26.2821 H   0  0  0  0  0  0  0  0  0  0  0  0
   11.9953   17.7673   21.0638 H   0  0  0  0  0  0  0  0  0  0  0  0
   14.8034   14.1839   23.7044 H   0  0  0  0  0  0  0  0  0  0  0  0
   14.5019   14.3375   25.4451 H   0  0  0  0  0  0  0  0  0  0  0  0
   14.6686   15.7878   24.4384 H   0  0  0  0  0  0  0  0  0  0  0  0
   11.6940   12.7536   20.7803 H   0  0  0  0  0  0  0  0  0  0  0  0
   12.9708   12.6510   21.9931 H   0  0  0  0  0  0  0  0  0  0  0  0
   12.2524   15.3386   24.9862 H   0  0  0  0  0  0  0  0  0  0  0  0
   12.3838   13.7302   24.2718 H   0  0  0  0  0  0  0  0  0  0  0  0
   11.1602   12.8736   23.6990 H   0  0  0  0  0  0  0  0  0  0  0  0
  1  2  2  0  0  0  0
  1  4  1  0  0  0  0
  2  6  1  0  0  0  0
  3  5  1  0  0  0  0
  3  7  2  0  0  0  0
  4 13  2  0  0  0  0
  5 14  2  0  0  0  0
  6  8  2  0  0  0  0
  6  9  1  0  0  0  0
  7 11  1  0  0  0  0
  7 15  1  0  0  0  0
  8 13  1  0  0  0  0
  8 18  1  0  0  0  0
  9 16  1  0  0  0  0
  9 17  2  0  0  0  0
 10 12  1  0  0  0  0
 11 16  1  0  0  0  0
 12 15  1  0  0  0  0
 14 15  1  0  0  0  0
  1 19  1  0  0  0  0
  2 20  1  0  0  0  0
  3 21  1  0  0  0  0
  4 22  1  0  0  0  0
  5 23  1  0  0  0  0
 10 24  1  0  0  0  0
 10 25  1  0  0  0  0
 10 26  1  0  0  0  0
 11 27  1  0  0  0  0
 11 28  1  0  0  0  0
 12 29  1  0  0  0  0
 12 30  1  0  0  0  0
 16 31  1  0  0  0  0
M  END
> <idnumber>
Z2650022241

> <heavy_atoms>
18

> <LogS>
-2.464

> <LogP>
0.682

> <rotating_bonds>
4

> <PSA>
59.81

> <hb_acceptors>
3

> <hb_donors>
1

> <Collection>
Functional

> <link>
https://www.enaminestore.com/catalog/Z2650022241

> <ROCS_ShapeQuery>
_x1140_x0812_0A_x1140_0A_x1097_0A_x0365_0A_x1097_0A_x0310_0A

> <ROCS_TanimotoCombo>
0.627 

> <ROCS_ShapeTanimoto>
0.226 

> <ROCS_ColorTanimoto>
0.401 

> <ROCS_RefTversky>
0.208 

> <ROCS_RefColorTversky>
0.507 

> <ROCS_RefTverskyCombo>
0.715 

> <ROCS_FitTversky>
1.643 

> <ROCS_FitColorTversky>
0.656 

> <ROCS_FitTverskyCombo>
2.300 

> <ROCS_ColorScore>
-4.004

> <ROCS_Overlap>
2133.933

> <ROCS_Rank>
418                 

$$$$
untitled-dbase-609175_68
  -OEChem-02092421083D

 46 49  0     0  0  0  0  0  0999 V2000
    8.2545   12.4117   24.0663 C   0  0  0  0  0  0  0  0  0  0  0  0
    7.2902   11.9303   24.9448 C   0  0  0  0  0  0  0  0  0  0  0  0
    8.9988   10.1765   23.7404 C   0  0  0  0  0  0  0  0  0  0  0  0
    9.1289   11.5247   23.4485 C   0  0  0  0  0  0  0  0  0  0  0  0
    7.2423   10.5640   25.1696 C   0  0  0  0  0  0  0  0  0  0  0  0
   12.0011   15.1816   22.9489 C   0  0  0  0  0  0  0  0  0  0  0  0
   12.1357   16.5006   24.6849 C   0  0  0  0  0  0  0  0  0  0  0  0
   10.1582   12.0031   22.5130 C   0  0  0  0  0  0  0  0  0  0  0  0
   11.7704   13.9427   22.1624 C   0  0  0  0  0  0  0  0  0  0  0  0
    4.6815   10.5713   28.0271 C   0  0  0  0  0  0  0  0  0  0  0  0
    5.7084   11.6665   28.0012 C   0  0  0  0  0  0  0  0  0  0  0  0
   11.3621   14.1367   25.1127 C   0  0  0  0  0  0  0  0  0  0  0  0
   11.5598   12.8110   24.3841 C   0  0  0  0  0  0  0  0  0  0  0  0
    5.3362   10.9562   26.7312 C   0  0  0  0  0  0  0  0  0  0  0  0
   10.6606   17.5083   26.4632 C   0  0  0  0  0  0  0  0  0  0  0  0
   13.1204   18.0568   26.4061 C   0  0  0  0  0  0  0  0  0  0  0  0
   12.0618   16.9772   26.0772 C   0  0  0  0  0  0  0  0  0  0  0  0
    8.0747    9.6715   24.5881 N   0  0  0  0  0  0  0  0  0  0  0  0
   12.4098   16.3605   22.5266 N   0  0  0  0  0  0  0  0  0  0  0  0
   12.4938   17.1955   23.6272 N   0  0  0  0  0  0  0  0  0  0  0  0
   11.8219   15.2401   24.3022 N   0  0  0  0  0  0  0  0  0  0  0  0
   11.1140   12.9088   22.9870 N   0  0  0  0  0  0  0  0  0  0  0  0
    6.2551   10.0893   26.0686 N   0  0  0  0  0  0  0  0  0  0  0  0
   10.0948   11.5680   21.3639 O   0  0  0  0  0  0  0  0  0  0  0  0
    8.3166   13.4789   23.8716 H   0  0  0  0  0  0  0  0  0  0  0  0
    6.6033   12.6155   25.4312 H   0  0  0  0  0  0  0  0  0  0  0  0
    9.6523    9.4354   23.2899 H   0  0  0  0  0  0  0  0  0  0  0  0
   11.1703   14.1743   21.2783 H   0  0  0  0  0  0  0  0  0  0  0  0
   12.7279   13.5291   21.8272 H   0  0  0  0  0  0  0  0  0  0  0  0
    4.9605    9.6312   28.4866 H   0  0  0  0  0  0  0  0  0  0  0  0
    3.6462   10.8538   28.1729 H   0  0  0  0  0  0  0  0  0  0  0  0
    5.3632   12.6849   28.1299 H   0  0  0  0  0  0  0  0  0  0  0  0
    6.6749   11.4597   28.4442 H   0  0  0  0  0  0  0  0  0  0  0  0
   10.3013   14.3139   25.3219 H   0  0  0  0  0  0  0  0  0  0  0  0
   11.9194   14.1403   26.0547 H   0  0  0  0  0  0  0  0  0  0  0  0
   12.6229   12.5411   24.3585 H   0  0  0  0  0  0  0  0  0  0  0  0
   11.0313   12.0102   24.9112 H   0  0  0  0  0  0  0  0  0  0  0  0
    4.7272   11.5071   26.0229 H   0  0  0  0  0  0  0  0  0  0  0  0
   10.3581   18.3401   25.8178 H   0  0  0  0  0  0  0  0  0  0  0  0
   10.6256   17.8620   27.4994 H   0  0  0  0  0  0  0  0  0  0  0  0
    9.9142   16.7133   26.3550 H   0  0  0  0  0  0  0  0  0  0  0  0
   12.9936   18.9216   25.7453 H   0  0  0  0  0  0  0  0  0  0  0  0
   14.1423   17.6837   26.2775 H   0  0  0  0  0  0  0  0  0  0  0  0
   13.0231   18.4086   27.4390 H   0  0  0  0  0  0  0  0  0  0  0  0
   12.2639   16.1456   26.7887 H   0  0  0  0  0  0  0  0  0  0  0  0
    6.2286    9.1022   26.2241 H   0  0  0  0  0  0  0  0  0  0  0  0
  1  2  2  0  0  0  0
  1  4  1  0  0  0  0
  2  5  1  0  0  0  0
  3  4  2  0  0  0  0
  3 18  1  0  0  0  0
  4  8  1  0  0  0  0
  5 18  2  0  0  0  0
  5 23  1  0  0  0  0
  6  9  1  0  0  0  0
  6 19  2  0  0  0  0
  6 21  1  0  0  0  0
  7 17  1  0  0  0  0
  7 20  2  0  0  0  0
  7 21  1  0  0  0  0
  8 22  1  0  0  0  0
  8 24  2  0  0  0  0
  9 22  1  0  0  0  0
 10 11  1  0  0  0  0
 10 14  1  0  0  0  0
 11 14  1  0  0  0  0
 12 13  1  0  0  0  0
 12 21  1  0  0  0  0
 13 22  1  0  0  0  0
 14 23  1  0  0  0  0
 15 17  1  0  0  0  0
 16 17  1  0  0  0  0
 19 20  1  0  0  0  0
  1 25  1  0  0  0  0
  2 26  1  0  0  0  0
  3 27  1  0  0  0  0
  9 28  1  0  0  0  0
  9 29  1  0  0  0  0
 10 30  1  0  0  0  0
 10 31  1  0  0  0  0
 11 32  1  0  0  0  0
 11 33  1  0  0  0  0
 12 34  1  0  0  0  0
 12 35  1  0  0  0  0
 13 36  1  0  0  0  0
 13 37  1  0  0  0  0
 14 38  1  0  0  0  0
 15 39  1  0  0  0  0
 15 40  1  0  0  0  0
 15 41  1  0  0  0  0
 16 42  1  0  0  0  0
 16 43  1  0  0  0  0
 16 44  1  0  0  0  0
 17 45  1  0  0  0  0
 23 46  1  0  0  0  0
M  END
> <idnumber>
Z1139303058

> <heavy_atoms>
24

> <LogS>
-2.54

> <LogP>
0.938

> <rotating_bonds>
4

> <PSA>
75.94

> <hb_acceptors>
5

> <hb_donors>
1

> <Collection>
HTS

> <link>
https://www.enaminestore.com/catalog/Z1139303058

> <ROCS_ShapeQuery>
_x1140_x0812_0A_x1140_0A_x1097_0A_x0365_0A_x1097_0A_x0310_0A

> <ROCS_TanimotoCombo>
0.627 

> <ROCS_ShapeTanimoto>
0.250 

> <ROCS_ColorTanimoto>
0.377 

> <ROCS_RefTversky>
0.231 

> <ROCS_RefColorTversky>
0.588 

> <ROCS_RefTverskyCombo>
0.818 

> <ROCS_FitTversky>
1.500 

> <ROCS_FitColorTversky>
0.513 

> <ROCS_FitTverskyCombo>
2.013 

> <ROCS_ColorScore>
-4.740

> <ROCS_Overlap>
2371.069

> <ROCS_Rank>
419                 

$$$$
untitled-dbase-300037_36
  -OEChem-02092421083D

 32 34  0     0  0  0  0  0  0999 V2000
    5.3594   11.7987   26.8710 C   0  0  0  0  0  0  0  0  0  0  0  0
    5.6256   10.4713   27.1834 C   0  0  0  0  0  0  0  0  0  0  0  0
    6.0588   12.4148   25.8373 C   0  0  0  0  0  0  0  0  0  0  0  0
    6.5899    9.7634   26.4617 C   0  0  0  0  0  0  0  0  0  0  0  0
   12.6954   14.0238   22.6270 C   0  0  0  0  0  0  0  0  0  0  0  0
    7.7473   12.2981   24.0662 C   0  0  0  0  0  0  0  0  0  0  0  0
   13.1507   15.3321   22.6561 C   0  0  0  0  0  0  0  0  0  0  0  0
   11.0131   16.1682   22.7526 C   0  0  0  0  0  0  0  0  0  0  0  0
    7.0286   11.7025   25.1115 C   0  0  0  0  0  0  0  0  0  0  0  0
    8.6985   11.5678   23.3685 C   0  0  0  0  0  0  0  0  0  0  0  0
    7.3040   10.3545   25.4230 C   0  0  0  0  0  0  0  0  0  0  0  0
   11.3218   13.8117   22.6639 C   0  0  0  0  0  0  0  0  0  0  0  0
   10.4576   14.8991   22.7279 C   0  0  0  0  0  0  0  0  0  0  0  0
    8.8983   10.2553   23.7457 C   0  0  0  0  0  0  0  0  0  0  0  0
    9.4641   12.1964   22.2572 C   0  0  0  0  0  0  0  0  0  0  0  0
   12.3421   16.4136   22.7182 N   0  0  0  0  0  0  0  0  0  0  0  0
    8.2266    9.6433   24.7478 N   0  0  0  0  0  0  0  0  0  0  0  0
   10.8174   12.5203   22.6353 N   0  0  0  0  0  0  0  0  0  0  0  0
    9.8276    9.4937   23.0860 O   0  0  0  0  0  0  0  0  0  0  0  0
    9.1294   14.7356   22.7638 F   0  0  0  0  0  0  0  0  0  0  0  0
    4.6108   12.3521   27.4296 H   0  0  0  0  0  0  0  0  0  0  0  0
    5.0848    9.9825   27.9886 H   0  0  0  0  0  0  0  0  0  0  0  0
    5.8427   13.4543   25.6010 H   0  0  0  0  0  0  0  0  0  0  0  0
    6.7797    8.7247   26.7263 H   0  0  0  0  0  0  0  0  0  0  0  0
   13.3968   13.1976   22.5775 H   0  0  0  0  0  0  0  0  0  0  0  0
    7.5625   13.3362   23.7968 H   0  0  0  0  0  0  0  0  0  0  0  0
   14.2131   15.5507   22.6293 H   0  0  0  0  0  0  0  0  0  0  0  0
   10.3824   17.0496   22.8039 H   0  0  0  0  0  0  0  0  0  0  0  0
    9.5182   11.5304   21.3835 H   0  0  0  0  0  0  0  0  0  0  0  0
    8.9904   13.1277   21.9142 H   0  0  0  0  0  0  0  0  0  0  0  0
   11.4369   11.7603   22.8967 H   0  0  0  0  0  0  0  0  0  0  0  0
    9.8491    8.6040   23.4647 H   0  0  0  0  0  0  0  0  0  0  0  0
  1  2  1  0  0  0  0
  1  3  2  0  0  0  0
  2  4  2  0  0  0  0
  3  9  1  0  0  0  0
  4 11  1  0  0  0  0
  5  7  2  0  0  0  0
  5 12  1  0  0  0  0
  6  9  2  0  0  0  0
  6 10  1  0  0  0  0
  7 16  1  0  0  0  0
  8 13  1  0  0  0  0
  8 16  2  0  0  0  0
  9 11  1  0  0  0  0
 10 14  2  0  0  0  0
 10 15  1  0  0  0  0
 11 17  2  0  0  0  0
 12 13  2  0  0  0  0
 12 18  1  0  0  0  0
 13 20  1  0  0  0  0
 14 17  1  0  0  0  0
 14 19  1  0  0  0  0
 15 18  1  0  0  0  0
  1 21  1  0  0  0  0
  2 22  1  0  0  0  0
  3 23  1  0  0  0  0
  4 24  1  0  0  0  0
  5 25  1  0  0  0  0
  6 26  1  0  0  0  0
  7 27  1  0  0  0  0
  8 28  1  0  0  0  0
 15 29  1  0  0  0  0
 15 30  1  0  0  0  0
 18 31  1  0  0  0  0
 19 32  1  0  0  0  0
M  END
> <idnumber>
Z1848952014

> <heavy_atoms>
20

> <LogS>
-2.938

> <LogP>
2.962

> <rotating_bonds>
3

> <PSA>
58.04

> <hb_acceptors>
4

> <hb_donors>
2

> <Collection>
Legacy

> <link>
https://www.enaminestore.com/catalog/Z1848952014

> <ROCS_ShapeQuery>
_x1140_x0812_0A_x1140_0A_x1097_0A_x0365_0A_x1097_0A_x0310_0A

> <ROCS_TanimotoCombo>
0.627 

> <ROCS_ShapeTanimoto>
0.275 

> <ROCS_ColorTanimoto>
0.352 

> <ROCS_RefTversky>
0.245 

> <ROCS_RefColorTversky>
0.521 

> <ROCS_RefTverskyCombo>
0.767 

> <ROCS_FitTversky>
1.776 

> <ROCS_FitColorTversky>
0.520 

> <ROCS_FitTverskyCombo>
2.296 

> <ROCS_ColorScore>
-4.171

> <ROCS_Overlap>
2518.956

> <ROCS_Rank>
420                 

$$$$
untitled-dbase-808580_193
  -OEChem-02092421083D

 34 35  0     0  0  0  0  0  0999 V2000
    8.3585   12.4728   23.9543 C   0  0  0  0  0  0  0  0  0  0  0  0
   10.6479   16.6692   22.9215 C   0  0  0  0  0  0  0  0  0  0  0  0
    9.1879   11.5085   23.3925 C   0  0  0  0  0  0  0  0  0  0  0  0
    7.4551   12.1115   24.9475 C   0  0  0  0  0  0  0  0  0  0  0  0
    7.4204   10.7834   25.3408 C   0  0  0  0  0  0  0  0  0  0  0  0
    9.0758   10.2074   23.8555 C   0  0  0  0  0  0  0  0  0  0  0  0
   11.7613   15.1267   21.8776 C   0  0  0  0  0  0  0  0  0  0  0  0
   10.1359   11.8781   22.3525 C   0  0  0  0  0  0  0  0  0  0  0  0
    6.4782   10.3176   26.4031 C   0  0  0  0  0  0  0  0  0  0  0  0
    9.2542   14.9964   21.6842 C   0  0  0  0  0  0  0  0  0  0  0  0
   12.0556   13.9123   21.0315 C   0  0  0  0  0  0  0  0  0  0  0  0
   12.4543   12.6926   21.8588 C   0  0  0  0  0  0  0  0  0  0  0  0
   11.9253   16.8945   23.1306 N   0  0  0  0  0  0  0  0  0  0  0  0
    8.2103    9.8186   24.8185 N   0  0  0  0  0  0  0  0  0  0  0  0
   12.6337   15.9131   22.4665 N   0  0  0  0  0  0  0  0  0  0  0  0
   10.4986   15.5657   22.1375 N   0  0  0  0  0  0  0  0  0  0  0  0
   11.4119   12.2746   22.7685 N   0  0  0  0  0  0  0  0  0  0  0  0
    9.7996   11.8555   21.1556 O   0  0  0  0  0  0  0  0  0  0  0  0
    9.8745    9.2262   23.3282 O   0  0  0  0  0  0  0  0  0  0  0  0
    6.3310   13.4297   25.7040 Br  0  0  0  0  0  0  0  0  0  0  0  0
    8.4206   13.5036   23.6128 H   0  0  0  0  0  0  0  0  0  0  0  0
    9.8203   17.2522   23.2997 H   0  0  0  0  0  0  0  0  0  0  0  0
    5.5273   10.0060   25.9562 H   0  0  0  0  0  0  0  0  0  0  0  0
    6.8975    9.4712   26.9603 H   0  0  0  0  0  0  0  0  0  0  0  0
    6.2791   11.1131   27.1315 H   0  0  0  0  0  0  0  0  0  0  0  0
    8.9985   15.4619   20.7287 H   0  0  0  0  0  0  0  0  0  0  0  0
    9.3705   13.9157   21.5639 H   0  0  0  0  0  0  0  0  0  0  0  0
    8.4755   15.1923   22.4266 H   0  0  0  0  0  0  0  0  0  0  0  0
   12.8680   14.1606   20.3369 H   0  0  0  0  0  0  0  0  0  0  0  0
   11.1853   13.6762   20.4059 H   0  0  0  0  0  0  0  0  0  0  0  0
   12.6558   11.8435   21.1980 H   0  0  0  0  0  0  0  0  0  0  0  0
   13.3540   12.8839   22.4528 H   0  0  0  0  0  0  0  0  0  0  0  0
   11.6139   12.3354   23.7611 H   0  0  0  0  0  0  0  0  0  0  0  0
   10.4532    9.6044   22.6517 H   0  0  0  0  0  0  0  0  0  0  0  0
  1  3  2  0  0  0  0
  1  4  1  0  0  0  0
  2 13  2  0  0  0  0
  2 16  1  0  0  0  0
  3  6  1  0  0  0  0
  3  8  1  0  0  0  0
  4  5  2  0  0  0  0
  4 20  1  0  0  0  0
  5  9  1  0  0  0  0
  5 14  1  0  0  0  0
  6 14  2  0  0  0  0
  6 19  1  0  0  0  0
  7 11  1  0  0  0  0
  7 15  2  0  0  0  0
  7 16  1  0  0  0  0
  8 17  1  0  0  0  0
  8 18  2  0  0  0  0
 10 16  1  0  0  0  0
 11 12  1  0  0  0  0
 12 17  1  0  0  0  0
 13 15  1  0  0  0  0
  1 21  1  0  0  0  0
  2 22  1  0  0  0  0
  9 23  1  0  0  0  0
  9 24  1  0  0  0  0
  9 25  1  0  0  0  0
 10 26  1  0  0  0  0
 10 27  1  0  0  0  0
 10 28  1  0  0  0  0
 11 29  1  0  0  0  0
 11 30  1  0  0  0  0
 12 31  1  0  0  0  0
 12 32  1  0  0  0  0
 17 33  1  0  0  0  0
 19 34  1  0  0  0  0
M  END
> <idnumber>
Z1746537685

> <heavy_atoms>
20

> <LogS>
-2.046

> <LogP>
1.463

> <rotating_bonds>
4

> <PSA>
92.93

> <hb_acceptors>
5

> <hb_donors>
2

> <Collection>
Legacy

> <link>
https://www.enaminestore.com/catalog/Z1746537685

> <ROCS_ShapeQuery>
_x1140_x0812_0A_x1140_0A_x1097_0A_x0365_0A_x1097_0A_x0310_0A

> <ROCS_TanimotoCombo>
0.627 

> <ROCS_ShapeTanimoto>
0.261 

> <ROCS_ColorTanimoto>
0.366 

> <ROCS_RefTversky>
0.235 

> <ROCS_RefColorTversky>
0.605 

> <ROCS_RefTverskyCombo>
0.839 

> <ROCS_FitTversky>
1.739 

> <ROCS_FitColorTversky>
0.482 

> <ROCS_FitTverskyCombo>
2.221 

> <ROCS_ColorScore>
-4.909

> <ROCS_Overlap>
2407.842

> <ROCS_Rank>
421                 

$$$$
untitled-dbase-193930_35
  -OEChem-02092421083D

 28 28  0     0  0  0  0  0  0999 V2000
    8.0253   11.9528   25.5248 C   0  0  0  0  0  0  0  0  0  0  0  0
    8.7187   12.4035   24.4070 C   0  0  0  0  0  0  0  0  0  0  0  0
    7.7046   10.6065   25.5897 C   0  0  0  0  0  0  0  0  0  0  0  0
    9.0653   11.5067   23.4026 C   0  0  0  0  0  0  0  0  0  0  0  0
    8.6982   10.1802   23.5626 C   0  0  0  0  0  0  0  0  0  0  0  0
    9.7922   12.0054   22.2424 C   0  0  0  0  0  0  0  0  0  0  0  0
   11.4022    9.3134   23.7858 C   0  0  0  0  0  0  0  0  0  0  0  0
   11.5309    7.8645   21.7305 C   0  0  0  0  0  0  0  0  0  0  0  0
   11.8654   13.1592   21.4398 C   0  0  0  0  0  0  0  0  0  0  0  0
   10.9145    9.1098   22.3564 C   0  0  0  0  0  0  0  0  0  0  0  0
    8.0242    9.7053   24.6341 N   0  0  0  0  0  0  0  0  0  0  0  0
   11.0365   12.5972   22.4819 N   0  0  0  0  0  0  0  0  0  0  0  0
    9.2990   11.9162   21.1056 O   0  0  0  0  0  0  0  0  0  0  0  0
    9.0955    8.9704   22.3407 S   0  0  0  0  0  0  0  0  0  0  0  0
    7.7445   12.6337   26.3198 H   0  0  0  0  0  0  0  0  0  0  0  0
    8.9827   13.4553   24.3319 H   0  0  0  0  0  0  0  0  0  0  0  0
    7.1636   10.2052   26.4403 H   0  0  0  0  0  0  0  0  0  0  0  0
   11.1416    8.4470   24.4039 H   0  0  0  0  0  0  0  0  0  0  0  0
   12.4916    9.4245   23.8235 H   0  0  0  0  0  0  0  0  0  0  0  0
   10.9496   10.1969   24.2503 H   0  0  0  0  0  0  0  0  0  0  0  0
   11.2724    6.9758   22.3170 H   0  0  0  0  0  0  0  0  0  0  0  0
   12.6243    7.9308   21.7042 H   0  0  0  0  0  0  0  0  0  0  0  0
   11.1715    7.7001   20.7082 H   0  0  0  0  0  0  0  0  0  0  0  0
   12.5874   12.4033   21.0973 H   0  0  0  0  0  0  0  0  0  0  0  0
   11.2323   13.4704   20.5957 H   0  0  0  0  0  0  0  0  0  0  0  0
   12.4072   14.0320   21.8330 H   0  0  0  0  0  0  0  0  0  0  0  0
   11.1844    9.9852   21.7562 H   0  0  0  0  0  0  0  0  0  0  0  0
   11.3629   12.7003   23.4372 H   0  0  0  0  0  0  0  0  0  0  0  0
  1  2  2  0  0  0  0
  1  3  1  0  0  0  0
  2  4  1  0  0  0  0
  3 11  2  0  0  0  0
  4  5  2  0  0  0  0
  4  6  1  0  0  0  0
  5 11  1  0  0  0  0
  5 14  1  0  0  0  0
  6 12  1  0  0  0  0
  6 13  2  0  0  0  0
  7 10  1  0  0  0  0
  8 10  1  0  0  0  0
  9 12  1  0  0  0  0
 10 14  1  0  0  0  0
  1 15  1  0  0  0  0
  2 16  1  0  0  0  0
  3 17  1  0  0  0  0
  7 18  1  0  0  0  0
  7 19  1  0  0  0  0
  7 20  1  0  0  0  0
  8 21  1  0  0  0  0
  8 22  1  0  0  0  0
  8 23  1  0  0  0  0
  9 24  1  0  0  0  0
  9 25  1  0  0  0  0
  9 26  1  0  0  0  0
 10 27  1  0  0  0  0
 12 28  1  0  0  0  0
M  END
> <idnumber>
Z434462422

> <heavy_atoms>
14

> <LogS>
-3.05

> <LogP>
1.392

> <rotating_bonds>
3

> <PSA>
41.99

> <hb_acceptors>
2

> <hb_donors>
1

> <Collection>
HTS

> <link>
https://www.enaminestore.com/catalog/Z434462422

> <ROCS_ShapeQuery>
_x1140_x0812_0A_x1140_0A_x1097_0A_x0365_0A_x1097_0A_x0310_0A

> <ROCS_TanimotoCombo>
0.627 

> <ROCS_ShapeTanimoto>
0.217 

> <ROCS_ColorTanimoto>
0.410 

> <ROCS_RefTversky>
0.197 

> <ROCS_RefColorTversky>
0.481 

> <ROCS_RefTverskyCombo>
0.679 

> <ROCS_FitTversky>
1.858 

> <ROCS_FitColorTversky>
0.734 

> <ROCS_FitTverskyCombo>
2.592 

> <ROCS_ColorScore>
-3.778

> <ROCS_Overlap>
2023.697

> <ROCS_Rank>
422                 

$$$$
untitled-dbase-856066_1
  -OEChem-02092421083D

 20 20  0     0  0  0  0  0  0999 V2000
   11.8826   15.3557   22.3248 C   0  0  0  0  0  0  0  0  0  0  0  0
    8.3562    9.8955   25.0312 C   0  0  0  0  0  0  0  0  0  0  0  0
    7.6990   10.8061   25.8586 C   0  0  0  0  0  0  0  0  0  0  0  0
    8.5873   12.6340   24.5521 C   0  0  0  0  0  0  0  0  0  0  0  0
    9.2445   11.7233   23.7248 C   0  0  0  0  0  0  0  0  0  0  0  0
    9.1290   10.3541   23.9644 C   0  0  0  0  0  0  0  0  0  0  0  0
    7.8146   12.1754   25.6190 C   0  0  0  0  0  0  0  0  0  0  0  0
   10.0483   12.2229   22.6179 C   0  0  0  0  0  0  0  0  0  0  0  0
   11.3901   14.0513   21.8825 C   0  0  0  0  0  0  0  0  0  0  0  0
   12.2736   16.3905   22.6748 N   0  0  0  0  0  0  0  0  0  0  0  0
   10.2296   11.6143   21.5563 O   0  0  0  0  0  0  0  0  0  0  0  0
    9.7651    9.4487   23.1687 O   0  0  0  0  0  0  0  0  0  0  0  0
   10.5781   13.4520   22.8979 O   0  0  0  0  0  0  0  0  0  0  0  0
    7.0020   13.2988   26.6385 Cl  0  0  0  0  0  0  0  0  0  0  0  0
    8.2629    8.8299   25.2231 H   0  0  0  0  0  0  0  0  0  0  0  0
    7.0993   10.4342   26.6852 H   0  0  0  0  0  0  0  0  0  0  0  0
    8.6796   13.7016   24.3639 H   0  0  0  0  0  0  0  0  0  0  0  0
   10.7782   14.1561   20.9818 H   0  0  0  0  0  0  0  0  0  0  0  0
   12.2160   13.3715   21.6522 H   0  0  0  0  0  0  0  0  0  0  0  0
   10.2619    9.9060   22.4725 H   0  0  0  0  0  0  0  0  0  0  0  0
  1  9  1  0  0  0  0
  1 10  3  0  0  0  0
  2  3  2  0  0  0  0
  2  6  1  0  0  0  0
  3  7  1  0  0  0  0
  4  5  1  0  0  0  0
  4  7  2  0  0  0  0
  5  6  2  0  0  0  0
  5  8  1  0  0  0  0
  6 12  1  0  0  0  0
  7 14  1  0  0  0  0
  8 11  2  0  0  0  0
  8 13  1  0  0  0  0
  9 13  1  0  0  0  0
  2 15  1  0  0  0  0
  3 16  1  0  0  0  0
  4 17  1  0  0  0  0
  9 18  1  0  0  0  0
  9 19  1  0  0  0  0
 12 20  1  0  0  0  0
M  END
> <idnumber>
Z18532293

> <heavy_atoms>
14

> <LogS>
-2.553

> <LogP>
2.134

> <rotating_bonds>
3

> <PSA>
70.32

> <hb_acceptors>
3

> <hb_donors>
1

> <Collection>
Legacy

> <link>
https://www.enaminestore.com/catalog/Z18532293

> <ROCS_ShapeQuery>
_x1140_x0812_0A_x1140_0A_x1097_0A_x0365_0A_x1097_0A_x0310_0A

> <ROCS_TanimotoCombo>
0.627 

> <ROCS_ShapeTanimoto>
0.229 

> <ROCS_ColorTanimoto>
0.398 

> <ROCS_RefTversky>
0.206 

> <ROCS_RefColorTversky>
0.472 

> <ROCS_RefTverskyCombo>
0.678 

> <ROCS_FitTversky>
1.901 

> <ROCS_FitColorTversky>
0.719 

> <ROCS_FitTverskyCombo>
2.620 

> <ROCS_ColorScore>
-3.703

> <ROCS_Overlap>
2113.462

> <ROCS_Rank>
423                 

$$$$
untitled-dbase-15873_0
  -OEChem-02092421083D

 22 23  0     0  0  0  0  0  0999 V2000
    7.6824   12.1543   25.1813 C   0  0  0  0  0  0  0  0  0  0  0  0
    8.6828   12.6041   24.3322 C   0  0  0  0  0  0  0  0  0  0  0  0
    7.4733   10.7956   25.2481 C   0  0  0  0  0  0  0  0  0  0  0  0
    9.4557   11.7049   23.5778 C   0  0  0  0  0  0  0  0  0  0  0  0
    9.2057   10.3310   23.7536 C   0  0  0  0  0  0  0  0  0  0  0  0
   11.6525   10.3798   21.6568 C   0  0  0  0  0  0  0  0  0  0  0  0
   10.6793   11.5292   21.4355 C   0  0  0  0  0  0  0  0  0  0  0  0
   11.3989    9.5588   22.9139 C   0  0  0  0  0  0  0  0  0  0  0  0
    8.2003    9.8899   24.5599 N   0  0  0  0  0  0  0  0  0  0  0  0
   10.3647   12.2287   22.6645 N   0  0  0  0  0  0  0  0  0  0  0  0
    9.9854    9.3437   23.1558 N   0  0  0  0  0  0  0  0  0  0  0  0
    7.0782   12.8476   25.7542 H   0  0  0  0  0  0  0  0  0  0  0  0
    8.8439   13.6763   24.2371 H   0  0  0  0  0  0  0  0  0  0  0  0
    6.6956   10.3801   25.8798 H   0  0  0  0  0  0  0  0  0  0  0  0
   11.6150    9.7224   20.7791 H   0  0  0  0  0  0  0  0  0  0  0  0
   12.6764   10.7719   21.7009 H   0  0  0  0  0  0  0  0  0  0  0  0
   11.1250   12.2373   20.7271 H   0  0  0  0  0  0  0  0  0  0  0  0
    9.7586   11.1682   20.9593 H   0  0  0  0  0  0  0  0  0  0  0  0
   11.8927    8.5861   22.8043 H   0  0  0  0  0  0  0  0  0  0  0  0
   11.8655   10.0347   23.7861 H   0  0  0  0  0  0  0  0  0  0  0  0
   10.5600   13.2230   22.7062 H   0  0  0  0  0  0  0  0  0  0  0  0
    9.6851    8.3900   23.3277 H   0  0  0  0  0  0  0  0  0  0  0  0
  1  2  2  0  0  0  0
  1  3  1  0  0  0  0
  2  4  1  0  0  0  0
  3  9  2  0  0  0  0
  4  5  2  0  0  0  0
  4 10  1  0  0  0  0
  5  9  1  0  0  0  0
  5 11  1  0  0  0  0
  6  7  1  0  0  0  0
  6  8  1  0  0  0  0
  7 10  1  0  0  0  0
  8 11  1  0  0  0  0
  1 12  1  0  0  0  0
  2 13  1  0  0  0  0
  3 14  1  0  0  0  0
  6 15  1  0  0  0  0
  6 16  1  0  0  0  0
  7 17  1  0  0  0  0
  7 18  1  0  0  0  0
  8 19  1  0  0  0  0
  8 20  1  0  0  0  0
 10 21  1  0  0  0  0
 11 22  1  0  0  0  0
M  END
> <idnumber>
Z1389212140

> <heavy_atoms>
11

> <LogS>
-0.37

> <LogP>
1.662

> <rotating_bonds>
0

> <PSA>
36.95

> <hb_acceptors>
3

> <hb_donors>
2

> <Collection>
Legacy

> <link>
https://www.enaminestore.com/catalog/Z1389212140

> <ROCS_ShapeQuery>
_x1140_x0812_0A_x1140_0A_x1097_0A_x0365_0A_x1097_0A_x0310_0A

> <ROCS_TanimotoCombo>
0.627 

> <ROCS_ShapeTanimoto>
0.209 

> <ROCS_ColorTanimoto>
0.418 

> <ROCS_RefTversky>
0.190 

> <ROCS_RefColorTversky>
0.488 

> <ROCS_RefTverskyCombo>
0.678 

> <ROCS_FitTversky>
1.935 

> <ROCS_FitColorTversky>
0.743 

> <ROCS_FitTverskyCombo>
2.678 

> <ROCS_ColorScore>
-3.830

> <ROCS_Overlap>
1946.255

> <ROCS_Rank>
424                 

$$$$
untitled-dbase-283635_10
  -OEChem-02092421083D

 33 34  0     0  0  0  0  0  0999 V2000
   11.9155   15.2688   22.2767 C   0  0  0  0  0  0  0  0  0  0  0  0
    8.5416   12.4713   24.4588 C   0  0  0  0  0  0  0  0  0  0  0  0
    7.7699   11.9409   25.4866 C   0  0  0  0  0  0  0  0  0  0  0  0
    8.8916   10.2617   23.6515 C   0  0  0  0  0  0  0  0  0  0  0  0
    9.1167   11.6224   23.5196 C   0  0  0  0  0  0  0  0  0  0  0  0
    7.6049   10.5659   25.5304 C   0  0  0  0  0  0  0  0  0  0  0  0
    9.9459   12.1570   22.4089 C   0  0  0  0  0  0  0  0  0  0  0  0
   12.5737   13.0852   21.3031 C   0  0  0  0  0  0  0  0  0  0  0  0
   10.5302   14.3523   20.4397 C   0  0  0  0  0  0  0  0  0  0  0  0
   13.4855   13.6009   20.1909 C   0  0  0  0  0  0  0  0  0  0  0  0
   11.2854   14.9664   19.2622 C   0  0  0  0  0  0  0  0  0  0  0  0
   11.4048   14.0222   21.6670 C   0  0  0  0  0  0  0  0  0  0  0  0
    6.7841    9.9622   26.6210 C   0  0  0  0  0  0  0  0  0  0  0  0
   12.3162   16.2470   22.7550 N   0  0  0  0  0  0  0  0  0  0  0  0
    8.1478    9.7095   24.6362 N   0  0  0  0  0  0  0  0  0  0  0  0
   10.5779   13.3581   22.6631 N   0  0  0  0  0  0  0  0  0  0  0  0
   10.0067   11.5342   21.3520 O   0  0  0  0  0  0  0  0  0  0  0  0
    6.2678   10.8813   27.4890 F   0  0  0  0  0  0  0  0  0  0  0  0
    5.7073    9.2562   26.1666 F   0  0  0  0  0  0  0  0  0  0  0  0
    7.4965    9.0899   27.3913 F   0  0  0  0  0  0  0  0  0  0  0  0
   12.5832   13.8635   18.6406 S   0  0  0  0  0  0  0  0  0  0  0  0
    8.6883   13.5463   24.3984 H   0  0  0  0  0  0  0  0  0  0  0  0
    7.3146   12.5917   26.2255 H   0  0  0  0  0  0  0  0  0  0  0  0
    9.3145    9.5490   22.9497 H   0  0  0  0  0  0  0  0  0  0  0  0
   12.1784   12.1034   21.0057 H   0  0  0  0  0  0  0  0  0  0  0  0
   13.1967   12.9062   22.1905 H   0  0  0  0  0  0  0  0  0  0  0  0
    9.7343   15.0527   20.7289 H   0  0  0  0  0  0  0  0  0  0  0  0
   10.0235   13.4402   20.0943 H   0  0  0  0  0  0  0  0  0  0  0  0
   13.9763   14.5356   20.4806 H   0  0  0  0  0  0  0  0  0  0  0  0
   14.2771   12.8690   19.9997 H   0  0  0  0  0  0  0  0  0  0  0  0
   10.5863   15.1591   18.4418 H   0  0  0  0  0  0  0  0  0  0  0  0
   11.7337   15.9275   19.5343 H   0  0  0  0  0  0  0  0  0  0  0  0
   10.4353   13.8509   23.5338 H   0  0  0  0  0  0  0  0  0  0  0  0
  1 12  1  0  0  0  0
  1 14  3  0  0  0  0
  2  3  2  0  0  0  0
  2  5  1  0  0  0  0
  3  6  1  0  0  0  0
  4  5  2  0  0  0  0
  4 15  1  0  0  0  0
  5  7  1  0  0  0  0
  6 13  1  0  0  0  0
  6 15  2  0  0  0  0
  7 16  1  0  0  0  0
  7 17  2  0  0  0  0
  8 10  1  0  0  0  0
  8 12  1  0  0  0  0
  9 11  1  0  0  0  0
  9 12  1  0  0  0  0
 10 21  1  0  0  0  0
 11 21  1  0  0  0  0
 12 16  1  0  0  0  0
 13 18  1  0  0  0  0
 13 19  1  0  0  0  0
 13 20  1  0  0  0  0
  2 22  1  0  0  0  0
  3 23  1  0  0  0  0
  4 24  1  0  0  0  0
  8 25  1  0  0  0  0
  8 26  1  0  0  0  0
  9 27  1  0  0  0  0
  9 28  1  0  0  0  0
 10 29  1  0  0  0  0
 10 30  1  0  0  0  0
 11 31  1  0  0  0  0
 11 32  1  0  0  0  0
 16 33  1  0  0  0  0
M  END
> <idnumber>
Z1517966058

> <heavy_atoms>
21

> <LogS>
-3.806

> <LogP>
1.047

> <rotating_bonds>
3

> <PSA>
65.78

> <hb_acceptors>
3

> <hb_donors>
1

> <Collection>
Functional

> <link>
https://www.enaminestore.com/catalog/Z1517966058

> <ROCS_ShapeQuery>
_x1140_x0812_0A_x1140_0A_x1097_0A_x0365_0A_x1097_0A_x0310_0A

> <ROCS_TanimotoCombo>
0.627 

> <ROCS_ShapeTanimoto>
0.229 

> <ROCS_ColorTanimoto>
0.398 

> <ROCS_RefTversky>
0.212 

> <ROCS_RefColorTversky>
0.504 

> <ROCS_RefTverskyCombo>
0.716 

> <ROCS_FitTversky>
1.535 

> <ROCS_FitColorTversky>
0.653 

> <ROCS_FitTverskyCombo>
2.188 

> <ROCS_ColorScore>
-3.983

> <ROCS_Overlap>
2178.095

> <ROCS_Rank>
425                 

$$$$
untitled-dbase-705039_40
  -OEChem-02092421083D

 36 38  0     0  0  0  0  0  0999 V2000
    3.5847   11.1605   28.3506 C   0  0  0  0  0  0  0  0  0  0  0  0
    5.5592   12.4690   28.8262 C   0  0  0  0  0  0  0  0  0  0  0  0
    4.2565   10.5265   27.3055 C   0  0  0  0  0  0  0  0  0  0  0  0
    6.2311   11.8349   27.7812 C   0  0  0  0  0  0  0  0  0  0  0  0
    8.3326   12.3205   23.9799 C   0  0  0  0  0  0  0  0  0  0  0  0
    4.2360   12.1318   29.1110 C   0  0  0  0  0  0  0  0  0  0  0  0
    5.5798   10.8636   27.0208 C   0  0  0  0  0  0  0  0  0  0  0  0
    9.2524   11.4382   23.4510 C   0  0  0  0  0  0  0  0  0  0  0  0
    9.0973   10.1189   23.8245 C   0  0  0  0  0  0  0  0  0  0  0  0
    7.2888   10.6399   25.0992 C   0  0  0  0  0  0  0  0  0  0  0  0
    9.3908    8.1677   21.0420 C   0  0  0  0  0  0  0  0  0  0  0  0
   10.5428    7.3677   21.5782 C   0  0  0  0  0  0  0  0  0  0  0  0
    9.5960    8.0480   22.5251 C   0  0  0  0  0  0  0  0  0  0  0  0
    3.5183   12.8105   30.2282 C   0  0  0  0  0  0  0  0  0  0  0  0
    7.3342   11.9543   24.8102 N   0  0  0  0  0  0  0  0  0  0  0  0
    8.1233    9.6830   24.6501 N   0  0  0  0  0  0  0  0  0  0  0  0
    6.2600   10.2215   25.9655 N   0  0  0  0  0  0  0  0  0  0  0  0
   10.0093    9.1601   23.3172 N   0  0  0  0  0  0  0  0  0  0  0  0
   10.2776   11.8935   22.5830 N   0  3  0  0  0  0  0  0  0  0  0  0
   11.3749   12.2569   23.0732 O   0  5  0  0  0  0  0  0  0  0  0  0
   10.0614   11.9219   21.3464 O   0  0  0  0  0  0  0  0  0  0  0  0
    2.5536   10.8924   28.5648 H   0  0  0  0  0  0  0  0  0  0  0  0
    6.0741   13.2256   29.4121 H   0  0  0  0  0  0  0  0  0  0  0  0
    3.7392    9.7721   26.7184 H   0  0  0  0  0  0  0  0  0  0  0  0
    7.2618   12.1060   27.5677 H   0  0  0  0  0  0  0  0  0  0  0  0
    8.3643   13.3817   23.7506 H   0  0  0  0  0  0  0  0  0  0  0  0
    9.6144    9.1139   20.5651 H   0  0  0  0  0  0  0  0  0  0  0  0
    8.5623    7.6265   20.6019 H   0  0  0  0  0  0  0  0  0  0  0  0
   10.4886    6.2891   21.4982 H   0  0  0  0  0  0  0  0  0  0  0  0
   11.5381    7.7782   21.4596 H   0  0  0  0  0  0  0  0  0  0  0  0
    8.9011    7.4125   23.0631 H   0  0  0  0  0  0  0  0  0  0  0  0
    3.6595   12.2573   31.1649 H   0  0  0  0  0  0  0  0  0  0  0  0
    3.8830   13.8360   30.3715 H   0  0  0  0  0  0  0  0  0  0  0  0
    2.4417   12.8820   30.0252 H   0  0  0  0  0  0  0  0  0  0  0  0
    5.9449    9.2705   25.7975 H   0  0  0  0  0  0  0  0  0  0  0  0
   10.9735    9.2964   23.5424 H   0  0  0  0  0  0  0  0  0  0  0  0
  1  3  2  0  0  0  0
  1  6  1  0  0  0  0
  2  4  1  0  0  0  0
  2  6  2  0  0  0  0
  3  7  1  0  0  0  0
  4  7  2  0  0  0  0
  5  8  1  0  0  0  0
  5 15  2  0  0  0  0
  6 14  1  0  0  0  0
  7 17  1  0  0  0  0
  8  9  2  0  0  0  0
  8 19  1  0  0  0  0
  9 16  1  0  0  0  0
  9 18  1  0  0  0  0
 10 15  1  0  0  0  0
 10 16  2  0  0  0  0
 10 17  1  0  0  0  0
 11 12  1  0  0  0  0
 11 13  1  0  0  0  0
 12 13  1  0  0  0  0
 13 18  1  0  0  0  0
 19 20  1  0  0  0  0
 19 21  2  0  0  0  0
  1 22  1  0  0  0  0
  2 23  1  0  0  0  0
  3 24  1  0  0  0  0
  4 25  1  0  0  0  0
  5 26  1  0  0  0  0
 11 27  1  0  0  0  0
 11 28  1  0  0  0  0
 12 29  1  0  0  0  0
 12 30  1  0  0  0  0
 13 31  1  0  0  0  0
 14 32  1  0  0  0  0
 14 33  1  0  0  0  0
 14 34  1  0  0  0  0
 17 35  1  0  0  0  0
 18 36  1  0  0  0  0
M  CHG  2  19   1  20  -1
M  END
> <idnumber>
Z324800370

> <heavy_atoms>
21

> <LogS>
-4.64

> <LogP>
4.376

> <rotating_bonds>
5

> <PSA>
92.98

> <hb_acceptors>
6

> <hb_donors>
2

> <Collection>
Legacy

> <link>
https://www.enaminestore.com/catalog/Z324800370

> <ROCS_ShapeQuery>
_x1140_x0812_0A_x1140_0A_x1097_0A_x0365_0A_x1097_0A_x0310_0A

> <ROCS_TanimotoCombo>
0.627 

> <ROCS_ShapeTanimoto>
0.255 

> <ROCS_ColorTanimoto>
0.372 

> <ROCS_RefTversky>
0.232 

> <ROCS_RefColorTversky>
0.543 

> <ROCS_RefTverskyCombo>
0.774 

> <ROCS_FitTversky>
1.645 

> <ROCS_FitColorTversky>
0.541 

> <ROCS_FitTverskyCombo>
2.186 

> <ROCS_ColorScore>
-4.342

> <ROCS_Overlap>
2379.443

> <ROCS_Rank>
426                 

$$$$
untitled-dbase-704835_0
  -OEChem-02092421083D

 38 39  0     0  0  0  0  0  0999 V2000
    8.3733   12.0774   24.3170 C   0  0  0  0  0  0  0  0  0  0  0  0
   12.2935   17.6236   22.2279 C   0  0  0  0  0  0  0  0  0  0  0  0
   11.4704   16.3776   20.6140 C   0  0  0  0  0  0  0  0  0  0  0  0
   11.7749   17.6814   20.9204 C   0  0  0  0  0  0  0  0  0  0  0  0
    7.7922   10.8787   24.7722 C   0  0  0  0  0  0  0  0  0  0  0  0
    9.4437   11.6732   23.5572 C   0  0  0  0  0  0  0  0  0  0  0  0
   10.4917   13.8113   22.7372 C   0  0  0  0  0  0  0  0  0  0  0  0
    6.6071   10.7272   25.6333 C   0  0  0  0  0  0  0  0  0  0  0  0
   11.8297    9.6653   23.4524 C   0  0  0  0  0  0  0  0  0  0  0  0
   10.3494    9.5940   21.4070 C   0  0  0  0  0  0  0  0  0  0  0  0
   10.1132    7.8876   23.1963 C   0  0  0  0  0  0  0  0  0  0  0  0
   11.6751   14.2016   21.8711 C   0  0  0  0  0  0  0  0  0  0  0  0
   10.4000    9.3874   22.9373 C   0  0  0  0  0  0  0  0  0  0  0  0
   12.3184   16.3815   22.7184 N   0  0  0  0  0  0  0  0  0  0  0  0
    8.4396    9.7943   24.3378 N   0  0  0  0  0  0  0  0  0  0  0  0
   11.8115   15.6467   21.7138 N   0  0  0  0  0  0  0  0  0  0  0  0
    9.4387   10.3101   23.6015 N   0  0  0  0  0  0  0  0  0  0  0  0
   10.3731   12.4011   22.8645 N   0  0  0  0  0  0  0  0  0  0  0  0
    9.7514   14.6444   23.2494 O   0  0  0  0  0  0  0  0  0  0  0  0
   11.5838   19.0635   19.9676 Cl  0  0  0  0  0  0  0  0  0  0  0  0
    8.0589   13.0928   24.5130 H   0  0  0  0  0  0  0  0  0  0  0  0
   12.6556   18.4325   22.8469 H   0  0  0  0  0  0  0  0  0  0  0  0
   11.0502   15.9182   19.7295 H   0  0  0  0  0  0  0  0  0  0  0  0
    5.6825   10.6616   25.0345 H   0  0  0  0  0  0  0  0  0  0  0  0
    6.6612    9.8202   26.2616 H   0  0  0  0  0  0  0  0  0  0  0  0
    6.4898   11.5732   26.3342 H   0  0  0  0  0  0  0  0  0  0  0  0
   11.8931    9.5255   24.5377 H   0  0  0  0  0  0  0  0  0  0  0  0
   12.5708    8.9972   23.0007 H   0  0  0  0  0  0  0  0  0  0  0  0
   12.1346   10.6942   23.2284 H   0  0  0  0  0  0  0  0  0  0  0  0
    9.3518    9.4076   20.9957 H   0  0  0  0  0  0  0  0  0  0  0  0
   10.6186   10.6219   21.1377 H   0  0  0  0  0  0  0  0  0  0  0  0
   11.0472    8.9200   20.8966 H   0  0  0  0  0  0  0  0  0  0  0  0
    9.1078    7.6141   22.8537 H   0  0  0  0  0  0  0  0  0  0  0  0
   10.8195    7.2427   22.6608 H   0  0  0  0  0  0  0  0  0  0  0  0
   10.1647    7.6450   24.2640 H   0  0  0  0  0  0  0  0  0  0  0  0
   12.6018   13.8203   22.3151 H   0  0  0  0  0  0  0  0  0  0  0  0
   11.5672   13.7608   20.8734 H   0  0  0  0  0  0  0  0  0  0  0  0
   11.1083   11.8780   22.3502 H   0  0  0  0  0  0  0  0  0  0  0  0
  1  5  1  0  0  0  0
  1  6  2  0  0  0  0
  2  4  1  0  0  0  0
  2 14  2  0  0  0  0
  3  4  2  0  0  0  0
  3 16  1  0  0  0  0
  4 20  1  0  0  0  0
  5  8  1  0  0  0  0
  5 15  2  0  0  0  0
  6 17  1  0  0  0  0
  6 18  1  0  0  0  0
  7 12  1  0  0  0  0
  7 18  1  0  0  0  0
  7 19  2  0  0  0  0
  9 13  1  0  0  0  0
 10 13  1  0  0  0  0
 11 13  1  0  0  0  0
 12 16  1  0  0  0  0
 13 17  1  0  0  0  0
 14 16  1  0  0  0  0
 15 17  1  0  0  0  0
  1 21  1  0  0  0  0
  2 22  1  0  0  0  0
  3 23  1  0  0  0  0
  8 24  1  0  0  0  0
  8 25  1  0  0  0  0
  8 26  1  0  0  0  0
  9 27  1  0  0  0  0
  9 28  1  0  0  0  0
  9 29  1  0  0  0  0
 10 30  1  0  0  0  0
 10 31  1  0  0  0  0
 10 32  1  0  0  0  0
 11 33  1  0  0  0  0
 11 34  1  0  0  0  0
 11 35  1  0  0  0  0
 12 36  1  0  0  0  0
 12 37  1  0  0  0  0
 18 38  1  0  0  0  0
M  END
> <idnumber>
Z1238953651

> <heavy_atoms>
20

> <LogS>
-1.885

> <LogP>
2.052

> <rotating_bonds>
4

> <PSA>
64.74

> <hb_acceptors>
3

> <hb_donors>
1

> <Collection>
HTS

> <link>
https://www.enaminestore.com/catalog/Z1238953651

> <ROCS_ShapeQuery>
_x1140_x0812_0A_x1140_0A_x1097_0A_x0365_0A_x1097_0A_x0310_0A

> <ROCS_TanimotoCombo>
0.627 

> <ROCS_ShapeTanimoto>
0.240 

> <ROCS_ColorTanimoto>
0.387 

> <ROCS_RefTversky>
0.219 

> <ROCS_RefColorTversky>
0.526 

> <ROCS_RefTverskyCombo>
0.746 

> <ROCS_FitTversky>
1.626 

> <ROCS_FitColorTversky>
0.594 

> <ROCS_FitTverskyCombo>
2.220 

> <ROCS_ColorScore>
-4.186

> <ROCS_Overlap>
2251.888

> <ROCS_Rank>
427                 

$$$$
untitled-dbase-1175218_79
  -OEChem-02092421083D

 32 34  0     0  0  0  0  0  0999 V2000
    8.8121   13.8339   21.0789 C   0  0  0  0  0  0  0  0  0  0  0  0
    8.7077   12.5607   24.3762 C   0  0  0  0  0  0  0  0  0  0  0  0
    6.7512   12.4383   26.1183 C   0  0  0  0  0  0  0  0  0  0  0  0
    9.1035   10.3399   23.5584 C   0  0  0  0  0  0  0  0  0  0  0  0
    8.2646   14.7310   20.1883 C   0  0  0  0  0  0  0  0  0  0  0  0
    7.6993   12.0023   25.1714 C   0  0  0  0  0  0  0  0  0  0  0  0
   10.0119   14.3284   21.6672 C   0  0  0  0  0  0  0  0  0  0  0  0
    9.4231   11.6936   23.5503 C   0  0  0  0  0  0  0  0  0  0  0  0
    7.4840   10.6359   25.0827 C   0  0  0  0  0  0  0  0  0  0  0  0
   10.3359   15.5846   21.2035 C   0  0  0  0  0  0  0  0  0  0  0  0
   12.8980   16.2579   20.3455 C   0  0  0  0  0  0  0  0  0  0  0  0
   10.8224   13.5642   22.6739 C   0  0  0  0  0  0  0  0  0  0  0  0
    8.1391    9.7535   24.3082 N   0  0  0  0  0  0  0  0  0  0  0  0
    5.9969   11.4416   26.5932 N   0  0  0  0  0  0  0  0  0  0  0  0
    6.4652   10.3592   25.9458 N   0  0  0  0  0  0  0  0  0  0  0  0
   10.4510   12.1821   22.7229 N   0  0  0  0  0  0  0  0  0  0  0  0
   11.1889   18.0352   21.2371 O   0  0  0  0  0  0  0  0  0  0  0  0
   12.1957   16.3850   22.8524 O   0  0  0  0  0  0  0  0  0  0  0  0
    9.1960   16.1626   20.0640 S   0  0  0  0  0  0  0  0  0  0  0  0
   11.6582   16.6946   21.5390 S   0  0  0  0  0  0  0  0  0  0  0  0
    8.3684   12.8703   21.2945 H   0  0  0  0  0  0  0  0  0  0  0  0
    8.9218   13.6244   24.4033 H   0  0  0  0  0  0  0  0  0  0  0  0
    6.5769   13.4405   26.4836 H   0  0  0  0  0  0  0  0  0  0  0  0
    9.6476    9.6446   22.9229 H   0  0  0  0  0  0  0  0  0  0  0  0
    7.3627   14.6143   19.6043 H   0  0  0  0  0  0  0  0  0  0  0  0
   13.7607   16.9100   20.4907 H   0  0  0  0  0  0  0  0  0  0  0  0
   13.1761   15.2149   20.5038 H   0  0  0  0  0  0  0  0  0  0  0  0
   12.4787   16.3950   19.3476 H   0  0  0  0  0  0  0  0  0  0  0  0
   11.8894   13.6184   22.4317 H   0  0  0  0  0  0  0  0  0  0  0  0
   10.6953   13.9809   23.6785 H   0  0  0  0  0  0  0  0  0  0  0  0
    6.0420    9.4607   26.1420 H   0  0  0  0  0  0  0  0  0  0  0  0
   10.9323   11.5142   22.1480 H   0  0  0  0  0  0  0  0  0  0  0  0
  1  5  2  0  0  0  0
  1  7  1  0  0  0  0
  2  6  1  0  0  0  0
  2  8  2  0  0  0  0
  3  6  1  0  0  0  0
  3 14  2  0  0  0  0
  4  8  1  0  0  0  0
  4 13  2  0  0  0  0
  5 19  1  0  0  0  0
  6  9  2  0  0  0  0
  7 10  2  0  0  0  0
  7 12  1  0  0  0  0
  8 16  1  0  0  0  0
  9 13  1  0  0  0  0
  9 15  1  0  0  0  0
 10 19  1  0  0  0  0
 10 20  1  0  0  0  0
 11 20  1  0  0  0  0
 12 16  1  0  0  0  0
 14 15  1  0  0  0  0
 17 20  2  0  0  0  0
 18 20  2  0  0  0  0
  1 21  1  0  0  0  0
  2 22  1  0  0  0  0
  3 23  1  0  0  0  0
  4 24  1  0  0  0  0
  5 25  1  0  0  0  0
 11 26  1  0  0  0  0
 11 27  1  0  0  0  0
 11 28  1  0  0  0  0
 12 29  1  0  0  0  0
 12 30  1  0  0  0  0
 15 31  1  0  0  0  0
 16 32  1  0  0  0  0
M  END
> <idnumber>
Z8661598944

> <heavy_atoms>
20

> <LogS>
-3.162

> <LogP>
1.085

> <rotating_bonds>
4

> <PSA>
87.74

> <hb_acceptors>
5

> <hb_donors>
2

> <Collection>
Advanced

> <link>
https://www.enaminestore.com/catalog/Z8661598944

> <ROCS_ShapeQuery>
_x1140_x0812_0A_x1140_0A_x1097_0A_x0365_0A_x1097_0A_x0310_0A

> <ROCS_TanimotoCombo>
0.627 

> <ROCS_ShapeTanimoto>
0.248 

> <ROCS_ColorTanimoto>
0.379 

> <ROCS_RefTversky>
0.225 

> <ROCS_RefColorTversky>
0.581 

> <ROCS_RefTverskyCombo>
0.806 

> <ROCS_FitTversky>
1.676 

> <ROCS_FitColorTversky>
0.521 

> <ROCS_FitTverskyCombo>
2.197 

> <ROCS_ColorScore>
-4.679

> <ROCS_Overlap>
2310.699

> <ROCS_Rank>
428                 

$$$$
untitled-dbase-985946_129
  -OEChem-02092421083D

 31 32  0     0  0  0  0  0  0999 V2000
    9.0866   12.4306   25.0074 C   0  0  0  0  0  0  0  0  0  0  0  0
    9.8746   11.5101   24.3254 C   0  0  0  0  0  0  0  0  0  0  0  0
    7.3004   10.8611   24.9564 C   0  0  0  0  0  0  0  0  0  0  0  0
    7.7739   12.1077   25.3327 C   0  0  0  0  0  0  0  0  0  0  0  0
   10.9885   10.7668   21.5190 C   0  0  0  0  0  0  0  0  0  0  0  0
   11.8231   11.1321   20.4836 C   0  0  0  0  0  0  0  0  0  0  0  0
    9.3071   10.2902   23.9943 C   0  0  0  0  0  0  0  0  0  0  0  0
    9.6923   12.2530   20.5593 C   0  0  0  0  0  0  0  0  0  0  0  0
   13.1789   10.6570   20.1416 C   0  0  0  0  0  0  0  0  0  0  0  0
    8.5291   13.1234   20.2813 C   0  0  0  0  0  0  0  0  0  0  0  0
   11.2930    9.7521   22.5829 C   0  0  0  0  0  0  0  0  0  0  0  0
    8.0358    9.9408   24.2932 N   0  0  0  0  0  0  0  0  0  0  0  0
    9.7664   11.4088   21.5643 N   0  0  0  0  0  0  0  0  0  0  0  0
   10.1227    9.3626   23.2997 N   0  0  0  0  0  0  0  0  0  0  0  0
    5.7088   12.4804   26.8482 O   0  0  0  0  0  0  0  0  0  0  0  0
    7.6174   14.1586   26.9044 O   0  0  0  0  0  0  0  0  0  0  0  0
    6.0080   14.1239   25.1034 F   0  0  0  0  0  0  0  0  0  0  0  0
   11.0561   12.3258   19.5202 S   0  0  0  0  0  0  0  0  0  0  0  0
    6.7584   13.2342   26.1869 S   0  0  0  0  0  0  0  0  0  0  0  0
    9.5043   13.3957   25.2805 H   0  0  0  0  0  0  0  0  0  0  0  0
   10.9002   11.7537   24.0676 H   0  0  0  0  0  0  0  0  0  0  0  0
    6.2846   10.5520   25.1827 H   0  0  0  0  0  0  0  0  0  0  0  0
   13.1358    9.7911   19.4611 H   0  0  0  0  0  0  0  0  0  0  0  0
   13.7795   11.4408   19.6499 H   0  0  0  0  0  0  0  0  0  0  0  0
   13.7479   10.3527   21.0365 H   0  0  0  0  0  0  0  0  0  0  0  0
    8.6296   14.0919   20.7957 H   0  0  0  0  0  0  0  0  0  0  0  0
    8.4144   13.3237   19.2035 H   0  0  0  0  0  0  0  0  0  0  0  0
    7.5834   12.6625   20.6106 H   0  0  0  0  0  0  0  0  0  0  0  0
   11.7341    8.8513   22.1424 H   0  0  0  0  0  0  0  0  0  0  0  0
   12.0136   10.1462   23.3072 H   0  0  0  0  0  0  0  0  0  0  0  0
    9.8386    8.4049   23.3318 H   0  0  0  0  0  0  0  0  0  0  0  0
  1  2  2  0  0  0  0
  1  4  1  0  0  0  0
  2  7  1  0  0  0  0
  3  4  2  0  0  0  0
  3 12  1  0  0  0  0
  4 19  1  0  0  0  0
  5  6  2  0  0  0  0
  5 11  1  0  0  0  0
  5 13  1  0  0  0  0
  6  9  1  0  0  0  0
  6 18  1  0  0  0  0
  7 12  2  0  0  0  0
  7 14  1  0  0  0  0
  8 10  1  0  0  0  0
  8 13  2  0  0  0  0
  8 18  1  0  0  0  0
 11 14  1  0  0  0  0
 15 19  2  0  0  0  0
 16 19  2  0  0  0  0
 17 19  1  0  0  0  0
  1 20  1  0  0  0  0
  2 21  1  0  0  0  0
  3 22  1  0  0  0  0
  9 23  1  0  0  0  0
  9 24  1  0  0  0  0
  9 25  1  0  0  0  0
 10 26  1  0  0  0  0
 10 27  1  0  0  0  0
 10 28  1  0  0  0  0
 11 29  1  0  0  0  0
 11 30  1  0  0  0  0
 14 31  1  0  0  0  0
M  END
> <idnumber>
Z2970772770

> <heavy_atoms>
19

> <LogS>
-2.272

> <LogP>
2.351

> <rotating_bonds>
4

> <PSA>
71.95

> <hb_acceptors>
5

> <hb_donors>
1

> <Collection>
Functional

> <link>
https://www.enaminestore.com/catalog/Z2970772770

> <ROCS_ShapeQuery>
_x1140_x0812_0A_x1140_0A_x1097_0A_x0365_0A_x1097_0A_x0310_0A

> <ROCS_TanimotoCombo>
0.627 

> <ROCS_ShapeTanimoto>
0.216 

> <ROCS_ColorTanimoto>
0.410 

> <ROCS_RefTversky>
0.200 

> <ROCS_RefColorTversky>
0.482 

> <ROCS_RefTverskyCombo>
0.682 

> <ROCS_FitTversky>
1.572 

> <ROCS_FitColorTversky>
0.734 

> <ROCS_FitTverskyCombo>
2.306 

> <ROCS_ColorScore>
-3.782

> <ROCS_Overlap>
2057.049

> <ROCS_Rank>
429                 

$$$$
untitled-dbase-24681_2
  -OEChem-02092421083D

 24 25  0     0  0  0  0  0  0999 V2000
    9.5637   11.6089   23.9043 C   0  0  0  0  0  0  0  0  0  0  0  0
    8.7243   12.4346   24.6240 C   0  0  0  0  0  0  0  0  0  0  0  0
    9.2151   10.2739   23.8845 C   0  0  0  0  0  0  0  0  0  0  0  0
    7.3935   10.6784   25.1826 C   0  0  0  0  0  0  0  0  0  0  0  0
   12.5435   10.0098   23.1550 C   0  0  0  0  0  0  0  0  0  0  0  0
   12.3448    8.8984   22.1652 C   0  0  0  0  0  0  0  0  0  0  0  0
   11.2206    9.8491   22.4621 C   0  0  0  0  0  0  0  0  0  0  0  0
    5.3760   11.0304   26.6079 C   0  0  0  0  0  0  0  0  0  0  0  0
    7.6264   12.0013   25.2778 N   0  0  0  0  0  0  0  0  0  0  0  0
    8.1329    9.7722   24.5150 N   0  0  0  0  0  0  0  0  0  0  0  0
   10.0313    9.4150   23.1767 N   0  0  0  0  0  0  0  0  0  0  0  0
    6.2533   10.1889   25.8559 N   0  0  0  0  0  0  0  0  0  0  0  0
   10.4368   11.9971   23.3945 H   0  0  0  0  0  0  0  0  0  0  0  0
    8.9170   13.4996   24.6983 H   0  0  0  0  0  0  0  0  0  0  0  0
   12.6128    9.7440   24.2025 H   0  0  0  0  0  0  0  0  0  0  0  0
   13.1700   10.8425   22.8596 H   0  0  0  0  0  0  0  0  0  0  0  0
   12.8380    8.9839   21.2048 H   0  0  0  0  0  0  0  0  0  0  0  0
   12.2818    7.8880   22.5502 H   0  0  0  0  0  0  0  0  0  0  0  0
   10.9806   10.5778   21.6956 H   0  0  0  0  0  0  0  0  0  0  0  0
    5.7357   12.0690   26.5633 H   0  0  0  0  0  0  0  0  0  0  0  0
    4.3624   10.9751   26.1840 H   0  0  0  0  0  0  0  0  0  0  0  0
    5.3543   10.6946   27.6551 H   0  0  0  0  0  0  0  0  0  0  0  0
    9.7997    8.4332   23.1456 H   0  0  0  0  0  0  0  0  0  0  0  0
    6.0749    9.2052   25.7886 H   0  0  0  0  0  0  0  0  0  0  0  0
  1  2  1  0  0  0  0
  1  3  2  0  0  0  0
  2  9  2  0  0  0  0
  3 10  1  0  0  0  0
  3 11  1  0  0  0  0
  4  9  1  0  0  0  0
  4 10  2  0  0  0  0
  4 12  1  0  0  0  0
  5  6  1  0  0  0  0
  5  7  1  0  0  0  0
  6  7  1  0  0  0  0
  7 11  1  0  0  0  0
  8 12  1  0  0  0  0
  1 13  1  0  0  0  0
  2 14  1  0  0  0  0
  5 15  1  0  0  0  0
  5 16  1  0  0  0  0
  6 17  1  0  0  0  0
  6 18  1  0  0  0  0
  7 19  1  0  0  0  0
  8 20  1  0  0  0  0
  8 21  1  0  0  0  0
  8 22  1  0  0  0  0
 11 23  1  0  0  0  0
 12 24  1  0  0  0  0
M  END
> <idnumber>
Z1431037426

> <heavy_atoms>
12

> <LogS>
-1.753

> <LogP>
1.894

> <rotating_bonds>
3

> <PSA>
49.84

> <hb_acceptors>
4

> <hb_donors>
2

> <Collection>
Functional

> <link>
https://www.enaminestore.com/catalog/Z1431037426

> <ROCS_ShapeQuery>
_x1140_x0812_0A_x1140_0A_x1097_0A_x0365_0A_x1097_0A_x0310_0A

> <ROCS_TanimotoCombo>
0.627 

> <ROCS_ShapeTanimoto>
0.205 

> <ROCS_ColorTanimoto>
0.421 

> <ROCS_RefTversky>
0.188 

> <ROCS_RefColorTversky>
0.491 

> <ROCS_RefTverskyCombo>
0.679 

> <ROCS_FitTversky>
1.849 

> <ROCS_FitColorTversky>
0.748 

> <ROCS_FitTverskyCombo>
2.596 

> <ROCS_ColorScore>
-3.854

> <ROCS_Overlap>
1923.356

> <ROCS_Rank>
430                 

$$$$
untitled-dbase-483691_95
  -OEChem-02092421083D

 37 39  0     0  0  0  0  0  0999 V2000
   11.5229   16.2288   25.3753 C   0  0  0  0  0  0  0  0  0  0  0  0
   11.3700   17.4345   24.6998 C   0  0  0  0  0  0  0  0  0  0  0  0
    6.6287   10.1599   26.5237 C   0  0  0  0  0  0  0  0  0  0  0  0
    6.0244   11.0848   27.3742 C   0  0  0  0  0  0  0  0  0  0  0  0
   12.0900   15.1398   24.7227 C   0  0  0  0  0  0  0  0  0  0  0  0
    7.0829   12.8891   26.1643 C   0  0  0  0  0  0  0  0  0  0  0  0
   11.7968   17.4989   23.3832 C   0  0  0  0  0  0  0  0  0  0  0  0
    7.6959   11.9656   25.3091 C   0  0  0  0  0  0  0  0  0  0  0  0
    7.4682   10.5982   25.4964 C   0  0  0  0  0  0  0  0  0  0  0  0
    6.2520   12.4480   27.1955 C   0  0  0  0  0  0  0  0  0  0  0  0
   12.4844   15.3069   23.4051 C   0  0  0  0  0  0  0  0  0  0  0  0
    8.5490   12.4157   24.2177 C   0  0  0  0  0  0  0  0  0  0  0  0
    9.1786   11.4777   23.5067 C   0  0  0  0  0  0  0  0  0  0  0  0
   10.0479   11.9156   22.4130 C   0  0  0  0  0  0  0  0  0  0  0  0
    9.0414   10.0133   23.7768 C   0  0  0  0  0  0  0  0  0  0  0  0
   13.1035   14.1463   22.6656 C   0  0  0  0  0  0  0  0  0  0  0  0
   12.0730   13.2841   21.9407 C   0  0  0  0  0  0  0  0  0  0  0  0
   12.3521   16.4625   22.7160 N   0  0  0  0  0  0  0  0  0  0  0  0
   11.0840   12.7302   22.8375 N   0  0  0  0  0  0  0  0  0  0  0  0
    9.8347   11.5637   21.2523 O   0  0  0  0  0  0  0  0  0  0  0  0
    8.0069    9.6279   24.6963 O   0  0  0  0  0  0  0  0  0  0  0  0
    5.5028   13.5893   28.2442 Cl  0  0  0  0  0  0  0  0  0  0  0  0
   11.2008   16.1382   26.4083 H   0  0  0  0  0  0  0  0  0  0  0  0
   10.9306   18.2965   25.1885 H   0  0  0  0  0  0  0  0  0  0  0  0
    6.4424    9.0988   26.6677 H   0  0  0  0  0  0  0  0  0  0  0  0
    5.3765   10.7279   28.1708 H   0  0  0  0  0  0  0  0  0  0  0  0
   12.2149   14.1937   25.2385 H   0  0  0  0  0  0  0  0  0  0  0  0
    7.2533   13.9550   26.0243 H   0  0  0  0  0  0  0  0  0  0  0  0
   11.6998   18.4165   22.8124 H   0  0  0  0  0  0  0  0  0  0  0  0
    8.6531   13.4774   24.0254 H   0  0  0  0  0  0  0  0  0  0  0  0
    8.8315    9.4863   22.8391 H   0  0  0  0  0  0  0  0  0  0  0  0
    9.9877    9.6207   24.1667 H   0  0  0  0  0  0  0  0  0  0  0  0
   13.6517   13.5269   23.3866 H   0  0  0  0  0  0  0  0  0  0  0  0
   13.8531   14.5167   21.9546 H   0  0  0  0  0  0  0  0  0  0  0  0
   11.5304   13.8889   21.2073 H   0  0  0  0  0  0  0  0  0  0  0  0
   12.5446   12.4490   21.4126 H   0  0  0  0  0  0  0  0  0  0  0  0
   11.1524   12.9491   23.8272 H   0  0  0  0  0  0  0  0  0  0  0  0
  1  2  1  0  0  0  0
  1  5  2  0  0  0  0
  2  7  2  0  0  0  0
  3  4  2  0  0  0  0
  3  9  1  0  0  0  0
  4 10  1  0  0  0  0
  5 11  1  0  0  0  0
  6  8  1  0  0  0  0
  6 10  2  0  0  0  0
  7 18  1  0  0  0  0
  8  9  2  0  0  0  0
  8 12  1  0  0  0  0
  9 21  1  0  0  0  0
 10 22  1  0  0  0  0
 11 16  1  0  0  0  0
 11 18  2  0  0  0  0
 12 13  2  0  0  0  0
 13 14  1  0  0  0  0
 13 15  1  0  0  0  0
 14 19  1  0  0  0  0
 14 20  2  0  0  0  0
 15 21  1  0  0  0  0
 16 17  1  0  0  0  0
 17 19  1  0  0  0  0
  1 23  1  0  0  0  0
  2 24  1  0  0  0  0
  3 25  1  0  0  0  0
  4 26  1  0  0  0  0
  5 27  1  0  0  0  0
  6 28  1  0  0  0  0
  7 29  1  0  0  0  0
 12 30  1  0  0  0  0
 15 31  1  0  0  0  0
 15 32  1  0  0  0  0
 16 33  1  0  0  0  0
 16 34  1  0  0  0  0
 17 35  1  0  0  0  0
 17 36  1  0  0  0  0
 19 37  1  0  0  0  0
M  END
> <idnumber>
Z220842958

> <heavy_atoms>
22

> <LogS>
-4.208

> <LogP>
3.106

> <rotating_bonds>
4

> <PSA>
51.22

> <hb_acceptors>
3

> <hb_donors>
1

> <Collection>
Legacy

> <link>
https://www.enaminestore.com/catalog/Z220842958

> <ROCS_ShapeQuery>
_x1140_x0812_0A_x1140_0A_x1097_0A_x0365_0A_x1097_0A_x0310_0A

> <ROCS_TanimotoCombo>
0.627 

> <ROCS_ShapeTanimoto>
0.254 

> <ROCS_ColorTanimoto>
0.372 

> <ROCS_RefTversky>
0.232 

> <ROCS_RefColorTversky>
0.512 

> <ROCS_RefTverskyCombo>
0.744 

> <ROCS_FitTversky>
1.612 

> <ROCS_FitColorTversky>
0.577 

> <ROCS_FitTverskyCombo>
2.189 

> <ROCS_ColorScore>
-4.071

> <ROCS_Overlap>
2381.015

> <ROCS_Rank>
431                 

$$$$
untitled-dbase-1013318_10
  -OEChem-02092421083D

 27 27  0     0  0  0  0  0  0999 V2000
    7.8677   10.9489   25.2907 C   0  0  0  0  0  0  0  0  0  0  0  0
    9.1126   11.4782   23.5168 C   0  0  0  0  0  0  0  0  0  0  0  0
    8.4031   12.0206   24.6148 C   0  0  0  0  0  0  0  0  0  0  0  0
    8.9605   10.1137   23.6001 C   0  0  0  0  0  0  0  0  0  0  0  0
    9.8532   12.1664   22.5000 C   0  0  0  0  0  0  0  0  0  0  0  0
    8.2591   13.4437   24.9729 C   0  0  0  0  0  0  0  0  0  0  0  0
   10.9685    8.9417   22.6616 C   0  0  0  0  0  0  0  0  0  0  0  0
   12.6094   13.6993   22.1021 C   0  0  0  0  0  0  0  0  0  0  0  0
    9.4395    8.9897   22.7810 C   0  0  0  0  0  0  0  0  0  0  0  0
   11.1591   14.1272   22.0296 C   0  0  0  0  0  0  0  0  0  0  0  0
   10.0063   11.7677   21.3254 O   0  0  0  0  0  0  0  0  0  0  0  0
    8.2030    9.7828   24.6787 O   0  0  0  0  0  0  0  0  0  0  0  0
   10.3956   13.3461   22.9551 O   0  0  0  0  0  0  0  0  0  0  0  0
    7.2574   10.8508   26.1769 H   0  0  0  0  0  0  0  0  0  0  0  0
    9.0687   13.7691   25.6475 H   0  0  0  0  0  0  0  0  0  0  0  0
    8.2805   14.0996   24.0851 H   0  0  0  0  0  0  0  0  0  0  0  0
    7.2997   13.6496   25.4790 H   0  0  0  0  0  0  0  0  0  0  0  0
   11.3548    9.8857   22.2624 H   0  0  0  0  0  0  0  0  0  0  0  0
   11.2928    8.1347   21.9972 H   0  0  0  0  0  0  0  0  0  0  0  0
   11.4278    8.7788   23.6425 H   0  0  0  0  0  0  0  0  0  0  0  0
   13.0126   13.8557   23.1065 H   0  0  0  0  0  0  0  0  0  0  0  0
   12.7133   12.6412   21.8402 H   0  0  0  0  0  0  0  0  0  0  0  0
   13.2149   14.2652   21.3863 H   0  0  0  0  0  0  0  0  0  0  0  0
    9.0947    8.0171   23.1876 H   0  0  0  0  0  0  0  0  0  0  0  0
    9.0146    9.0255   21.7570 H   0  0  0  0  0  0  0  0  0  0  0  0
   10.7620   13.9682   21.0226 H   0  0  0  0  0  0  0  0  0  0  0  0
   11.0570   15.1843   22.2924 H   0  0  0  0  0  0  0  0  0  0  0  0
  1  3  2  0  0  0  0
  1 12  1  0  0  0  0
  2  3  1  0  0  0  0
  2  4  2  0  0  0  0
  2  5  1  0  0  0  0
  3  6  1  0  0  0  0
  4  9  1  0  0  0  0
  4 12  1  0  0  0  0
  5 11  2  0  0  0  0
  5 13  1  0  0  0  0
  7  9  1  0  0  0  0
  8 10  1  0  0  0  0
 10 13  1  0  0  0  0
  1 14  1  0  0  0  0
  6 15  1  0  0  0  0
  6 16  1  0  0  0  0
  6 17  1  0  0  0  0
  7 18  1  0  0  0  0
  7 19  1  0  0  0  0
  7 20  1  0  0  0  0
  8 21  1  0  0  0  0
  8 22  1  0  0  0  0
  8 23  1  0  0  0  0
  9 24  1  0  0  0  0
  9 25  1  0  0  0  0
 10 26  1  0  0  0  0
 10 27  1  0  0  0  0
M  END
> <idnumber>
Z3211922670

> <heavy_atoms>
13

> <LogS>
-1.926

> <LogP>
3.343

> <rotating_bonds>
4

> <PSA>
39.44

> <hb_acceptors>
1

> <hb_donors>
0

> <Collection>
HTS

> <link>
https://www.enaminestore.com/catalog/Z3211922670

> <ROCS_ShapeQuery>
_x1140_x0812_0A_x1140_0A_x1097_0A_x0365_0A_x1097_0A_x0310_0A

> <ROCS_TanimotoCombo>
0.626 

> <ROCS_ShapeTanimoto>
0.225 

> <ROCS_ColorTanimoto>
0.401 

> <ROCS_RefTversky>
0.203 

> <ROCS_RefColorTversky>
0.440 

> <ROCS_RefTverskyCombo>
0.643 

> <ROCS_FitTversky>
1.943 

> <ROCS_FitColorTversky>
0.818 

> <ROCS_FitTverskyCombo>
2.761 

> <ROCS_ColorScore>
-3.436

> <ROCS_Overlap>
2080.250

> <ROCS_Rank>
432                 

$$$$
untitled-dbase-506117_111
  -OEChem-02092421083D

 36 37  0     0  0  0  0  0  0999 V2000
   10.2898   17.1131   23.1913 C   0  0  0  0  0  0  0  0  0  0  0  0
    8.5523   12.4636   24.4502 C   0  0  0  0  0  0  0  0  0  0  0  0
   10.2025   15.7081   23.0449 C   0  0  0  0  0  0  0  0  0  0  0  0
    7.6170   11.9420   25.3371 C   0  0  0  0  0  0  0  0  0  0  0  0
    9.0400   10.2461   23.7418 C   0  0  0  0  0  0  0  0  0  0  0  0
   11.6068   17.4396   22.9658 C   0  0  0  0  0  0  0  0  0  0  0  0
    9.2815   11.6062   23.6338 C   0  0  0  0  0  0  0  0  0  0  0  0
   11.4724   15.2761   22.7402 C   0  0  0  0  0  0  0  0  0  0  0  0
    7.4499   10.5669   25.3687 C   0  0  0  0  0  0  0  0  0  0  0  0
   10.2769   12.1279   22.6839 C   0  0  0  0  0  0  0  0  0  0  0  0
    5.7396   10.9467   27.1269 C   0  0  0  0  0  0  0  0  0  0  0  0
    6.2578    8.6263   26.3551 C   0  0  0  0  0  0  0  0  0  0  0  0
   11.8413   12.5868   24.5321 C   0  0  0  0  0  0  0  0  0  0  0  0
   12.0577   13.9212   22.4653 C   0  0  0  0  0  0  0  0  0  0  0  0
    8.1397    9.7025   24.5913 N   0  0  0  0  0  0  0  0  0  0  0  0
    6.4942   10.0509   26.2788 N   0  0  0  0  0  0  0  0  0  0  0  0
   11.3536   12.8644   23.1884 N   0  0  0  0  0  0  0  0  0  0  0  0
   10.0896   11.8606   21.4975 O   0  0  0  0  0  0  0  0  0  0  0  0
   12.3343   16.3255   22.6900 O   0  0  0  0  0  0  0  0  0  0  0  0
    9.4927   17.8017   23.4315 H   0  0  0  0  0  0  0  0  0  0  0  0
    8.7058   13.5383   24.4045 H   0  0  0  0  0  0  0  0  0  0  0  0
    9.3221   15.0901   23.1496 H   0  0  0  0  0  0  0  0  0  0  0  0
    7.0431   12.6038   25.9778 H   0  0  0  0  0  0  0  0  0  0  0  0
    9.5780    9.5268   23.1316 H   0  0  0  0  0  0  0  0  0  0  0  0
   12.1565   18.3693   22.9643 H   0  0  0  0  0  0  0  0  0  0  0  0
    5.0538   10.3635   27.7589 H   0  0  0  0  0  0  0  0  0  0  0  0
    6.4310   11.5166   27.7650 H   0  0  0  0  0  0  0  0  0  0  0  0
    5.1602   11.6420   26.5018 H   0  0  0  0  0  0  0  0  0  0  0  0
    5.4873    8.4220   27.1132 H   0  0  0  0  0  0  0  0  0  0  0  0
    5.9157    8.2586   25.3765 H   0  0  0  0  0  0  0  0  0  0  0  0
    7.1907    8.1143   26.6335 H   0  0  0  0  0  0  0  0  0  0  0  0
   12.6242   11.8154   24.4865 H   0  0  0  0  0  0  0  0  0  0  0  0
   12.2581   13.5067   24.9681 H   0  0  0  0  0  0  0  0  0  0  0  0
   11.0100   12.2289   25.1571 H   0  0  0  0  0  0  0  0  0  0  0  0
   12.0081   13.6889   21.3959 H   0  0  0  0  0  0  0  0  0  0  0  0
   13.1122   13.8818   22.7581 H   0  0  0  0  0  0  0  0  0  0  0  0
  1  3  1  0  0  0  0
  1  6  2  0  0  0  0
  2  4  2  0  0  0  0
  2  7  1  0  0  0  0
  3  8  2  0  0  0  0
  4  9  1  0  0  0  0
  5  7  2  0  0  0  0
  5 15  1  0  0  0  0
  6 19  1  0  0  0  0
  7 10  1  0  0  0  0
  8 14  1  0  0  0  0
  8 19  1  0  0  0  0
  9 15  2  0  0  0  0
  9 16  1  0  0  0  0
 10 17  1  0  0  0  0
 10 18  2  0  0  0  0
 11 16  1  0  0  0  0
 12 16  1  0  0  0  0
 13 17  1  0  0  0  0
 14 17  1  0  0  0  0
  1 20  1  0  0  0  0
  2 21  1  0  0  0  0
  3 22  1  0  0  0  0
  4 23  1  0  0  0  0
  5 24  1  0  0  0  0
  6 25  1  0  0  0  0
 11 26  1  0  0  0  0
 11 27  1  0  0  0  0
 11 28  1  0  0  0  0
 12 29  1  0  0  0  0
 12 30  1  0  0  0  0
 12 31  1  0  0  0  0
 13 32  1  0  0  0  0
 13 33  1  0  0  0  0
 13 34  1  0  0  0  0
 14 35  1  0  0  0  0
 14 36  1  0  0  0  0
M  END
> <idnumber>
Z365336230

> <heavy_atoms>
19

> <LogS>
-2.083

> <LogP>
1.586

> <rotating_bonds>
4

> <PSA>
49.58

> <hb_acceptors>
3

> <hb_donors>
0

> <Collection>
HTS

> <link>
https://www.enaminestore.com/catalog/Z365336230

> <ROCS_ShapeQuery>
_x1140_x0812_0A_x1140_0A_x1097_0A_x0365_0A_x1097_0A_x0310_0A

> <ROCS_TanimotoCombo>
0.626 

> <ROCS_ShapeTanimoto>
0.243 

> <ROCS_ColorTanimoto>
0.383 

> <ROCS_RefTversky>
0.221 

> <ROCS_RefColorTversky>
0.459 

> <ROCS_RefTverskyCombo>
0.680 

> <ROCS_FitTversky>
1.683 

> <ROCS_FitColorTversky>
0.700 

> <ROCS_FitTverskyCombo>
2.383 

> <ROCS_ColorScore>
-3.603

> <ROCS_Overlap>
2269.349

> <ROCS_Rank>
433                 

$$$$
untitled-dbase-413443_1
  -OEChem-02092421083D

 50 53  0     0  0  0  0  0  0999 V2000
    5.9946   12.6488   26.8463 C   0  0  0  0  0  0  0  0  0  0  0  0
    5.8664   11.3019   27.1620 C   0  0  0  0  0  0  0  0  0  0  0  0
    6.8623   13.0365   25.8294 C   0  0  0  0  0  0  0  0  0  0  0  0
    6.6058   10.3462   26.4605 C   0  0  0  0  0  0  0  0  0  0  0  0
    8.4865   12.4377   24.0959 C   0  0  0  0  0  0  0  0  0  0  0  0
    7.6058   12.0752   25.1240 C   0  0  0  0  0  0  0  0  0  0  0  0
    9.2064   11.4645   23.4181 C   0  0  0  0  0  0  0  0  0  0  0  0
    7.4806   10.7058   25.4390 C   0  0  0  0  0  0  0  0  0  0  0  0
    9.0174   10.1510   23.7972 C   0  0  0  0  0  0  0  0  0  0  0  0
   10.1247   11.8612   22.3434 C   0  0  0  0  0  0  0  0  0  0  0  0
   11.4859    8.0244   21.9815 C   0  0  0  0  0  0  0  0  0  0  0  0
   10.3003    7.0880   22.0986 C   0  0  0  0  0  0  0  0  0  0  0  0
   12.1997   14.6687   21.5646 C   0  0  0  0  0  0  0  0  0  0  0  0
   11.5739   14.7440   24.0048 C   0  0  0  0  0  0  0  0  0  0  0  0
   11.2048    9.0604   23.0640 C   0  0  0  0  0  0  0  0  0  0  0  0
    9.1423    8.0431   22.3644 C   0  0  0  0  0  0  0  0  0  0  0  0
   12.1061   13.1468   21.6122 C   0  0  0  0  0  0  0  0  0  0  0  0
   11.4993   13.2207   24.0055 C   0  0  0  0  0  0  0  0  0  0  0  0
   12.5477   15.2479   22.9369 C   0  0  0  0  0  0  0  0  0  0  0  0
   13.2216   17.2733   23.9199 C   0  0  0  0  0  0  0  0  0  0  0  0
    8.1780    9.7591   24.7830 N   0  0  0  0  0  0  0  0  0  0  0  0
    9.7405    9.1507   23.1198 N   0  0  0  0  0  0  0  0  0  0  0  0
   11.1786   12.7208   22.6614 N   0  0  0  0  0  0  0  0  0  0  0  0
    9.8833   11.4048   21.2270 O   0  0  0  0  0  0  0  0  0  0  0  0
   12.4901   16.6674   22.8634 O   0  0  0  0  0  0  0  0  0  0  0  0
    5.4217   13.3944   27.3891 H   0  0  0  0  0  0  0  0  0  0  0  0
    5.1918   10.9903   27.9541 H   0  0  0  0  0  0  0  0  0  0  0  0
    6.9552   14.0936   25.5903 H   0  0  0  0  0  0  0  0  0  0  0  0
    6.4873    9.2975   26.7271 H   0  0  0  0  0  0  0  0  0  0  0  0
    8.6078   13.4854   23.8264 H   0  0  0  0  0  0  0  0  0  0  0  0
   12.4396    7.5115   22.1339 H   0  0  0  0  0  0  0  0  0  0  0  0
   11.5007    8.5004   20.9940 H   0  0  0  0  0  0  0  0  0  0  0  0
   10.1490    6.4921   21.1943 H   0  0  0  0  0  0  0  0  0  0  0  0
   10.4341    6.4061   22.9466 H   0  0  0  0  0  0  0  0  0  0  0  0
   12.9551   14.9769   20.8319 H   0  0  0  0  0  0  0  0  0  0  0  0
   11.2512   15.0929   21.2097 H   0  0  0  0  0  0  0  0  0  0  0  0
   10.5770   15.1708   23.8342 H   0  0  0  0  0  0  0  0  0  0  0  0
   11.8888   15.1052   24.9910 H   0  0  0  0  0  0  0  0  0  0  0  0
   11.5822    8.7289   24.0423 H   0  0  0  0  0  0  0  0  0  0  0  0
   11.6689   10.0272   22.8238 H   0  0  0  0  0  0  0  0  0  0  0  0
    8.7234    8.4337   21.4255 H   0  0  0  0  0  0  0  0  0  0  0  0
    8.3354    7.5500   22.9238 H   0  0  0  0  0  0  0  0  0  0  0  0
   11.7903   12.7625   20.6370 H   0  0  0  0  0  0  0  0  0  0  0  0
   13.0843   12.7069   21.8391 H   0  0  0  0  0  0  0  0  0  0  0  0
   12.4662   12.7897   24.2915 H   0  0  0  0  0  0  0  0  0  0  0  0
   10.7650   12.8908   24.7445 H   0  0  0  0  0  0  0  0  0  0  0  0
   13.5735   14.9659   23.2031 H   0  0  0  0  0  0  0  0  0  0  0  0
   13.1560   18.3606   23.8326 H   0  0  0  0  0  0  0  0  0  0  0  0
   14.2661   16.9555   23.8702 H   0  0  0  0  0  0  0  0  0  0  0  0
   12.7926   16.9601   24.8746 H   0  0  0  0  0  0  0  0  0  0  0  0
  1  2  1  0  0  0  0
  1  3  2  0  0  0  0
  2  4  2  0  0  0  0
  3  6  1  0  0  0  0
  4  8  1  0  0  0  0
  5  6  2  0  0  0  0
  5  7  1  0  0  0  0
  6  8  1  0  0  0  0
  7  9  2  0  0  0  0
  7 10  1  0  0  0  0
  8 21  2  0  0  0  0
  9 21  1  0  0  0  0
  9 22  1  0  0  0  0
 10 23  1  0  0  0  0
 10 24  2  0  0  0  0
 11 12  1  0  0  0  0
 11 15  1  0  0  0  0
 12 16  1  0  0  0  0
 13 17  1  0  0  0  0
 13 19  1  0  0  0  0
 14 18  1  0  0  0  0
 14 19  1  0  0  0  0
 15 22  1  0  0  0  0
 16 22  1  0  0  0  0
 17 23  1  0  0  0  0
 18 23  1  0  0  0  0
 19 25  1  0  0  0  0
 20 25  1  0  0  0  0
  1 26  1  0  0  0  0
  2 27  1  0  0  0  0
  3 28  1  0  0  0  0
  4 29  1  0  0  0  0
  5 30  1  0  0  0  0
 11 31  1  0  0  0  0
 11 32  1  0  0  0  0
 12 33  1  0  0  0  0
 12 34  1  0  0  0  0
 13 35  1  0  0  0  0
 13 36  1  0  0  0  0
 14 37  1  0  0  0  0
 14 38  1  0  0  0  0
 15 39  1  0  0  0  0
 15 40  1  0  0  0  0
 16 41  1  0  0  0  0
 16 42  1  0  0  0  0
 17 43  1  0  0  0  0
 17 44  1  0  0  0  0
 18 45  1  0  0  0  0
 18 46  1  0  0  0  0
 19 47  1  0  0  0  0
 20 48  1  0  0  0  0
 20 49  1  0  0  0  0
 20 50  1  0  0  0  0
M  END
> <idnumber>
Z1090265612

> <heavy_atoms>
25

> <LogS>
-4.11

> <LogP>
1.542

> <rotating_bonds>
3

> <PSA>
45.67

> <hb_acceptors>
4

> <hb_donors>
0

> <Collection>
HTS

> <link>
https://www.enaminestore.com/catalog/Z1090265612

> <ROCS_ShapeQuery>
_x1140_x0812_0A_x1140_0A_x1097_0A_x0365_0A_x1097_0A_x0310_0A

> <ROCS_TanimotoCombo>
0.626 

> <ROCS_ShapeTanimoto>
0.319 

> <ROCS_ColorTanimoto>
0.308 

> <ROCS_RefTversky>
0.280 

> <ROCS_RefColorTversky>
0.444 

> <ROCS_RefTverskyCombo>
0.724 

> <ROCS_FitTversky>
1.772 

> <ROCS_FitColorTversky>
0.500 

> <ROCS_FitTverskyCombo>
2.273 

> <ROCS_ColorScore>
-3.529

> <ROCS_Overlap>
2875.226

> <ROCS_Rank>
434                 

$$$$
untitled-dbase-763391_42
  -OEChem-02092421083D

 40 41  0     0  0  0  0  0  0999 V2000
    7.8233   11.5492   25.9062 C   0  0  0  0  0  0  0  0  0  0  0  0
    8.9986   10.4702   23.6925 C   0  0  0  0  0  0  0  0  0  0  0  0
    8.7934   12.2768   25.2258 C   0  0  0  0  0  0  0  0  0  0  0  0
    9.3971   11.7341   24.0969 C   0  0  0  0  0  0  0  0  0  0  0  0
    7.4951   10.2937   25.4207 C   0  0  0  0  0  0  0  0  0  0  0  0
   12.4296   15.4570   21.8210 C   0  0  0  0  0  0  0  0  0  0  0  0
   10.6540   12.3494   22.0037 C   0  0  0  0  0  0  0  0  0  0  0  0
   12.5342   14.0549   22.3863 C   0  0  0  0  0  0  0  0  0  0  0  0
   12.8992   14.3057   19.6841 C   0  0  0  0  0  0  0  0  0  0  0  0
   12.0742   13.1078   20.1380 C   0  0  0  0  0  0  0  0  0  0  0  0
    9.1665   13.6336   25.7264 C   0  0  0  0  0  0  0  0  0  0  0  0
   11.1797   17.1821   19.3453 C   0  0  0  0  0  0  0  0  0  0  0  0
   12.5603   16.7722   19.7307 C   0  0  0  0  0  0  0  0  0  0  0  0
    6.4584    9.4844   26.1260 C   0  0  0  0  0  0  0  0  0  0  0  0
    8.0598    9.7334   24.3276 N   0  0  0  0  0  0  0  0  0  0  0  0
   12.5525   15.5095   20.4309 N   0  0  0  0  0  0  0  0  0  0  0  0
   11.7107   13.1728   21.5546 N   0  0  0  0  0  0  0  0  0  0  0  0
   10.3898   12.4362   23.3690 N   0  0  0  0  0  0  0  0  0  0  0  0
   12.3644   16.4392   22.5590 O   0  0  0  0  0  0  0  0  0  0  0  0
   10.0173   11.6389   21.2207 O   0  0  0  0  0  0  0  0  0  0  0  0
    5.9298   10.1074   27.2203 F   0  0  0  0  0  0  0  0  0  0  0  0
    5.3857    9.1689   25.3422 F   0  0  0  0  0  0  0  0  0  0  0  0
    6.9435    8.2929   26.5811 F   0  0  0  0  0  0  0  0  0  0  0  0
    7.3388   11.9528   26.7897 H   0  0  0  0  0  0  0  0  0  0  0  0
    9.4327    9.9934   22.8187 H   0  0  0  0  0  0  0  0  0  0  0  0
   13.5654   13.7421   22.3768 H   0  0  0  0  0  0  0  0  0  0  0  0
   12.1374   14.0414   23.3907 H   0  0  0  0  0  0  0  0  0  0  0  0
   13.9677   14.0893   19.8102 H   0  0  0  0  0  0  0  0  0  0  0  0
   12.7214   14.5165   18.6211 H   0  0  0  0  0  0  0  0  0  0  0  0
   11.1601   13.0370   19.5419 H   0  0  0  0  0  0  0  0  0  0  0  0
   12.6497   12.1887   19.9884 H   0  0  0  0  0  0  0  0  0  0  0  0
    9.9906   13.5597   26.4453 H   0  0  0  0  0  0  0  0  0  0  0  0
    9.4784   14.2878   24.9030 H   0  0  0  0  0  0  0  0  0  0  0  0
    8.3161   14.1222   26.2179 H   0  0  0  0  0  0  0  0  0  0  0  0
   10.5604   17.2814   20.2490 H   0  0  0  0  0  0  0  0  0  0  0  0
   11.2174   18.1473   18.8189 H   0  0  0  0  0  0  0  0  0  0  0  0
   10.7425   16.4202   18.6832 H   0  0  0  0  0  0  0  0  0  0  0  0
   13.1728   16.6751   18.8222 H   0  0  0  0  0  0  0  0  0  0  0  0
   12.9942   17.5428   20.3848 H   0  0  0  0  0  0  0  0  0  0  0  0
   10.9646   13.0908   23.9672 H   0  0  0  0  0  0  0  0  0  0  0  0
  1  3  1  0  0  0  0
  1  5  2  0  0  0  0
  2  4  1  0  0  0  0
  2 15  2  0  0  0  0
  3  4  2  0  0  0  0
  3 11  1  0  0  0  0
  4 18  1  0  0  0  0
  5 14  1  0  0  0  0
  5 15  1  0  0  0  0
  6  8  1  0  0  0  0
  6 16  1  0  0  0  0
  6 19  2  0  0  0  0
  7 17  1  0  0  0  0
  7 18  1  0  0  0  0
  7 20  2  0  0  0  0
  8 17  1  0  0  0  0
  9 10  1  0  0  0  0
  9 16  1  0  0  0  0
 10 17  1  0  0  0  0
 12 13  1  0  0  0  0
 13 16  1  0  0  0  0
 14 21  1  0  0  0  0
 14 22  1  0  0  0  0
 14 23  1  0  0  0  0
  1 24  1  0  0  0  0
  2 25  1  0  0  0  0
  8 26  1  0  0  0  0
  8 27  1  0  0  0  0
  9 28  1  0  0  0  0
  9 29  1  0  0  0  0
 10 30  1  0  0  0  0
 10 31  1  0  0  0  0
 11 32  1  0  0  0  0
 11 33  1  0  0  0  0
 11 34  1  0  0  0  0
 12 35  1  0  0  0  0
 12 36  1  0  0  0  0
 12 37  1  0  0  0  0
 13 38  1  0  0  0  0
 13 39  1  0  0  0  0
 18 40  1  0  0  0  0
M  END
> <idnumber>
Z2171796148

> <heavy_atoms>
23

> <LogS>
-2.985

> <LogP>
2.359

> <rotating_bonds>
3

> <PSA>
65.54

> <hb_acceptors>
3

> <hb_donors>
1

> <Collection>
Legacy

> <link>
https://www.enaminestore.com/catalog/Z2171796148

> <ROCS_ShapeQuery>
_x1140_x0812_0A_x1140_0A_x1097_0A_x0365_0A_x1097_0A_x0310_0A

> <ROCS_TanimotoCombo>
0.626 

> <ROCS_ShapeTanimoto>
0.218 

> <ROCS_ColorTanimoto>
0.408 

> <ROCS_RefTversky>
0.206 

> <ROCS_RefColorTversky>
0.513 

> <ROCS_RefTverskyCombo>
0.719 

> <ROCS_FitTversky>
1.388 

> <ROCS_FitColorTversky>
0.665 

> <ROCS_FitTverskyCombo>
2.053 

> <ROCS_ColorScore>
-4.055

> <ROCS_Overlap>
2114.529

> <ROCS_Rank>
435                 

$$$$
untitled-dbase-886588_87
  -OEChem-02092421083D

 33 34  0     0  0  0  0  0  0999 V2000
    8.8161   10.0158   23.7388 C   0  0  0  0  0  0  0  0  0  0  0  0
    7.3661   10.4565   25.4655 C   0  0  0  0  0  0  0  0  0  0  0  0
    9.0323   11.3642   23.5047 C   0  0  0  0  0  0  0  0  0  0  0  0
    8.3653   12.2799   24.3109 C   0  0  0  0  0  0  0  0  0  0  0  0
    7.5145   11.8256   25.3125 C   0  0  0  0  0  0  0  0  0  0  0  0
   12.4794   15.3686   22.9775 C   0  0  0  0  0  0  0  0  0  0  0  0
   12.1334   14.5436   21.9279 C   0  0  0  0  0  0  0  0  0  0  0  0
   12.1593   16.9032   21.4438 C   0  0  0  0  0  0  0  0  0  0  0  0
    9.9351   11.7769   22.4409 C   0  0  0  0  0  0  0  0  0  0  0  0
    8.5709   13.7460   24.0915 C   0  0  0  0  0  0  0  0  0  0  0  0
   12.8316   14.9340   24.3448 C   0  0  0  0  0  0  0  0  0  0  0  0
   12.0684   18.2238   20.7836 C   0  0  0  0  0  0  0  0  0  0  0  0
   12.0187   13.0477   21.8705 C   0  0  0  0  0  0  0  0  0  0  0  0
    7.9973    9.5366   24.7019 N   0  0  0  0  0  0  0  0  0  0  0  0
   12.4952   16.7219   22.7017 N   0  0  0  0  0  0  0  0  0  0  0  0
   11.0455   12.5433   22.8124 N   0  0  0  0  0  0  0  0  0  0  0  0
    9.7000   11.4689   21.2594 O   0  0  0  0  0  0  0  0  0  0  0  0
   11.8107   15.4901   20.5345 S   0  0  0  0  0  0  0  0  0  0  0  0
    6.6554   12.8961   26.3491 Cl  0  0  0  0  0  0  0  0  0  0  0  0
    9.3079    9.2527   23.1429 H   0  0  0  0  0  0  0  0  0  0  0  0
    6.7169   10.0371   26.2283 H   0  0  0  0  0  0  0  0  0  0  0  0
    7.8365   14.1260   23.3735 H   0  0  0  0  0  0  0  0  0  0  0  0
    8.4666   14.3025   25.0298 H   0  0  0  0  0  0  0  0  0  0  0  0
    9.5770   13.9488   23.7071 H   0  0  0  0  0  0  0  0  0  0  0  0
   13.9147   14.7529   24.4362 H   0  0  0  0  0  0  0  0  0  0  0  0
   12.5514   15.6857   25.1017 H   0  0  0  0  0  0  0  0  0  0  0  0
   12.3101   14.0046   24.6294 H   0  0  0  0  0  0  0  0  0  0  0  0
   13.0328   18.5067   20.3337 H   0  0  0  0  0  0  0  0  0  0  0  0
   11.3079   18.2325   19.9857 H   0  0  0  0  0  0  0  0  0  0  0  0
   11.7799   19.0178   21.4917 H   0  0  0  0  0  0  0  0  0  0  0  0
   11.7189   12.7216   20.8686 H   0  0  0  0  0  0  0  0  0  0  0  0
   12.9790   12.5711   22.0938 H   0  0  0  0  0  0  0  0  0  0  0  0
   11.1558   12.8197   23.7825 H   0  0  0  0  0  0  0  0  0  0  0  0
  1  3  1  0  0  0  0
  1 14  2  0  0  0  0
  2  5  2  0  0  0  0
  2 14  1  0  0  0  0
  3  4  2  0  0  0  0
  3  9  1  0  0  0  0
  4  5  1  0  0  0  0
  4 10  1  0  0  0  0
  5 19  1  0  0  0  0
  6  7  2  0  0  0  0
  6 11  1  0  0  0  0
  6 15  1  0  0  0  0
  7 13  1  0  0  0  0
  7 18  1  0  0  0  0
  8 12  1  0  0  0  0
  8 15  2  0  0  0  0
  8 18  1  0  0  0  0
  9 16  1  0  0  0  0
  9 17  2  0  0  0  0
 13 16  1  0  0  0  0
  1 20  1  0  0  0  0
  2 21  1  0  0  0  0
 10 22  1  0  0  0  0
 10 23  1  0  0  0  0
 10 24  1  0  0  0  0
 11 25  1  0  0  0  0
 11 26  1  0  0  0  0
 11 27  1  0  0  0  0
 12 28  1  0  0  0  0
 12 29  1  0  0  0  0
 12 30  1  0  0  0  0
 13 31  1  0  0  0  0
 13 32  1  0  0  0  0
 16 33  1  0  0  0  0
M  END
> <idnumber>
Z2302652490

> <heavy_atoms>
19

> <LogS>
-2.463

> <LogP>
2.319

> <rotating_bonds>
3

> <PSA>
54.88

> <hb_acceptors>
3

> <hb_donors>
1

> <Collection>
HTS

> <link>
https://www.enaminestore.com/catalog/Z2302652490

> <ROCS_ShapeQuery>
_x1140_x0812_0A_x1140_0A_x1097_0A_x0365_0A_x1097_0A_x0310_0A

> <ROCS_TanimotoCombo>
0.626 

> <ROCS_ShapeTanimoto>
0.237 

> <ROCS_ColorTanimoto>
0.389 

> <ROCS_RefTversky>
0.216 

> <ROCS_RefColorTversky>
0.497 

> <ROCS_RefTverskyCombo>
0.712 

> <ROCS_FitTversky>
1.682 

> <ROCS_FitColorTversky>
0.643 

> <ROCS_FitTverskyCombo>
2.325 

> <ROCS_ColorScore>
-3.923

> <ROCS_Overlap>
2216.102

> <ROCS_Rank>
436                 

$$$$
untitled-dbase-576581_29
  -OEChem-02092421083D

 40 42  0     0  0  0  0  0  0999 V2000
    5.7168   10.7895   27.1978 C   0  0  0  0  0  0  0  0  0  0  0  0
    6.4394    9.9381   26.3583 C   0  0  0  0  0  0  0  0  0  0  0  0
    8.4876   12.3208   24.4531 C   0  0  0  0  0  0  0  0  0  0  0  0
    6.8305   12.6821   26.2208 C   0  0  0  0  0  0  0  0  0  0  0  0
    7.5571   11.8255   25.3766 C   0  0  0  0  0  0  0  0  0  0  0  0
    9.1893   11.4488   23.6333 C   0  0  0  0  0  0  0  0  0  0  0  0
    5.9123   12.1633   27.1292 C   0  0  0  0  0  0  0  0  0  0  0  0
    7.3637   10.4296   25.4406 C   0  0  0  0  0  0  0  0  0  0  0  0
    8.9322   10.0996   23.7685 C   0  0  0  0  0  0  0  0  0  0  0  0
   10.1536   11.9679   22.6756 C   0  0  0  0  0  0  0  0  0  0  0  0
   11.5257   15.6027   23.2201 C   0  0  0  0  0  0  0  0  0  0  0  0
   12.9112   15.5705   21.6900 C   0  0  0  0  0  0  0  0  0  0  0  0
   11.7479   14.6267   22.0492 C   0  0  0  0  0  0  0  0  0  0  0  0
    5.1434   13.0756   28.0227 C   0  0  0  0  0  0  0  0  0  0  0  0
    9.6505    9.1041   22.9168 C   0  0  0  0  0  0  0  0  0  0  0  0
   10.6173   14.6212   21.0261 C   0  0  0  0  0  0  0  0  0  0  0  0
   12.1659   13.2300   22.4568 C   0  0  0  0  0  0  0  0  0  0  0  0
    8.0432    9.5809   24.6464 N   0  0  0  0  0  0  0  0  0  0  0  0
   10.0825   11.8019   21.4510 O   0  0  0  0  0  0  0  0  0  0  0  0
   12.4644   16.5516   22.6574 O   0  0  0  0  0  0  0  0  0  0  0  0
   11.1526   12.6664   23.2966 O   0  0  0  0  0  0  0  0  0  0  0  0
    5.0050   10.3663   27.9016 H   0  0  0  0  0  0  0  0  0  0  0  0
    6.2689    8.8656   26.4320 H   0  0  0  0  0  0  0  0  0  0  0  0
    8.6624   13.3925   24.3760 H   0  0  0  0  0  0  0  0  0  0  0  0
    6.9822   13.7588   26.1682 H   0  0  0  0  0  0  0  0  0  0  0  0
   10.5230   16.0318   23.3074 H   0  0  0  0  0  0  0  0  0  0  0  0
   11.8591   15.2623   24.2060 H   0  0  0  0  0  0  0  0  0  0  0  0
   13.9181   15.2146   21.9320 H   0  0  0  0  0  0  0  0  0  0  0  0
   12.9072   15.9762   20.6739 H   0  0  0  0  0  0  0  0  0  0  0  0
    5.6871   13.2398   28.9615 H   0  0  0  0  0  0  0  0  0  0  0  0
    4.9713   14.0498   27.5462 H   0  0  0  0  0  0  0  0  0  0  0  0
    4.1551   12.6608   28.2618 H   0  0  0  0  0  0  0  0  0  0  0  0
   10.5749    8.7810   23.4089 H   0  0  0  0  0  0  0  0  0  0  0  0
    9.0273    8.2216   22.7283 H   0  0  0  0  0  0  0  0  0  0  0  0
    9.9050    9.5306   21.9388 H   0  0  0  0  0  0  0  0  0  0  0  0
   10.8401   13.9116   20.2298 H   0  0  0  0  0  0  0  0  0  0  0  0
   10.5025   15.6148   20.5938 H   0  0  0  0  0  0  0  0  0  0  0  0
    9.6827   14.3332   21.5066 H   0  0  0  0  0  0  0  0  0  0  0  0
   13.1083   13.2582   23.0120 H   0  0  0  0  0  0  0  0  0  0  0  0
   12.2880   12.5931   21.5757 H   0  0  0  0  0  0  0  0  0  0  0  0
  1  2  2  0  0  0  0
  1  7  1  0  0  0  0
  2  8  1  0  0  0  0
  3  5  1  0  0  0  0
  3  6  2  0  0  0  0
  4  5  1  0  0  0  0
  4  7  2  0  0  0  0
  5  8  2  0  0  0  0
  6  9  1  0  0  0  0
  6 10  1  0  0  0  0
  7 14  1  0  0  0  0
  8 18  1  0  0  0  0
  9 15  1  0  0  0  0
  9 18  2  0  0  0  0
 10 19  2  0  0  0  0
 10 21  1  0  0  0  0
 11 13  1  0  0  0  0
 11 20  1  0  0  0  0
 12 13  1  0  0  0  0
 12 20  1  0  0  0  0
 13 16  1  0  0  0  0
 13 17  1  0  0  0  0
 17 21  1  0  0  0  0
  1 22  1  0  0  0  0
  2 23  1  0  0  0  0
  3 24  1  0  0  0  0
  4 25  1  0  0  0  0
 11 26  1  0  0  0  0
 11 27  1  0  0  0  0
 12 28  1  0  0  0  0
 12 29  1  0  0  0  0
 14 30  1  0  0  0  0
 14 31  1  0  0  0  0
 14 32  1  0  0  0  0
 15 33  1  0  0  0  0
 15 34  1  0  0  0  0
 15 35  1  0  0  0  0
 16 36  1  0  0  0  0
 16 37  1  0  0  0  0
 16 38  1  0  0  0  0
 17 39  1  0  0  0  0
 17 40  1  0  0  0  0
M  END
> <idnumber>
Z822833898

> <heavy_atoms>
21

> <LogS>
-3.703

> <LogP>
2.801

> <rotating_bonds>
4

> <PSA>
48.42

> <hb_acceptors>
3

> <hb_donors>
0

> <Collection>
HTS

> <link>
https://www.enaminestore.com/catalog/Z822833898

> <ROCS_ShapeQuery>
_x1140_x0812_0A_x1140_0A_x1097_0A_x0365_0A_x1097_0A_x0310_0A

> <ROCS_TanimotoCombo>
0.626 

> <ROCS_ShapeTanimoto>
0.295 

> <ROCS_ColorTanimoto>
0.331 

> <ROCS_RefTversky>
0.260 

> <ROCS_RefColorTversky>
0.441 

> <ROCS_RefTverskyCombo>
0.701 

> <ROCS_FitTversky>
1.848 

> <ROCS_FitColorTversky>
0.570 

> <ROCS_FitTverskyCombo>
2.419 

> <ROCS_ColorScore>
-3.483

> <ROCS_Overlap>
2667.381

> <ROCS_Rank>
437                 

$$$$
untitled-dbase-422900_60
  -OEChem-02092421083D

 36 36  0     0  0  0  0  0  0999 V2000
    8.3637   12.4986   24.1838 C   0  0  0  0  0  0  0  0  0  0  0  0
    7.3929   12.0018   25.0464 C   0  0  0  0  0  0  0  0  0  0  0  0
    9.1841   11.6175   23.4881 C   0  0  0  0  0  0  0  0  0  0  0  0
    8.9949   10.2596   23.6884 C   0  0  0  0  0  0  0  0  0  0  0  0
    7.2837   10.6267   25.1768 C   0  0  0  0  0  0  0  0  0  0  0  0
   10.2236   12.1465   22.5679 C   0  0  0  0  0  0  0  0  0  0  0  0
   12.6477   14.8947   23.0121 C   0  0  0  0  0  0  0  0  0  0  0  0
    9.8483    9.2648   22.9713 C   0  0  0  0  0  0  0  0  0  0  0  0
   15.0429   14.3116   23.4455 C   0  0  0  0  0  0  0  0  0  0  0  0
   13.3400   13.9563   25.2428 C   0  0  0  0  0  0  0  0  0  0  0  0
   14.0195   16.2774   24.6368 C   0  0  0  0  0  0  0  0  0  0  0  0
   12.2441   13.5738   22.3777 C   0  0  0  0  0  0  0  0  0  0  0  0
   13.7632   14.8710   24.0798 C   0  0  0  0  0  0  0  0  0  0  0  0
    8.0625    9.7397   24.5178 N   0  0  0  0  0  0  0  0  0  0  0  0
   11.1845   12.9644   23.1440 N   0  0  0  0  0  0  0  0  0  0  0  0
   10.1710   11.8593   21.3749 O   0  0  0  0  0  0  0  0  0  0  0  0
   12.0873   15.9482   22.6991 O   0  0  0  0  0  0  0  0  0  0  0  0
    6.3381   10.1129   26.0251 O   0  0  0  0  0  0  0  0  0  0  0  0
    8.4710   13.5732   24.0612 H   0  0  0  0  0  0  0  0  0  0  0  0
    6.7454   12.6761   25.5962 H   0  0  0  0  0  0  0  0  0  0  0  0
   10.7400    9.0325   23.5646 H   0  0  0  0  0  0  0  0  0  0  0  0
    9.2994    8.3337   22.7851 H   0  0  0  0  0  0  0  0  0  0  0  0
   10.1677    9.6485   21.9946 H   0  0  0  0  0  0  0  0  0  0  0  0
   15.8681   14.2738   24.1646 H   0  0  0  0  0  0  0  0  0  0  0  0
   14.8870   13.2945   23.0690 H   0  0  0  0  0  0  0  0  0  0  0  0
   15.3724   14.9353   22.6065 H   0  0  0  0  0  0  0  0  0  0  0  0
   14.1142   13.9197   26.0181 H   0  0  0  0  0  0  0  0  0  0  0  0
   12.4179   14.3122   25.7171 H   0  0  0  0  0  0  0  0  0  0  0  0
   13.1602   12.9315   24.8988 H   0  0  0  0  0  0  0  0  0  0  0  0
   14.8109   16.2627   25.3948 H   0  0  0  0  0  0  0  0  0  0  0  0
   13.1232   16.6982   25.1056 H   0  0  0  0  0  0  0  0  0  0  0  0
   14.3248   16.9689   23.8433 H   0  0  0  0  0  0  0  0  0  0  0  0
   13.0990   12.8947   22.3544 H   0  0  0  0  0  0  0  0  0  0  0  0
   11.8934   13.7593   21.3592 H   0  0  0  0  0  0  0  0  0  0  0  0
   11.1251   13.2071   24.1287 H   0  0  0  0  0  0  0  0  0  0  0  0
    5.8463   10.8340   26.4421 H   0  0  0  0  0  0  0  0  0  0  0  0
  1  2  2  0  0  0  0
  1  3  1  0  0  0  0
  2  5  1  0  0  0  0
  3  4  2  0  0  0  0
  3  6  1  0  0  0  0
  4  8  1  0  0  0  0
  4 14  1  0  0  0  0
  5 14  2  0  0  0  0
  5 18  1  0  0  0  0
  6 15  1  0  0  0  0
  6 16  2  0  0  0  0
  7 12  1  0  0  0  0
  7 13  1  0  0  0  0
  7 17  2  0  0  0  0
  9 13  1  0  0  0  0
 10 13  1  0  0  0  0
 11 13  1  0  0  0  0
 12 15  1  0  0  0  0
  1 19  1  0  0  0  0
  2 20  1  0  0  0  0
  8 21  1  0  0  0  0
  8 22  1  0  0  0  0
  8 23  1  0  0  0  0
  9 24  1  0  0  0  0
  9 25  1  0  0  0  0
  9 26  1  0  0  0  0
 10 27  1  0  0  0  0
 10 28  1  0  0  0  0
 10 29  1  0  0  0  0
 11 30  1  0  0  0  0
 11 31  1  0  0  0  0
 11 32  1  0  0  0  0
 12 33  1  0  0  0  0
 12 34  1  0  0  0  0
 15 35  1  0  0  0  0
 18 36  1  0  0  0  0
M  END
> <idnumber>
Z1540259657

> <heavy_atoms>
18

> <LogS>
-2.266

> <LogP>
1.8

> <rotating_bonds>
4

> <PSA>
79.29

> <hb_acceptors>
4

> <hb_donors>
2

> <Collection>
HTS

> <link>
https://www.enaminestore.com/catalog/Z1540259657

> <ROCS_ShapeQuery>
_x1140_x0812_0A_x1140_0A_x1097_0A_x0365_0A_x1097_0A_x0310_0A

> <ROCS_TanimotoCombo>
0.626 

> <ROCS_ShapeTanimoto>
0.245 

> <ROCS_ColorTanimoto>
0.381 

> <ROCS_RefTversky>
0.221 

> <ROCS_RefColorTversky>
0.552 

> <ROCS_RefTverskyCombo>
0.773 

> <ROCS_FitTversky>
1.776 

> <ROCS_FitColorTversky>
0.551 

> <ROCS_FitTverskyCombo>
2.328 

> <ROCS_ColorScore>
-4.415

> <ROCS_Overlap>
2270.794

> <ROCS_Rank>
438                 

$$$$
untitled-dbase-60789_94
  -OEChem-02092421083D

 28 28  0     0  0  0  0  0  0999 V2000
    8.8921   12.4154   24.8210 C   0  0  0  0  0  0  0  0  0  0  0  0
    7.3331   10.7145   25.1855 C   0  0  0  0  0  0  0  0  0  0  0  0
    7.6968   12.0294   25.3926 C   0  0  0  0  0  0  0  0  0  0  0  0
    9.2158   10.3324   23.9705 C   0  0  0  0  0  0  0  0  0  0  0  0
   11.0364   10.9378   21.6268 C   0  0  0  0  0  0  0  0  0  0  0  0
   13.0024   13.5803   21.4979 C   0  0  0  0  0  0  0  0  0  0  0  0
   13.2868   10.4658   20.6293 C   0  0  0  0  0  0  0  0  0  0  0  0
   11.2506    9.8121   22.6233 C   0  0  0  0  0  0  0  0  0  0  0  0
   12.3374   12.7344   20.4661 C   0  0  0  0  0  0  0  0  0  0  0  0
    9.6797   11.5899   24.1009 N   0  0  0  0  0  0  0  0  0  0  0  0
    8.0713    9.8352   24.4769 N   0  0  0  0  0  0  0  0  0  0  0  0
   10.0026    9.4534   23.2340 N   0  0  0  0  0  0  0  0  0  0  0  0
   12.1754   11.3636   20.9343 N   0  0  0  0  0  0  0  0  0  0  0  0
    9.9162   11.4264   21.4573 O   0  0  0  0  0  0  0  0  0  0  0  0
    6.9411   12.8736   26.1002 F   0  0  0  0  0  0  0  0  0  0  0  0
    9.2602   13.4299   24.9298 H   0  0  0  0  0  0  0  0  0  0  0  0
    6.4099   10.3201   25.5964 H   0  0  0  0  0  0  0  0  0  0  0  0
   13.9944   13.1650   21.7296 H   0  0  0  0  0  0  0  0  0  0  0  0
   13.1146   14.6053   21.1150 H   0  0  0  0  0  0  0  0  0  0  0  0
   12.3890   13.5950   22.4109 H   0  0  0  0  0  0  0  0  0  0  0  0
   13.1147    9.9866   19.6542 H   0  0  0  0  0  0  0  0  0  0  0  0
   14.2238   11.0410   20.5947 H   0  0  0  0  0  0  0  0  0  0  0  0
   13.3591    9.6937   21.4095 H   0  0  0  0  0  0  0  0  0  0  0  0
   11.6376    8.9246   22.1163 H   0  0  0  0  0  0  0  0  0  0  0  0
   11.9271   10.1321   23.4200 H   0  0  0  0  0  0  0  0  0  0  0  0
   11.3468   13.1560   20.2401 H   0  0  0  0  0  0  0  0  0  0  0  0
   12.9516   12.7319   19.5535 H   0  0  0  0  0  0  0  0  0  0  0  0
    9.6646    8.4992   23.1254 H   0  0  0  0  0  0  0  0  0  0  0  0
  1  3  1  0  0  0  0
  1 10  2  0  0  0  0
  2  3  2  0  0  0  0
  2 11  1  0  0  0  0
  3 15  1  0  0  0  0
  4 10  1  0  0  0  0
  4 11  2  0  0  0  0
  4 12  1  0  0  0  0
  5  8  1  0  0  0  0
  5 13  1  0  0  0  0
  5 14  2  0  0  0  0
  6  9  1  0  0  0  0
  7 13  1  0  0  0  0
  8 12  1  0  0  0  0
  9 13  1  0  0  0  0
  1 16  1  0  0  0  0
  2 17  1  0  0  0  0
  6 18  1  0  0  0  0
  6 19  1  0  0  0  0
  6 20  1  0  0  0  0
  7 21  1  0  0  0  0
  7 22  1  0  0  0  0
  7 23  1  0  0  0  0
  8 24  1  0  0  0  0
  8 25  1  0  0  0  0
  9 26  1  0  0  0  0
  9 27  1  0  0  0  0
 12 28  1  0  0  0  0
M  END
> <idnumber>
Z1731360528

> <heavy_atoms>
15

> <LogS>
-1.549

> <LogP>
0.545

> <rotating_bonds>
4

> <PSA>
58.12

> <hb_acceptors>
4

> <hb_donors>
1

> <Collection>
HTS

> <link>
https://www.enaminestore.com/catalog/Z1731360528

> <ROCS_ShapeQuery>
_x1140_x0812_0A_x1140_0A_x1097_0A_x0365_0A_x1097_0A_x0310_0A

> <ROCS_TanimotoCombo>
0.626 

> <ROCS_ShapeTanimoto>
0.206 

> <ROCS_ColorTanimoto>
0.420 

> <ROCS_RefTversky>
0.190 

> <ROCS_RefColorTversky>
0.490 

> <ROCS_RefTverskyCombo>
0.680 

> <ROCS_FitTversky>
1.681 

> <ROCS_FitColorTversky>
0.746 

> <ROCS_FitTverskyCombo>
2.427 

> <ROCS_ColorScore>
-3.848

> <ROCS_Overlap>
1946.379

> <ROCS_Rank>
439                 

$$$$
untitled-dbase-528791_73
  -OEChem-02092421083D

 45 47  0     0  0  0  0  0  0999 V2000
    6.0829   12.0189   27.1980 C   0  0  0  0  0  0  0  0  0  0  0  0
    6.0000   10.6429   27.3711 C   0  0  0  0  0  0  0  0  0  0  0  0
   13.0925   13.3204   19.7675 C   0  0  0  0  0  0  0  0  0  0  0  0
    6.8497   12.5355   26.1576 C   0  0  0  0  0  0  0  0  0  0  0  0
   13.6619   14.5303   20.1647 C   0  0  0  0  0  0  0  0  0  0  0  0
    6.6836    9.7870   26.5039 C   0  0  0  0  0  0  0  0  0  0  0  0
   12.1666   12.6813   20.5921 C   0  0  0  0  0  0  0  0  0  0  0  0
   12.3795   14.4619   22.2111 C   0  0  0  0  0  0  0  0  0  0  0  0
    7.5372   11.6744   25.2855 C   0  0  0  0  0  0  0  0  0  0  0  0
   13.3054   15.1010   21.3865 C   0  0  0  0  0  0  0  0  0  0  0  0
    8.9830   11.2911   23.3861 C   0  0  0  0  0  0  0  0  0  0  0  0
    8.3163   12.1675   24.2301 C   0  0  0  0  0  0  0  0  0  0  0  0
    7.4575   10.2763   25.4552 C   0  0  0  0  0  0  0  0  0  0  0  0
   11.8101   13.2521   21.8139 C   0  0  0  0  0  0  0  0  0  0  0  0
    8.8448    9.9400   23.6311 C   0  0  0  0  0  0  0  0  0  0  0  0
   13.8997   16.3623   21.7993 C   0  0  0  0  0  0  0  0  0  0  0  0
    9.7994   11.7757   22.2797 C   0  0  0  0  0  0  0  0  0  0  0  0
    8.4487   13.6420   23.9894 C   0  0  0  0  0  0  0  0  0  0  0  0
   15.2891   16.6649   21.3179 C   0  0  0  0  0  0  0  0  0  0  0  0
   11.0452    9.1346   22.7387 C   0  0  0  0  0  0  0  0  0  0  0  0
    9.5329    8.9362   22.7639 C   0  0  0  0  0  0  0  0  0  0  0  0
    8.1034    9.4234   24.6378 N   0  0  0  0  0  0  0  0  0  0  0  0
   10.8688   12.6025   22.6517 N   0  0  0  0  0  0  0  0  0  0  0  0
   13.3511   17.2001   22.5184 O   0  0  0  0  0  0  0  0  0  0  0  0
    9.5306   11.4955   21.1052 O   0  0  0  0  0  0  0  0  0  0  0  0
    5.5524   12.6860   27.8706 H   0  0  0  0  0  0  0  0  0  0  0  0
    5.4043   10.2305   28.1802 H   0  0  0  0  0  0  0  0  0  0  0  0
   13.3698   12.8761   18.8160 H   0  0  0  0  0  0  0  0  0  0  0  0
    6.8957   13.6160   26.0464 H   0  0  0  0  0  0  0  0  0  0  0  0
   14.3830   15.0184   19.5143 H   0  0  0  0  0  0  0  0  0  0  0  0
    6.6037    8.7127   26.6604 H   0  0  0  0  0  0  0  0  0  0  0  0
   11.7295   11.7384   20.2728 H   0  0  0  0  0  0  0  0  0  0  0  0
   12.1021   14.9065   23.1647 H   0  0  0  0  0  0  0  0  0  0  0  0
    9.3025   14.0365   24.5480 H   0  0  0  0  0  0  0  0  0  0  0  0
    8.5937   13.8519   22.9248 H   0  0  0  0  0  0  0  0  0  0  0  0
    7.5435   14.1713   24.3041 H   0  0  0  0  0  0  0  0  0  0  0  0
   15.3218   17.2019   20.3568 H   0  0  0  0  0  0  0  0  0  0  0  0
   15.9172   15.7663   21.2157 H   0  0  0  0  0  0  0  0  0  0  0  0
   15.8548   17.3201   22.0040 H   0  0  0  0  0  0  0  0  0  0  0  0
   11.3044   10.1429   22.3983 H   0  0  0  0  0  0  0  0  0  0  0  0
   11.5172    8.4163   22.0611 H   0  0  0  0  0  0  0  0  0  0  0  0
   11.4772    8.9951   23.7355 H   0  0  0  0  0  0  0  0  0  0  0  0
    9.3075    7.9156   23.1095 H   0  0  0  0  0  0  0  0  0  0  0  0
    9.1436    8.9904   21.7355 H   0  0  0  0  0  0  0  0  0  0  0  0
   10.9841   12.7559   23.6505 H   0  0  0  0  0  0  0  0  0  0  0  0
  1  2  1  0  0  0  0
  1  4  2  0  0  0  0
  2  6  2  0  0  0  0
  3  5  1  0  0  0  0
  3  7  2  0  0  0  0
  4  9  1  0  0  0  0
  5 10  2  0  0  0  0
  6 13  1  0  0  0  0
  7 14  1  0  0  0  0
  8 10  1  0  0  0  0
  8 14  2  0  0  0  0
  9 12  2  0  0  0  0
  9 13  1  0  0  0  0
 10 16  1  0  0  0  0
 11 12  1  0  0  0  0
 11 15  2  0  0  0  0
 11 17  1  0  0  0  0
 12 18  1  0  0  0  0
 13 22  2  0  0  0  0
 14 23  1  0  0  0  0
 15 21  1  0  0  0  0
 15 22  1  0  0  0  0
 16 19  1  0  0  0  0
 16 24  2  0  0  0  0
 17 23  1  0  0  0  0
 17 25  2  0  0  0  0
 20 21  1  0  0  0  0
  1 26  1  0  0  0  0
  2 27  1  0  0  0  0
  3 28  1  0  0  0  0
  4 29  1  0  0  0  0
  5 30  1  0  0  0  0
  6 31  1  0  0  0  0
  7 32  1  0  0  0  0
  8 33  1  0  0  0  0
 18 34  1  0  0  0  0
 18 35  1  0  0  0  0
 18 36  1  0  0  0  0
 19 37  1  0  0  0  0
 19 38  1  0  0  0  0
 19 39  1  0  0  0  0
 20 40  1  0  0  0  0
 20 41  1  0  0  0  0
 20 42  1  0  0  0  0
 21 43  1  0  0  0  0
 21 44  1  0  0  0  0
 23 45  1  0  0  0  0
M  END
> <idnumber>
Z90743404

> <heavy_atoms>
25

> <LogS>
-5.57

> <LogP>
3.731

> <rotating_bonds>
4

> <PSA>
59.06

> <hb_acceptors>
3

> <hb_donors>
1

> <Collection>
HTS

> <link>
https://www.enaminestore.com/catalog/Z90743404

> <ROCS_ShapeQuery>
_x1140_x0812_0A_x1140_0A_x1097_0A_x0365_0A_x1097_0A_x0310_0A

> <ROCS_TanimotoCombo>
0.626 

> <ROCS_ShapeTanimoto>
0.288 

> <ROCS_ColorTanimoto>
0.338 

> <ROCS_RefTversky>
0.259 

> <ROCS_RefColorTversky>
0.505 

> <ROCS_RefTverskyCombo>
0.764 

> <ROCS_FitTversky>
1.641 

> <ROCS_FitColorTversky>
0.505 

> <ROCS_FitTverskyCombo>
2.146 

> <ROCS_ColorScore>
-4.041

> <ROCS_Overlap>
2661.219

> <ROCS_Rank>
440                 

$$$$
untitled-dbase-460696_11
  -OEChem-02092421083D

 26 26  0     0  0  0  0  0  0999 V2000
   11.9180   15.2892   22.2993 C   0  0  0  0  0  0  0  0  0  0  0  0
    7.6805   11.9182   25.4480 C   0  0  0  0  0  0  0  0  0  0  0  0
    8.4619   12.4507   24.4286 C   0  0  0  0  0  0  0  0  0  0  0  0
    7.5595   10.5398   25.5199 C   0  0  0  0  0  0  0  0  0  0  0  0
    9.0895   11.6005   23.5249 C   0  0  0  0  0  0  0  0  0  0  0  0
    8.9055   10.2363   23.6830 C   0  0  0  0  0  0  0  0  0  0  0  0
    9.9078   12.1504   22.4553 C   0  0  0  0  0  0  0  0  0  0  0  0
   10.0014    7.1795   21.9747 C   0  0  0  0  0  0  0  0  0  0  0  0
   11.3815   14.0487   21.7426 C   0  0  0  0  0  0  0  0  0  0  0  0
    9.2740    7.9778   23.0355 C   0  0  0  0  0  0  0  0  0  0  0  0
   12.3460   16.2744   22.7383 N   0  0  0  0  0  0  0  0  0  0  0  0
    8.1540    9.6821   24.6605 N   0  0  0  0  0  0  0  0  0  0  0  0
   10.5541   13.3653   22.7106 N   0  0  0  0  0  0  0  0  0  0  0  0
    9.9982   11.5616   21.3637 O   0  0  0  0  0  0  0  0  0  0  0  0
    9.5065    9.3633   22.8133 O   0  0  0  0  0  0  0  0  0  0  0  0
    7.1828   12.5612   26.1649 H   0  0  0  0  0  0  0  0  0  0  0  0
    8.5747   13.5285   24.3477 H   0  0  0  0  0  0  0  0  0  0  0  0
    6.9621   10.0740   26.2967 H   0  0  0  0  0  0  0  0  0  0  0  0
    9.6401    7.4381   20.9755 H   0  0  0  0  0  0  0  0  0  0  0  0
   11.0790    7.3681   22.0208 H   0  0  0  0  0  0  0  0  0  0  0  0
    9.8591    6.1056   22.1348 H   0  0  0  0  0  0  0  0  0  0  0  0
   10.7647   14.2465   20.8612 H   0  0  0  0  0  0  0  0  0  0  0  0
   12.1858   13.3659   21.4543 H   0  0  0  0  0  0  0  0  0  0  0  0
    9.6400    7.7144   24.0323 H   0  0  0  0  0  0  0  0  0  0  0  0
    8.1975    7.7889   22.9875 H   0  0  0  0  0  0  0  0  0  0  0  0
   10.3958   13.8351   23.5961 H   0  0  0  0  0  0  0  0  0  0  0  0
  1  9  1  0  0  0  0
  1 11  3  0  0  0  0
  2  3  2  0  0  0  0
  2  4  1  0  0  0  0
  3  5  1  0  0  0  0
  4 12  2  0  0  0  0
  5  6  2  0  0  0  0
  5  7  1  0  0  0  0
  6 12  1  0  0  0  0
  6 15  1  0  0  0  0
  7 13  1  0  0  0  0
  7 14  2  0  0  0  0
  8 10  1  0  0  0  0
  9 13  1  0  0  0  0
 10 15  1  0  0  0  0
  2 16  1  0  0  0  0
  3 17  1  0  0  0  0
  4 18  1  0  0  0  0
  8 19  1  0  0  0  0
  8 20  1  0  0  0  0
  8 21  1  0  0  0  0
  9 22  1  0  0  0  0
  9 23  1  0  0  0  0
 10 24  1  0  0  0  0
 10 25  1  0  0  0  0
 13 26  1  0  0  0  0
M  END
> <idnumber>
Z979003710

> <heavy_atoms>
15

> <LogS>
-1.787

> <LogP>
0.742

> <rotating_bonds>
4

> <PSA>
75.01

> <hb_acceptors>
4

> <hb_donors>
1

> <Collection>
Functional

> <link>
https://www.enaminestore.com/catalog/Z979003710

> <ROCS_ShapeQuery>
_x1140_x0812_0A_x1140_0A_x1097_0A_x0365_0A_x1097_0A_x0310_0A

> <ROCS_TanimotoCombo>
0.626 

> <ROCS_ShapeTanimoto>
0.231 

> <ROCS_ColorTanimoto>
0.395 

> <ROCS_RefTversky>
0.209 

> <ROCS_RefColorTversky>
0.502 

> <ROCS_RefTverskyCombo>
0.711 

> <ROCS_FitTversky>
1.847 

> <ROCS_FitColorTversky>
0.649 

> <ROCS_FitTverskyCombo>
2.496 

> <ROCS_ColorScore>
-3.965

> <ROCS_Overlap>
2140.702

> <ROCS_Rank>
441                 

$$$$
untitled-dbase-436944_61
  -OEChem-02092421083D

 34 35  0     0  0  0  0  0  0999 V2000
    7.1582   11.9342   24.7872 C   0  0  0  0  0  0  0  0  0  0  0  0
    8.1881    9.7489   24.7674 C   0  0  0  0  0  0  0  0  0  0  0  0
    9.1374   11.5437   23.4580 C   0  0  0  0  0  0  0  0  0  0  0  0
    8.1344   12.4023   23.9078 C   0  0  0  0  0  0  0  0  0  0  0  0
    7.1851   10.6075   25.2171 C   0  0  0  0  0  0  0  0  0  0  0  0
    9.1644   10.2169   23.8879 C   0  0  0  0  0  0  0  0  0  0  0  0
   12.3286   15.0829   23.4015 C   0  0  0  0  0  0  0  0  0  0  0  0
   11.6882   14.0719   22.7159 C   0  0  0  0  0  0  0  0  0  0  0  0
   11.7555   16.2108   21.6100 C   0  0  0  0  0  0  0  0  0  0  0  0
   10.1632   12.0282   22.5406 C   0  0  0  0  0  0  0  0  0  0  0  0
    8.0801   13.8281   23.4646 C   0  0  0  0  0  0  0  0  0  0  0  0
   12.9665   14.9645   24.7287 C   0  0  0  0  0  0  0  0  0  0  0  0
   11.5984   17.3236   20.6482 C   0  0  0  0  0  0  0  0  0  0  0  0
   11.4624   12.6296   23.0981 C   0  0  0  0  0  0  0  0  0  0  0  0
   12.3685   16.3100   22.7687 N   0  0  0  0  0  0  0  0  0  0  0  0
    9.9916   11.9587   21.3084 O   0  0  0  0  0  0  0  0  0  0  0  0
    6.2332   10.1523   26.0769 O   0  0  0  0  0  0  0  0  0  0  0  0
   10.1362    9.3613   23.4621 O   0  0  0  0  0  0  0  0  0  0  0  0
   11.1069   14.6712   21.2178 S   0  0  0  0  0  0  0  0  0  0  0  0
    6.3753   12.6008   25.1412 H   0  0  0  0  0  0  0  0  0  0  0  0
    8.2086    8.7150   25.1033 H   0  0  0  0  0  0  0  0  0  0  0  0
    8.6556   14.4605   24.1501 H   0  0  0  0  0  0  0  0  0  0  0  0
    8.4898   13.9443   22.4539 H   0  0  0  0  0  0  0  0  0  0  0  0
    7.0465   14.1942   23.4347 H   0  0  0  0  0  0  0  0  0  0  0  0
   14.0255   14.6752   24.6347 H   0  0  0  0  0  0  0  0  0  0  0  0
   12.9254   15.9117   25.2922 H   0  0  0  0  0  0  0  0  0  0  0  0
   12.4669   14.2110   25.3607 H   0  0  0  0  0  0  0  0  0  0  0  0
   12.4446   17.3587   19.9444 H   0  0  0  0  0  0  0  0  0  0  0  0
   10.6721   17.2288   20.0583 H   0  0  0  0  0  0  0  0  0  0  0  0
   11.5406   18.3002   21.1561 H   0  0  0  0  0  0  0  0  0  0  0  0
   12.3064   12.0319   22.7340 H   0  0  0  0  0  0  0  0  0  0  0  0
   11.4396   12.5530   24.1916 H   0  0  0  0  0  0  0  0  0  0  0  0
    6.3851    9.2159   26.2818 H   0  0  0  0  0  0  0  0  0  0  0  0
   10.0061    8.4848   23.8563 H   0  0  0  0  0  0  0  0  0  0  0  0
  1  4  2  0  0  0  0
  1  5  1  0  0  0  0
  2  5  2  0  0  0  0
  2  6  1  0  0  0  0
  3  4  1  0  0  0  0
  3  6  2  0  0  0  0
  3 10  1  0  0  0  0
  4 11  1  0  0  0  0
  5 17  1  0  0  0  0
  6 18  1  0  0  0  0
  7  8  2  0  0  0  0
  7 12  1  0  0  0  0
  7 15  1  0  0  0  0
  8 14  1  0  0  0  0
  8 19  1  0  0  0  0
  9 13  1  0  0  0  0
  9 15  2  0  0  0  0
  9 19  1  0  0  0  0
 10 14  1  0  0  0  0
 10 16  2  0  0  0  0
  1 20  1  0  0  0  0
  2 21  1  0  0  0  0
 11 22  1  0  0  0  0
 11 23  1  0  0  0  0
 11 24  1  0  0  0  0
 12 25  1  0  0  0  0
 12 26  1  0  0  0  0
 12 27  1  0  0  0  0
 13 28  1  0  0  0  0
 13 29  1  0  0  0  0
 13 30  1  0  0  0  0
 14 31  1  0  0  0  0
 14 32  1  0  0  0  0
 17 33  1  0  0  0  0
 18 34  1  0  0  0  0
M  END
> <idnumber>
Z56768351

> <heavy_atoms>
19

> <LogS>
-2.2

> <LogP>
2.969

> <rotating_bonds>
3

> <PSA>
70.42

> <hb_acceptors>
4

> <hb_donors>
2

> <Collection>
HTS

> <link>
https://www.enaminestore.com/catalog/Z56768351

> <ROCS_ShapeQuery>
_x1140_x0812_0A_x1140_0A_x1097_0A_x0365_0A_x1097_0A_x0310_0A

> <ROCS_TanimotoCombo>
0.626 

> <ROCS_ShapeTanimoto>
0.257 

> <ROCS_ColorTanimoto>
0.368 

> <ROCS_RefTversky>
0.231 

> <ROCS_RefColorTversky>
0.538 

> <ROCS_RefTverskyCombo>
0.769 

> <ROCS_FitTversky>
1.790 

> <ROCS_FitColorTversky>
0.538 

> <ROCS_FitTverskyCombo>
2.328 

> <ROCS_ColorScore>
-4.305

> <ROCS_Overlap>
2372.425

> <ROCS_Rank>
442                 

$$$$
untitled-dbase-632829_101
  -OEChem-02092421083D

 31 32  0     0  0  0  0  0  0999 V2000
   13.6460   15.1955   21.5449 C   0  0  0  0  0  0  0  0  0  0  0  0
    8.4838   12.5209   24.2513 C   0  0  0  0  0  0  0  0  0  0  0  0
    7.5974   10.8996   25.8078 C   0  0  0  0  0  0  0  0  0  0  0  0
   13.5678   16.4884   22.0965 C   0  0  0  0  0  0  0  0  0  0  0  0
    9.1782   11.5074   23.5909 C   0  0  0  0  0  0  0  0  0  0  0  0
    9.0821   10.1899   24.0389 C   0  0  0  0  0  0  0  0  0  0  0  0
    8.2917    9.8860   25.1474 C   0  0  0  0  0  0  0  0  0  0  0  0
    7.6935   12.2171   25.3598 C   0  0  0  0  0  0  0  0  0  0  0  0
   12.4555   14.6030   21.8887 C   0  0  0  0  0  0  0  0  0  0  0  0
    9.9961   11.8580   22.4365 C   0  0  0  0  0  0  0  0  0  0  0  0
   10.4491   15.3941   23.1785 C   0  0  0  0  0  0  0  0  0  0  0  0
   11.9188   13.2299   21.6046 C   0  0  0  0  0  0  0  0  0  0  0  0
   12.4186   16.7051   22.7416 N   0  0  0  0  0  0  0  0  0  0  0  0
   11.7635   15.5406   22.5975 N   0  0  0  0  0  0  0  0  0  0  0  0
    9.7776    9.1505   23.3825 N   0  0  0  0  0  0  0  0  0  0  0  0
   11.0368   12.7666   22.6516 N   0  0  0  0  0  0  0  0  0  0  0  0
    9.7465   11.3744   21.3199 O   0  0  0  0  0  0  0  0  0  0  0  0
    8.1912    8.6234   25.5873 F   0  0  0  0  0  0  0  0  0  0  0  0
    6.8363   13.4669   26.1754 Cl  0  0  0  0  0  0  0  0  0  0  0  0
   14.4541   14.7572   20.9777 H   0  0  0  0  0  0  0  0  0  0  0  0
    8.5600   13.5478   23.9003 H   0  0  0  0  0  0  0  0  0  0  0  0
    6.9852   10.6477   26.6699 H   0  0  0  0  0  0  0  0  0  0  0  0
   14.3006   17.2814   22.0552 H   0  0  0  0  0  0  0  0  0  0  0  0
   10.5705   15.0102   24.1949 H   0  0  0  0  0  0  0  0  0  0  0  0
    9.9475   16.3657   23.1942 H   0  0  0  0  0  0  0  0  0  0  0  0
    9.8620   14.6977   22.5732 H   0  0  0  0  0  0  0  0  0  0  0  0
   11.3584   13.2216   20.6633 H   0  0  0  0  0  0  0  0  0  0  0  0
   12.7317   12.5030   21.5056 H   0  0  0  0  0  0  0  0  0  0  0  0
   10.3050    9.3619   22.5609 H   0  0  0  0  0  0  0  0  0  0  0  0
    9.6536    8.2099   23.6956 H   0  0  0  0  0  0  0  0  0  0  0  0
   11.1559   13.1786   23.5713 H   0  0  0  0  0  0  0  0  0  0  0  0
  1  4  1  0  0  0  0
  1  9  2  0  0  0  0
  2  5  1  0  0  0  0
  2  8  2  0  0  0  0
  3  7  2  0  0  0  0
  3  8  1  0  0  0  0
  4 13  2  0  0  0  0
  5  6  2  0  0  0  0
  5 10  1  0  0  0  0
  6  7  1  0  0  0  0
  6 15  1  0  0  0  0
  7 18  1  0  0  0  0
  8 19  1  0  0  0  0
  9 12  1  0  0  0  0
  9 14  1  0  0  0  0
 10 16  1  0  0  0  0
 10 17  2  0  0  0  0
 11 14  1  0  0  0  0
 12 16  1  0  0  0  0
 13 14  1  0  0  0  0
  1 20  1  0  0  0  0
  2 21  1  0  0  0  0
  3 22  1  0  0  0  0
  4 23  1  0  0  0  0
 11 24  1  0  0  0  0
 11 25  1  0  0  0  0
 11 26  1  0  0  0  0
 12 27  1  0  0  0  0
 12 28  1  0  0  0  0
 15 29  1  0  0  0  0
 15 30  1  0  0  0  0
 16 31  1  0  0  0  0
M  END
> <idnumber>
Z1982068676

> <heavy_atoms>
19

> <LogS>
-2.609

> <LogP>
1.627

> <rotating_bonds>
3

> <PSA>
72.94

> <hb_acceptors>
3

> <hb_donors>
2

> <Collection>
HTS

> <link>
https://www.enaminestore.com/catalog/Z1982068676

> <ROCS_ShapeQuery>
_x1140_x0812_0A_x1140_0A_x1097_0A_x0365_0A_x1097_0A_x0310_0A

> <ROCS_TanimotoCombo>
0.626 

> <ROCS_ShapeTanimoto>
0.241 

> <ROCS_ColorTanimoto>
0.385 

> <ROCS_RefTversky>
0.219 

> <ROCS_RefColorTversky>
0.524 

> <ROCS_RefTverskyCombo>
0.744 

> <ROCS_FitTversky>
1.673 

> <ROCS_FitColorTversky>
0.591 

> <ROCS_FitTverskyCombo>
2.264 

> <ROCS_ColorScore>
-4.168

> <ROCS_Overlap>
2252.571

> <ROCS_Rank>
443                 

$$$$
untitled-dbase-173161_5
  -OEChem-02092421083D

 23 23  0     0  0  0  0  0  0999 V2000
   11.8596   15.3244   22.2502 C   0  0  0  0  0  0  0  0  0  0  0  0
    8.0043   10.2631   25.6696 C   0  0  0  0  0  0  0  0  0  0  0  0
    8.9672    9.5572   24.9485 C   0  0  0  0  0  0  0  0  0  0  0  0
    8.3174   12.1707   24.2205 C   0  0  0  0  0  0  0  0  0  0  0  0
    9.2804   11.4648   23.4993 C   0  0  0  0  0  0  0  0  0  0  0  0
    7.6793   11.5699   25.3056 C   0  0  0  0  0  0  0  0  0  0  0  0
    9.6053   10.1580   23.8634 C   0  0  0  0  0  0  0  0  0  0  0  0
    9.9098   12.1492   22.3759 C   0  0  0  0  0  0  0  0  0  0  0  0
    6.6502   12.3245   26.0774 C   0  0  0  0  0  0  0  0  0  0  0  0
   11.2397   14.1432   21.6525 C   0  0  0  0  0  0  0  0  0  0  0  0
   12.3533   16.2629   22.7215 N   0  0  0  0  0  0  0  0  0  0  0  0
   10.5863   13.3390   22.6600 N   0  0  0  0  0  0  0  0  0  0  0  0
    9.8165   11.6863   21.2274 O   0  0  0  0  0  0  0  0  0  0  0  0
   11.0399    9.0380   22.8280 I   0  0  0  0  0  0  0  0  0  0  0  0
    7.5119    9.7876   26.5141 H   0  0  0  0  0  0  0  0  0  0  0  0
    9.2026    8.5400   25.2519 H   0  0  0  0  0  0  0  0  0  0  0  0
    8.0603   13.1900   23.9412 H   0  0  0  0  0  0  0  0  0  0  0  0
    7.1189   12.8746   26.9025 H   0  0  0  0  0  0  0  0  0  0  0  0
    6.1194   13.0419   25.4382 H   0  0  0  0  0  0  0  0  0  0  0  0
    5.8917   11.6499   26.4955 H   0  0  0  0  0  0  0  0  0  0  0  0
   10.4844   14.4257   20.9136 H   0  0  0  0  0  0  0  0  0  0  0  0
   11.9858   13.5135   21.1595 H   0  0  0  0  0  0  0  0  0  0  0  0
   10.5771   13.7036   23.6070 H   0  0  0  0  0  0  0  0  0  0  0  0
  1 10  1  0  0  0  0
  1 11  3  0  0  0  0
  2  3  2  0  0  0  0
  2  6  1  0  0  0  0
  3  7  1  0  0  0  0
  4  5  1  0  0  0  0
  4  6  2  0  0  0  0
  5  7  2  0  0  0  0
  5  8  1  0  0  0  0
  6  9  1  0  0  0  0
  7 14  1  0  0  0  0
  8 12  1  0  0  0  0
  8 13  2  0  0  0  0
 10 12  1  0  0  0  0
  2 15  1  0  0  0  0
  3 16  1  0  0  0  0
  4 17  1  0  0  0  0
  9 18  1  0  0  0  0
  9 19  1  0  0  0  0
  9 20  1  0  0  0  0
 10 21  1  0  0  0  0
 10 22  1  0  0  0  0
 12 23  1  0  0  0  0
M  END
> <idnumber>
Z1000087104

> <heavy_atoms>
14

> <LogS>
-3.482

> <LogP>
1.003

> <rotating_bonds>
2

> <PSA>
52.89

> <hb_acceptors>
2

> <hb_donors>
1

> <Collection>
HTS

> <link>
https://www.enaminestore.com/catalog/Z1000087104

> <ROCS_ShapeQuery>
_x1140_x0812_0A_x1140_0A_x1097_0A_x0365_0A_x1097_0A_x0310_0A

> <ROCS_TanimotoCombo>
0.625 

> <ROCS_ShapeTanimoto>
0.220 

> <ROCS_ColorTanimoto>
0.406 

> <ROCS_RefTversky>
0.199 

> <ROCS_RefColorTversky>
0.478 

> <ROCS_RefTverskyCombo>
0.677 

> <ROCS_FitTversky>
1.867 

> <ROCS_FitColorTversky>
0.728 

> <ROCS_FitTverskyCombo>
2.596 

> <ROCS_ColorScore>
-3.752

> <ROCS_Overlap>
2044.362

> <ROCS_Rank>
444                 

$$$$
untitled-dbase-733183_88
  -OEChem-02092421083D

 32 33  0     0  0  0  0  0  0999 V2000
   13.4740   13.0626   22.5896 C   0  0  0  0  0  0  0  0  0  0  0  0
   15.3336   14.4147   23.3319 C   0  0  0  0  0  0  0  0  0  0  0  0
    7.7375   10.6385   25.3243 C   0  0  0  0  0  0  0  0  0  0  0  0
   12.6840   14.2073   22.4836 C   0  0  0  0  0  0  0  0  0  0  0  0
   13.2188   15.4557   22.8017 C   0  0  0  0  0  0  0  0  0  0  0  0
   14.7988   13.1663   23.0139 C   0  0  0  0  0  0  0  0  0  0  0  0
   14.5436   15.5594   23.2259 C   0  0  0  0  0  0  0  0  0  0  0  0
    9.1241   11.2902   23.4656 C   0  0  0  0  0  0  0  0  0  0  0  0
    8.8947    9.9368   23.5986 C   0  0  0  0  0  0  0  0  0  0  0  0
    9.9164   12.0396   22.4567 C   0  0  0  0  0  0  0  0  0  0  0  0
   10.9475    8.8663   22.6359 C   0  0  0  0  0  0  0  0  0  0  0  0
   11.2684   14.0750   22.0266 C   0  0  0  0  0  0  0  0  0  0  0  0
    9.4177    8.8743   22.7148 C   0  0  0  0  0  0  0  0  0  0  0  0
    8.1002    9.5612   24.6641 N   0  0  0  0  0  0  0  0  0  0  0  0
   10.4925   13.2253   22.8927 N   0  0  0  0  0  0  0  0  0  0  0  0
   10.0040   11.5979   21.3139 O   0  0  0  0  0  0  0  0  0  0  0  0
   12.4370   16.5688   22.6936 O   0  0  0  0  0  0  0  0  0  0  0  0
    8.3154   12.1367   24.7189 S   0  0  0  0  0  0  0  0  0  0  0  0
   15.7716   11.7528   23.1466 Cl  0  0  0  0  0  0  0  0  0  0  0  0
   15.2325   17.0898   23.6264 Cl  0  0  0  0  0  0  0  0  0  0  0  0
   13.0527   12.0909   22.3415 H   0  0  0  0  0  0  0  0  0  0  0  0
   16.3669   14.4942   23.6631 H   0  0  0  0  0  0  0  0  0  0  0  0
    7.1084   10.5904   26.2026 H   0  0  0  0  0  0  0  0  0  0  0  0
   11.3247    9.8402   22.3061 H   0  0  0  0  0  0  0  0  0  0  0  0
   11.3036    8.1084   21.9310 H   0  0  0  0  0  0  0  0  0  0  0  0
   11.3859    8.6505   23.6161 H   0  0  0  0  0  0  0  0  0  0  0  0
   10.7724   15.0543   21.9919 H   0  0  0  0  0  0  0  0  0  0  0  0
   11.2115   13.6529   21.0146 H   0  0  0  0  0  0  0  0  0  0  0  0
    9.0795    7.8754   23.0504 H   0  0  0  0  0  0  0  0  0  0  0  0
    9.0150    8.9762   21.6889 H   0  0  0  0  0  0  0  0  0  0  0  0
   10.3212   13.5556   23.8393 H   0  0  0  0  0  0  0  0  0  0  0  0
   12.9424   17.3563   22.9466 H   0  0  0  0  0  0  0  0  0  0  0  0
  1  4  1  0  0  0  0
  1  6  2  0  0  0  0
  2  6  1  0  0  0  0
  2  7  2  0  0  0  0
  3 14  2  0  0  0  0
  3 18  1  0  0  0  0
  4  5  2  0  0  0  0
  4 12  1  0  0  0  0
  5  7  1  0  0  0  0
  5 17  1  0  0  0  0
  6 19  1  0  0  0  0
  7 20  1  0  0  0  0
  8  9  2  0  0  0  0
  8 10  1  0  0  0  0
  8 18  1  0  0  0  0
  9 13  1  0  0  0  0
  9 14  1  0  0  0  0
 10 15  1  0  0  0  0
 10 16  2  0  0  0  0
 11 13  1  0  0  0  0
 12 15  1  0  0  0  0
  1 21  1  0  0  0  0
  2 22  1  0  0  0  0
  3 23  1  0  0  0  0
 11 24  1  0  0  0  0
 11 25  1  0  0  0  0
 11 26  1  0  0  0  0
 12 27  1  0  0  0  0
 12 28  1  0  0  0  0
 13 29  1  0  0  0  0
 13 30  1  0  0  0  0
 15 31  1  0  0  0  0
 17 32  1  0  0  0  0
M  END
> <idnumber>
Z2140875110

> <heavy_atoms>
20

> <LogS>
-4.351

> <LogP>
3.401

> <rotating_bonds>
4

> <PSA>
62.22

> <hb_acceptors>
3

> <hb_donors>
2

> <Collection>
Advanced

> <link>
https://www.enaminestore.com/catalog/Z2140875110

> <ROCS_ShapeQuery>
_x1140_x0812_0A_x1140_0A_x1097_0A_x0365_0A_x1097_0A_x0310_0A

> <ROCS_TanimotoCombo>
0.625 

> <ROCS_ShapeTanimoto>
0.208 

> <ROCS_ColorTanimoto>
0.418 

> <ROCS_RefTversky>
0.195 

> <ROCS_RefColorTversky>
0.589 

> <ROCS_RefTverskyCombo>
0.784 

> <ROCS_FitTversky>
1.478 

> <ROCS_FitColorTversky>
0.589 

> <ROCS_FitTverskyCombo>
2.067 

> <ROCS_ColorScore>
-4.716

> <ROCS_Overlap>
1996.599

> <ROCS_Rank>
445                 

$$$$
untitled-dbase-559536_124
  -OEChem-02092421083D

 29 30  0     0  0  0  0  0  0999 V2000
    7.6926   12.2282   25.1634 C   0  0  0  0  0  0  0  0  0  0  0  0
    8.6178   12.6281   24.2057 C   0  0  0  0  0  0  0  0  0  0  0  0
   10.2793   15.7826   21.6208 C   0  0  0  0  0  0  0  0  0  0  0  0
   10.2453   17.1302   22.0523 C   0  0  0  0  0  0  0  0  0  0  0  0
    7.5525   10.8707   25.4028 C   0  0  0  0  0  0  0  0  0  0  0  0
    9.3641   11.6718   23.5262 C   0  0  0  0  0  0  0  0  0  0  0  0
   11.4415   15.2487   22.1270 C   0  0  0  0  0  0  0  0  0  0  0  0
    9.1494   10.3392   23.8390 C   0  0  0  0  0  0  0  0  0  0  0  0
   11.3890   17.3235   22.7917 C   0  0  0  0  0  0  0  0  0  0  0  0
   10.3445   12.0874   22.5106 C   0  0  0  0  0  0  0  0  0  0  0  0
   11.8906   12.8465   24.2735 C   0  0  0  0  0  0  0  0  0  0  0  0
   12.0692   13.8875   22.0411 C   0  0  0  0  0  0  0  0  0  0  0  0
    8.2596    9.9125   24.7630 N   0  0  0  0  0  0  0  0  0  0  0  0
   11.3969   12.9198   22.9055 N   0  0  0  0  0  0  0  0  0  0  0  0
   10.1678   11.6525   21.3732 O   0  0  0  0  0  0  0  0  0  0  0  0
   12.1236   16.1814   22.8420 O   0  0  0  0  0  0  0  0  0  0  0  0
    9.8643    9.3645   23.1921 O   0  0  0  0  0  0  0  0  0  0  0  0
   11.8844   18.9500   23.6293 Br  0  0  0  0  0  0  0  0  0  0  0  0
    7.1004   12.9557   25.7068 H   0  0  0  0  0  0  0  0  0  0  0  0
    8.7488   13.6866   23.9968 H   0  0  0  0  0  0  0  0  0  0  0  0
    9.5465   15.2676   21.0163 H   0  0  0  0  0  0  0  0  0  0  0  0
    9.4775   17.8623   21.8450 H   0  0  0  0  0  0  0  0  0  0  0  0
    6.8450   10.5065   26.1406 H   0  0  0  0  0  0  0  0  0  0  0  0
   12.6971   12.1009   24.3333 H   0  0  0  0  0  0  0  0  0  0  0  0
   12.2777   13.8304   24.5767 H   0  0  0  0  0  0  0  0  0  0  0  0
   11.0696   12.5530   24.9441 H   0  0  0  0  0  0  0  0  0  0  0  0
   12.0287   13.5077   21.0144 H   0  0  0  0  0  0  0  0  0  0  0  0
   13.1238   13.9219   22.3339 H   0  0  0  0  0  0  0  0  0  0  0  0
    9.6005    8.4939   23.5205 H   0  0  0  0  0  0  0  0  0  0  0  0
  1  2  2  0  0  0  0
  1  5  1  0  0  0  0
  2  6  1  0  0  0  0
  3  4  1  0  0  0  0
  3  7  2  0  0  0  0
  4  9  2  0  0  0  0
  5 13  2  0  0  0  0
  6  8  2  0  0  0  0
  6 10  1  0  0  0  0
  7 12  1  0  0  0  0
  7 16  1  0  0  0  0
  8 13  1  0  0  0  0
  8 17  1  0  0  0  0
  9 16  1  0  0  0  0
  9 18  1  0  0  0  0
 10 14  1  0  0  0  0
 10 15  2  0  0  0  0
 11 14  1  0  0  0  0
 12 14  1  0  0  0  0
  1 19  1  0  0  0  0
  2 20  1  0  0  0  0
  3 21  1  0  0  0  0
  4 22  1  0  0  0  0
  5 23  1  0  0  0  0
 11 24  1  0  0  0  0
 11 25  1  0  0  0  0
 11 26  1  0  0  0  0
 12 27  1  0  0  0  0
 12 28  1  0  0  0  0
 17 29  1  0  0  0  0
M  END
> <idnumber>
Z384373868

> <heavy_atoms>
18

> <LogS>
-3.419

> <LogP>
2.102

> <rotating_bonds>
3

> <PSA>
66.57

> <hb_acceptors>
3

> <hb_donors>
1

> <Collection>
HTS

> <link>
https://www.enaminestore.com/catalog/Z384373868

> <ROCS_ShapeQuery>
_x1140_x0812_0A_x1140_0A_x1097_0A_x0365_0A_x1097_0A_x0310_0A

> <ROCS_TanimotoCombo>
0.625 

> <ROCS_ShapeTanimoto>
0.236 

> <ROCS_ColorTanimoto>
0.389 

> <ROCS_RefTversky>
0.215 

> <ROCS_RefColorTversky>
0.561 

> <ROCS_RefTverskyCombo>
0.776 

> <ROCS_FitTversky>
1.698 

> <ROCS_FitColorTversky>
0.560 

> <ROCS_FitTverskyCombo>
2.258 

> <ROCS_ColorScore>
-4.487

> <ROCS_Overlap>
2208.022

> <ROCS_Rank>
446                 

$$$$
untitled-dbase-521330_8
  -OEChem-02092421083D

 41 42  0     1  0  0  0  0  0999 V2000
    8.6986   12.0173   24.6159 C   0  0  0  0  0  0  0  0  0  0  0  0
    9.3999   11.4956   23.5564 C   0  0  0  0  0  0  0  0  0  0  0  0
    9.0196   10.1408   23.5155 C   0  0  0  0  0  0  0  0  0  0  0  0
   10.6485   13.5404   22.7923 C   0  0  0  0  0  0  0  0  0  0  0  0
   12.9244   14.4586   22.3163 C   0  0  0  0  0  0  0  0  0  0  0  0
   12.1443   15.8712   20.5461 C   0  0  0  0  0  0  0  0  0  0  0  0
   11.6280   13.9007   21.7222 C   0  0  2  0  0  0  0  0  0  0  0  0
   13.0148   15.8855   21.7901 C   0  0  1  0  0  0  0  0  0  0  0  0
   10.9918    8.9082   22.5789 C   0  0  0  0  0  0  0  0  0  0  0  0
    7.0723   11.0439   26.2545 C   0  0  0  0  0  0  0  0  0  0  0  0
   10.2553   14.5391   19.8088 C   0  0  0  0  0  0  0  0  0  0  0  0
   12.9393   18.1222   22.5071 C   0  0  0  0  0  0  0  0  0  0  0  0
    9.4711    9.1029   22.5712 C   0  0  0  0  0  0  0  0  0  0  0  0
    8.1447    9.8217   24.4731 N   0  0  0  0  0  0  0  0  0  0  0  0
    7.9695   10.9834   25.1256 N   0  0  0  0  0  0  0  0  0  0  0  0
   11.0384   14.9968   20.9487 N   0  0  2  0  0  0  0  0  0  0  0  0
   10.2969   12.1986   22.7176 N   0  0  0  0  0  0  0  0  0  0  0  0
   10.2586   14.3813   23.5959 O   0  0  0  0  0  0  0  0  0  0  0  0
   12.4742   16.8000   22.7374 O   0  0  0  0  0  0  0  0  0  0  0  0
    8.6563   13.0108   25.0418 H   0  0  0  0  0  0  0  0  0  0  0  0
   12.9553   14.4190   23.4105 H   0  0  0  0  0  0  0  0  0  0  0  0
   13.7682   13.8784   21.9235 H   0  0  0  0  0  0  0  0  0  0  0  0
   11.7783   16.8676   20.2789 H   0  0  0  0  0  0  0  0  0  0  0  0
   12.7024   15.4460   19.7025 H   0  0  0  0  0  0  0  0  0  0  0  0
   11.8419   13.0118   21.1174 H   0  0  0  0  0  0  0  0  0  0  0  0
   14.0460   16.1836   21.5772 H   0  0  0  0  0  0  0  0  0  0  0  0
   11.5044    9.8525   22.3661 H   0  0  0  0  0  0  0  0  0  0  0  0
   11.3034    8.1764   21.8270 H   0  0  0  0  0  0  0  0  0  0  0  0
   11.3321    8.5544   23.5580 H   0  0  0  0  0  0  0  0  0  0  0  0
    6.0769   11.2980   25.8809 H   0  0  0  0  0  0  0  0  0  0  0  0
    7.0554   10.0736   26.7585 H   0  0  0  0  0  0  0  0  0  0  0  0
    7.4246   11.8056   26.9557 H   0  0  0  0  0  0  0  0  0  0  0  0
    9.4407   13.8888   20.1604 H   0  0  0  0  0  0  0  0  0  0  0  0
    9.8306   15.4072   19.2836 H   0  0  0  0  0  0  0  0  0  0  0  0
   10.9034   13.9757   19.1214 H   0  0  0  0  0  0  0  0  0  0  0  0
   12.5060   18.7962   23.2501 H   0  0  0  0  0  0  0  0  0  0  0  0
   12.6539   18.4398   21.5011 H   0  0  0  0  0  0  0  0  0  0  0  0
   14.0281   18.1366   22.5965 H   0  0  0  0  0  0  0  0  0  0  0  0
    8.9950    8.1266   22.7900 H   0  0  0  0  0  0  0  0  0  0  0  0
    9.1565    9.3386   21.5352 H   0  0  0  0  0  0  0  0  0  0  0  0
   10.7276   11.6458   21.9794 H   0  0  0  0  0  0  0  0  0  0  0  0
  1  2  2  0  0  0  0
  1 15  1  0  0  0  0
  2  3  1  0  0  0  0
  2 17  1  0  0  0  0
  3 13  1  0  0  0  0
  3 14  2  0  0  0  0
  4  7  1  6  0  0  0
  4 17  1  0  0  0  0
  4 18  2  0  0  0  0
  5  7  1  0  0  0  0
  5  8  1  0  0  0  0
  6  8  1  0  0  0  0
  6 16  1  0  0  0  0
  7 16  1  0  0  0  0
  8 19  1  6  0  0  0
  9 13  1  0  0  0  0
 10 15  1  0  0  0  0
 11 16  1  0  0  0  0
 12 19  1  0  0  0  0
 14 15  1  0  0  0  0
  1 20  1  0  0  0  0
  5 21  1  0  0  0  0
  5 22  1  0  0  0  0
  6 23  1  0  0  0  0
  6 24  1  0  0  0  0
  7 25  1  0  0  0  0
  8 26  1  0  0  0  0
  9 27  1  0  0  0  0
  9 28  1  0  0  0  0
  9 29  1  0  0  0  0
 10 30  1  0  0  0  0
 10 31  1  0  0  0  0
 10 32  1  0  0  0  0
 11 33  1  0  0  0  0
 11 34  1  0  0  0  0
 11 35  1  0  0  0  0
 12 36  1  0  0  0  0
 12 37  1  0  0  0  0
 12 38  1  0  0  0  0
 13 39  1  0  0  0  0
 13 40  1  0  0  0  0
 17 41  1  0  0  0  0
M  END
> <idnumber>
Z2057224744

> <heavy_atoms>
19

> <LogS>
-0.298

> <LogP>
-0.226

> <rotating_bonds>
4

> <PSA>
59.39

> <hb_acceptors>
4

> <hb_donors>
1

> <Collection>
Advanced

> <link>
https://www.enaminestore.com/catalog/Z2057224744

> <ROCS_ShapeQuery>
_x1140_x0812_0A_x1140_0A_x1097_0A_x0365_0A_x1097_0A_x0310_0A

> <ROCS_TanimotoCombo>
0.625 

> <ROCS_ShapeTanimoto>
0.234 

> <ROCS_ColorTanimoto>
0.392 

> <ROCS_RefTversky>
0.214 

> <ROCS_RefColorTversky>
0.563 

> <ROCS_RefTverskyCombo>
0.777 

> <ROCS_FitTversky>
1.643 

> <ROCS_FitColorTversky>
0.563 

> <ROCS_FitTverskyCombo>
2.206 

> <ROCS_ColorScore>
-4.503

> <ROCS_Overlap>
2198.033

> <ROCS_Rank>
447                 

$$$$
untitled-dbase-943807_49
  -OEChem-02092421083D

 33 34  0     0  0  0  0  0  0999 V2000
    8.8443   12.3868   24.9582 C   0  0  0  0  0  0  0  0  0  0  0  0
    7.6040   11.9518   25.4348 C   0  0  0  0  0  0  0  0  0  0  0  0
    9.6666   11.5171   24.2531 C   0  0  0  0  0  0  0  0  0  0  0  0
    7.2257   10.6348   25.1550 C   0  0  0  0  0  0  0  0  0  0  0  0
    9.2113   10.2294   24.0402 C   0  0  0  0  0  0  0  0  0  0  0  0
   11.2581   14.3503   20.3227 C   0  0  0  0  0  0  0  0  0  0  0  0
   10.2532   13.4711   20.3812 C   0  0  0  0  0  0  0  0  0  0  0  0
   10.2366   12.4154   21.4286 C   0  0  0  0  0  0  0  0  0  0  0  0
    6.6991   12.9100   26.1604 C   0  0  0  0  0  0  0  0  0  0  0  0
    5.9199   10.0775   25.6572 C   0  0  0  0  0  0  0  0  0  0  0  0
    5.5656   12.2144   26.9128 C   0  0  0  0  0  0  0  0  0  0  0  0
    4.9082   11.1578   26.0328 C   0  0  0  0  0  0  0  0  0  0  0  0
   10.9899   11.9784   23.7496 C   0  0  0  0  0  0  0  0  0  0  0  0
    8.0176    9.7684   24.4738 N   0  0  0  0  0  0  0  0  0  0  0  0
   10.8719   12.8267   22.5898 N   0  0  0  0  0  0  0  0  0  0  0  0
    9.7159   11.3186   21.2523 O   0  0  0  0  0  0  0  0  0  0  0  0
    9.9917    9.3385   23.3505 O   0  0  0  0  0  0  0  0  0  0  0  0
    9.1652   13.4102   25.1392 H   0  0  0  0  0  0  0  0  0  0  0  0
   11.2638   15.1170   19.5550 H   0  0  0  0  0  0  0  0  0  0  0  0
   12.0878   14.3367   21.0208 H   0  0  0  0  0  0  0  0  0  0  0  0
    9.4416   13.5199   19.6633 H   0  0  0  0  0  0  0  0  0  0  0  0
    7.2806   13.5084   26.8718 H   0  0  0  0  0  0  0  0  0  0  0  0
    6.2710   13.5986   25.4211 H   0  0  0  0  0  0  0  0  0  0  0  0
    5.4825    9.4216   24.8955 H   0  0  0  0  0  0  0  0  0  0  0  0
    6.1357    9.4590   26.5372 H   0  0  0  0  0  0  0  0  0  0  0  0
    5.9577   11.7407   27.8217 H   0  0  0  0  0  0  0  0  0  0  0  0
    4.8255   12.9568   27.2319 H   0  0  0  0  0  0  0  0  0  0  0  0
    4.5101   11.6303   25.1258 H   0  0  0  0  0  0  0  0  0  0  0  0
    4.0609   10.7028   26.5579 H   0  0  0  0  0  0  0  0  0  0  0  0
   11.5324   12.5475   24.5187 H   0  0  0  0  0  0  0  0  0  0  0  0
   11.6345   11.1326   23.4703 H   0  0  0  0  0  0  0  0  0  0  0  0
   11.3031   13.7472   22.6318 H   0  0  0  0  0  0  0  0  0  0  0  0
    9.5370    8.4873   23.2859 H   0  0  0  0  0  0  0  0  0  0  0  0
  1  2  2  0  0  0  0
  1  3  1  0  0  0  0
  2  4  1  0  0  0  0
  2  9  1  0  0  0  0
  3  5  2  0  0  0  0
  3 13  1  0  0  0  0
  4 10  1  0  0  0  0
  4 14  2  0  0  0  0
  5 14  1  0  0  0  0
  5 17  1  0  0  0  0
  6  7  2  0  0  0  0
  7  8  1  0  0  0  0
  8 15  1  0  0  0  0
  8 16  2  0  0  0  0
  9 11  1  0  0  0  0
 10 12  1  0  0  0  0
 11 12  1  0  0  0  0
 13 15  1  0  0  0  0
  1 18  1  0  0  0  0
  6 19  1  0  0  0  0
  6 20  1  0  0  0  0
  7 21  1  0  0  0  0
  9 22  1  0  0  0  0
  9 23  1  0  0  0  0
 10 24  1  0  0  0  0
 10 25  1  0  0  0  0
 11 26  1  0  0  0  0
 11 27  1  0  0  0  0
 12 28  1  0  0  0  0
 12 29  1  0  0  0  0
 13 30  1  0  0  0  0
 13 31  1  0  0  0  0
 15 32  1  0  0  0  0
 17 33  1  0  0  0  0
M  END
> <idnumber>
Z3210945312

> <heavy_atoms>
17

> <LogS>
-2.349

> <LogP>
1.497

> <rotating_bonds>
3

> <PSA>
62.22

> <hb_acceptors>
3

> <hb_donors>
2

> <Collection>
Functional

> <link>
https://www.enaminestore.com/catalog/Z3210945312

> <ROCS_ShapeQuery>
_x1140_x0812_0A_x1140_0A_x1097_0A_x0365_0A_x1097_0A_x0310_0A

> <ROCS_TanimotoCombo>
0.625 

> <ROCS_ShapeTanimoto>
0.263 

> <ROCS_ColorTanimoto>
0.362 

> <ROCS_RefTversky>
0.234 

> <ROCS_RefColorTversky>
0.532 

> <ROCS_RefTverskyCombo>
0.766 

> <ROCS_FitTversky>
1.920 

> <ROCS_FitColorTversky>
0.531 

> <ROCS_FitTverskyCombo>
2.452 

> <ROCS_ColorScore>
-4.256

> <ROCS_Overlap>
2399.509

> <ROCS_Rank>
448                 

$$$$
untitled-dbase-1134245_79
  -OEChem-02092421083D

 46 49  0     0  0  0  0  0  0999 V2000
   12.5275   15.6834   23.1877 C   0  0  0  0  0  0  0  0  0  0  0  0
   13.4807   14.2254   26.0045 C   0  0  0  0  0  0  0  0  0  0  0  0
   14.9448   13.6434   24.1729 C   0  0  0  0  0  0  0  0  0  0  0  0
    8.3028   12.4530   23.9084 C   0  0  0  0  0  0  0  0  0  0  0  0
   14.5234   14.0118   26.9060 C   0  0  0  0  0  0  0  0  0  0  0  0
   15.9876   13.4299   25.0744 C   0  0  0  0  0  0  0  0  0  0  0  0
    7.3141   11.9729   24.7601 C   0  0  0  0  0  0  0  0  0  0  0  0
    9.1666   10.2427   23.7501 C   0  0  0  0  0  0  0  0  0  0  0  0
   13.6914   14.0412   24.6380 C   0  0  0  0  0  0  0  0  0  0  0  0
    9.2505   11.5779   23.3895 C   0  0  0  0  0  0  0  0  0  0  0  0
   15.7769   13.6140   26.4410 C   0  0  0  0  0  0  0  0  0  0  0  0
    7.3167   10.6200   25.0592 C   0  0  0  0  0  0  0  0  0  0  0  0
    4.3399   11.2013   28.3931 C   0  0  0  0  0  0  0  0  0  0  0  0
    4.2445   10.1637   27.2511 C   0  0  0  0  0  0  0  0  0  0  0  0
    5.7665   11.5137   27.8866 C   0  0  0  0  0  0  0  0  0  0  0  0
   11.0643   13.7867   24.0292 C   0  0  0  0  0  0  0  0  0  0  0  0
   12.3600   13.2731   22.4075 C   0  0  0  0  0  0  0  0  0  0  0  0
    5.2896   11.0199   26.5034 C   0  0  0  0  0  0  0  0  0  0  0  0
   10.8299   13.3701   22.5641 C   0  0  0  0  0  0  0  0  0  0  0  0
   12.4964   14.2842   23.6061 C   0  0  0  0  0  0  0  0  0  0  0  0
   12.5522   16.7947   22.8554 N   0  0  0  0  0  0  0  0  0  0  0  0
    8.2207    9.7394   24.5745 N   0  0  0  0  0  0  0  0  0  0  0  0
   10.2579   12.0316   22.5309 N   0  0  0  0  0  0  0  0  0  0  0  0
    6.3034   10.1468   25.9298 N   0  0  0  0  0  0  0  0  0  0  0  0
   16.7787   13.4108   27.3066 F   0  0  0  0  0  0  0  0  0  0  0  0
   12.5067   14.5338   26.3744 H   0  0  0  0  0  0  0  0  0  0  0  0
   15.1165   13.4966   23.1099 H   0  0  0  0  0  0  0  0  0  0  0  0
    8.3258   13.5096   23.6554 H   0  0  0  0  0  0  0  0  0  0  0  0
   14.3596   14.1546   27.9700 H   0  0  0  0  0  0  0  0  0  0  0  0
   16.9635   13.1196   24.7122 H   0  0  0  0  0  0  0  0  0  0  0  0
    6.5709   12.6489   25.1701 H   0  0  0  0  0  0  0  0  0  0  0  0
    9.8778    9.5117   23.3773 H   0  0  0  0  0  0  0  0  0  0  0  0
    3.6403   12.0388   28.2896 H   0  0  0  0  0  0  0  0  0  0  0  0
    4.2718   10.8009   29.4075 H   0  0  0  0  0  0  0  0  0  0  0  0
    4.5794    9.1613   27.5438 H   0  0  0  0  0  0  0  0  0  0  0  0
    3.2653   10.0844   26.7714 H   0  0  0  0  0  0  0  0  0  0  0  0
    6.0630   12.5646   27.9398 H   0  0  0  0  0  0  0  0  0  0  0  0
    6.5423   10.9001   28.3604 H   0  0  0  0  0  0  0  0  0  0  0  0
   10.3789   14.5522   24.4081 H   0  0  0  0  0  0  0  0  0  0  0  0
   11.0790   12.9593   24.7510 H   0  0  0  0  0  0  0  0  0  0  0  0
   12.7831   12.2810   22.6141 H   0  0  0  0  0  0  0  0  0  0  0  0
   12.7493   13.6120   21.4417 H   0  0  0  0  0  0  0  0  0  0  0  0
    4.9232   11.7442   25.8312 H   0  0  0  0  0  0  0  0  0  0  0  0
   10.3214   14.0547   21.9453 H   0  0  0  0  0  0  0  0  0  0  0  0
   10.6000   11.3570   21.8384 H   0  0  0  0  0  0  0  0  0  0  0  0
    6.3139    9.1696   26.1393 H   0  0  0  0  0  0  0  0  0  0  0  0
  1 20  1  0  0  0  0
  1 21  3  0  0  0  0
  2  5  2  0  0  0  0
  2  9  1  0  0  0  0
  3  6  1  0  0  0  0
  3  9  2  0  0  0  0
  4  7  2  0  0  0  0
  4 10  1  0  0  0  0
  5 11  1  0  0  0  0
  6 11  2  0  0  0  0
  7 12  1  0  0  0  0
  8 10  2  0  0  0  0
  8 22  1  0  0  0  0
  9 20  1  0  0  0  0
 10 23  1  0  0  0  0
 11 25  1  0  0  0  0
 12 22  2  0  0  0  0
 12 24  1  0  0  0  0
 13 14  1  0  0  0  0
 13 15  1  0  0  0  0
 14 18  1  0  0  0  0
 15 18  1  0  0  0  0
 16 19  1  0  0  0  0
 16 20  1  0  0  0  0
 17 19  1  0  0  0  0
 17 20  1  0  0  0  0
 18 24  1  0  0  0  0
 19 23  1  0  0  0  0
  2 26  1  0  0  0  0
  3 27  1  0  0  0  0
  4 28  1  0  0  0  0
  5 29  1  0  0  0  0
  6 30  1  0  0  0  0
  7 31  1  0  0  0  0
  8 32  1  0  0  0  0
 13 33  1  0  0  0  0
 13 34  1  0  0  0  0
 14 35  1  0  0  0  0
 14 36  1  0  0  0  0
 15 37  1  0  0  0  0
 15 38  1  0  0  0  0
 16 39  1  0  0  0  0
 16 40  1  0  0  0  0
 17 41  1  0  0  0  0
 17 42  1  0  0  0  0
 18 43  1  0  0  0  0
 19 44  1  0  0  0  0
 23 45  1  0  0  0  0
 24 46  1  0  0  0  0
M  END
> <idnumber>
Z6032156787

> <heavy_atoms>
25

> <LogS>
-3.758

> <LogP>
4.551

> <rotating_bonds>
5

> <PSA>
60.74

> <hb_acceptors>
4

> <hb_donors>
2

> <Collection>
Advanced

> <link>
https://www.enaminestore.com/catalog/Z6032156787

> <ROCS_ShapeQuery>
_x1140_x0812_0A_x1140_0A_x1097_0A_x0365_0A_x1097_0A_x0310_0A

> <ROCS_TanimotoCombo>
0.625 

> <ROCS_ShapeTanimoto>
0.236 

> <ROCS_ColorTanimoto>
0.389 

> <ROCS_RefTversky>
0.221 

> <ROCS_RefColorTversky>
0.560 

> <ROCS_RefTverskyCombo>
0.781 

> <ROCS_FitTversky>
1.415 

> <ROCS_FitColorTversky>
0.560 

> <ROCS_FitTverskyCombo>
1.975 

> <ROCS_ColorScore>
-4.482

> <ROCS_Overlap>
2270.488

> <ROCS_Rank>
449                 

$$$$
untitled-dbase-792251_67
  -OEChem-02092421083D

 46 48  0     1  0  0  0  0  0999 V2000
    2.0522   12.1555   24.6831 C   0  0  0  0  0  0  0  0  0  0  0  0
    2.6065   10.8934   24.4699 C   0  0  0  0  0  0  0  0  0  0  0  0
    2.6166   13.0149   25.6258 C   0  0  0  0  0  0  0  0  0  0  0  0
    8.1329   12.5078   24.0568 C   0  0  0  0  0  0  0  0  0  0  0  0
    3.7251   10.4907   25.1994 C   0  0  0  0  0  0  0  0  0  0  0  0
    3.7352   12.6122   26.3553 C   0  0  0  0  0  0  0  0  0  0  0  0
    7.2637   11.9807   25.0055 C   0  0  0  0  0  0  0  0  0  0  0  0
    8.8693   10.2973   23.5792 C   0  0  0  0  0  0  0  0  0  0  0  0
    8.9543   11.6569   23.3258 C   0  0  0  0  0  0  0  0  0  0  0  0
    4.2895   11.3501   26.1422 C   0  0  0  0  0  0  0  0  0  0  0  0
    7.2542   10.6066   25.1836 C   0  0  0  0  0  0  0  0  0  0  0  0
    9.8805   12.1829   22.3164 C   0  0  0  0  0  0  0  0  0  0  0  0
   10.6407   14.1013   23.8130 C   0  0  0  0  0  0  0  0  0  0  0  0
   10.8252   14.2503   21.3445 C   0  0  0  0  0  0  0  0  0  0  0  0
   12.1312   14.2448   24.0840 C   0  0  0  0  0  0  0  0  0  0  0  0
   12.3380   14.4109   21.3186 C   0  0  0  0  0  0  0  0  0  0  0  0
    5.1308   10.2064   28.2358 C   0  0  0  0  0  0  0  0  0  0  0  0
    5.5030   10.9136   26.9342 C   0  0  1  0  0  0  0  0  0  0  0  0
    8.0374    9.7483   24.4925 N   0  0  0  0  0  0  0  0  0  0  0  0
   10.4033   13.4652   22.5077 N   0  0  0  0  0  0  0  0  0  0  0  0
    6.3642   10.0850   26.1551 N   0  0  0  0  0  0  0  0  0  0  0  0
   10.1314   11.4380   21.3703 O   0  0  0  0  0  0  0  0  0  0  0  0
   14.3589   14.9608   22.8980 O   0  0  0  0  0  0  0  0  0  0  0  0
   12.4007   16.5491   22.8467 O   0  0  0  0  0  0  0  0  0  0  0  0
   12.9319   15.2005   22.8057 S   0  0  0  0  0  0  0  0  0  0  0  0
    1.1821   12.4695   24.1140 H   0  0  0  0  0  0  0  0  0  0  0  0
    2.1679   10.2245   23.7352 H   0  0  0  0  0  0  0  0  0  0  0  0
    2.1860   13.9981   25.7912 H   0  0  0  0  0  0  0  0  0  0  0  0
    8.1630   13.5821   23.8964 H   0  0  0  0  0  0  0  0  0  0  0  0
    4.1501    9.5054   25.0268 H   0  0  0  0  0  0  0  0  0  0  0  0
    4.1681   13.2884   27.0878 H   0  0  0  0  0  0  0  0  0  0  0  0
    6.6187   12.6374   25.5805 H   0  0  0  0  0  0  0  0  0  0  0  0
    9.4852    9.5829   23.0411 H   0  0  0  0  0  0  0  0  0  0  0  0
   10.1778   13.5291   24.6209 H   0  0  0  0  0  0  0  0  0  0  0  0
   10.1521   15.0824   23.7931 H   0  0  0  0  0  0  0  0  0  0  0  0
   10.3253   15.2240   21.3999 H   0  0  0  0  0  0  0  0  0  0  0  0
   10.4955   13.7642   20.4206 H   0  0  0  0  0  0  0  0  0  0  0  0
   12.3075   14.7631   25.0315 H   0  0  0  0  0  0  0  0  0  0  0  0
   12.6225   13.2672   24.1241 H   0  0  0  0  0  0  0  0  0  0  0  0
   12.8379   13.4403   21.2369 H   0  0  0  0  0  0  0  0  0  0  0  0
   12.6496   15.0351   20.4759 H   0  0  0  0  0  0  0  0  0  0  0  0
    4.5298    9.3115   28.0406 H   0  0  0  0  0  0  0  0  0  0  0  0
    6.0325    9.8983   28.7768 H   0  0  0  0  0  0  0  0  0  0  0  0
    4.5595   10.8573   28.9072 H   0  0  0  0  0  0  0  0  0  0  0  0
    6.1006   11.7966   27.1921 H   0  0  0  0  0  0  0  0  0  0  0  0
    6.3648    9.0928   26.2761 H   0  0  0  0  0  0  0  0  0  0  0  0
  1  2  1  0  0  0  0
  1  3  2  0  0  0  0
  2  5  2  0  0  0  0
  3  6  1  0  0  0  0
  4  7  2  0  0  0  0
  4  9  1  0  0  0  0
  5 10  1  0  0  0  0
  6 10  2  0  0  0  0
  7 11  1  0  0  0  0
  8  9  2  0  0  0  0
  8 19  1  0  0  0  0
  9 12  1  0  0  0  0
 10 18  1  0  0  0  0
 11 19  2  0  0  0  0
 11 21  1  0  0  0  0
 12 20  1  0  0  0  0
 12 22  2  0  0  0  0
 13 15  1  0  0  0  0
 13 20  1  0  0  0  0
 14 16  1  0  0  0  0
 14 20  1  0  0  0  0
 15 25  1  0  0  0  0
 16 25  1  0  0  0  0
 17 18  1  6  0  0  0
 18 21  1  0  0  0  0
 23 25  2  0  0  0  0
 24 25  2  0  0  0  0
  1 26  1  0  0  0  0
  2 27  1  0  0  0  0
  3 28  1  0  0  0  0
  4 29  1  0  0  0  0
  5 30  1  0  0  0  0
  6 31  1  0  0  0  0
  7 32  1  0  0  0  0
  8 33  1  0  0  0  0
 13 34  1  0  0  0  0
 13 35  1  0  0  0  0
 14 36  1  0  0  0  0
 14 37  1  0  0  0  0
 15 38  1  0  0  0  0
 15 39  1  0  0  0  0
 16 40  1  0  0  0  0
 16 41  1  0  0  0  0
 17 42  1  0  0  0  0
 17 43  1  0  0  0  0
 17 44  1  0  0  0  0
 18 45  1  0  0  0  0
 21 46  1  0  0  0  0
M  END
> <idnumber>
Z1815673633

> <heavy_atoms>
25

> <LogS>
-3.418

> <LogP>
1.019

> <rotating_bonds>
4

> <PSA>
79.37

> <hb_acceptors>
5

> <hb_donors>
1

> <Collection>
HTS

> <link>
https://www.enaminestore.com/catalog/Z1815673633

> <ROCS_ShapeQuery>
_x1140_x0812_0A_x1140_0A_x1097_0A_x0365_0A_x1097_0A_x0310_0A

> <ROCS_TanimotoCombo>
0.625 

> <ROCS_ShapeTanimoto>
0.242 

> <ROCS_ColorTanimoto>
0.384 

> <ROCS_RefTversky>
0.225 

> <ROCS_RefColorTversky>
0.555 

> <ROCS_RefTverskyCombo>
0.779 

> <ROCS_FitTversky>
1.457 

> <ROCS_FitColorTversky>
0.554 

> <ROCS_FitTverskyCombo>
2.012 

> <ROCS_ColorScore>
-4.437

> <ROCS_Overlap>
2308.491

> <ROCS_Rank>
450                 

$$$$
untitled-dbase-1091060_13
  -OEChem-02092421083D

 33 34  0     0  0  0  0  0  0999 V2000
   11.3879   16.3864   20.4656 C   0  0  0  0  0  0  0  0  0  0  0  0
   11.3636   15.0068   20.2614 C   0  0  0  0  0  0  0  0  0  0  0  0
   11.9337   16.9084   21.6384 C   0  0  0  0  0  0  0  0  0  0  0  0
    7.6047   12.1197   25.2705 C   0  0  0  0  0  0  0  0  0  0  0  0
   12.4306   14.6711   22.4029 C   0  0  0  0  0  0  0  0  0  0  0  0
    7.4274   10.7473   25.3405 C   0  0  0  0  0  0  0  0  0  0  0  0
   11.8849   14.1491   21.2301 C   0  0  0  0  0  0  0  0  0  0  0  0
    8.6207   12.6039   24.4540 C   0  0  0  0  0  0  0  0  0  0  0  0
    9.4171   11.7135   23.7425 C   0  0  0  0  0  0  0  0  0  0  0  0
   12.4550   16.0507   22.6070 C   0  0  0  0  0  0  0  0  0  0  0  0
    9.1588   10.3593   23.8810 C   0  0  0  0  0  0  0  0  0  0  0  0
   10.5943   11.9938   21.5333 C   0  0  0  0  0  0  0  0  0  0  0  0
    8.8329   14.0800   24.3628 C   0  0  0  0  0  0  0  0  0  0  0  0
   11.8575   12.6740   21.0116 C   0  0  0  0  0  0  0  0  0  0  0  0
    8.1810    9.8514   24.6644 N   0  0  0  0  0  0  0  0  0  0  0  0
    9.9653    9.4423   23.1605 N   0  0  0  0  0  0  0  0  0  0  0  0
   10.4545   12.1883   22.9052 N   0  0  0  0  0  0  0  0  0  0  0  0
    9.8422   11.3707   20.7909 O   0  0  0  0  0  0  0  0  0  0  0  0
   13.1271   16.6953   24.0543 Cl  0  0  0  0  0  0  0  0  0  0  0  0
   10.9817   17.0539   19.7111 H   0  0  0  0  0  0  0  0  0  0  0  0
   10.9363   14.6089   19.3447 H   0  0  0  0  0  0  0  0  0  0  0  0
   11.9457   17.9857   21.7841 H   0  0  0  0  0  0  0  0  0  0  0  0
    6.9666   12.7872   25.8396 H   0  0  0  0  0  0  0  0  0  0  0  0
   12.8363   13.9982   23.1549 H   0  0  0  0  0  0  0  0  0  0  0  0
    6.6481   10.3195   25.9627 H   0  0  0  0  0  0  0  0  0  0  0  0
    9.5433   14.4091   25.1297 H   0  0  0  0  0  0  0  0  0  0  0  0
    9.2241   14.3636   23.3783 H   0  0  0  0  0  0  0  0  0  0  0  0
    7.8908   14.6245   24.5015 H   0  0  0  0  0  0  0  0  0  0  0  0
   11.9492   12.4441   19.9372 H   0  0  0  0  0  0  0  0  0  0  0  0
   12.7265   12.2000   21.4969 H   0  0  0  0  0  0  0  0  0  0  0  0
   10.6605    9.7974   22.5415 H   0  0  0  0  0  0  0  0  0  0  0  0
    9.7555    8.4700   23.2182 H   0  0  0  0  0  0  0  0  0  0  0  0
   11.1834   12.7356   23.3584 H   0  0  0  0  0  0  0  0  0  0  0  0
  1  2  2  0  0  0  0
  1  3  1  0  0  0  0
  2  7  1  0  0  0  0
  3 10  2  0  0  0  0
  4  6  2  0  0  0  0
  4  8  1  0  0  0  0
  5  7  2  0  0  0  0
  5 10  1  0  0  0  0
  6 15  1  0  0  0  0
  7 14  1  0  0  0  0
  8  9  2  0  0  0  0
  8 13  1  0  0  0  0
  9 11  1  0  0  0  0
  9 17  1  0  0  0  0
 10 19  1  0  0  0  0
 11 15  2  0  0  0  0
 11 16  1  0  0  0  0
 12 14  1  0  0  0  0
 12 17  1  0  0  0  0
 12 18  2  0  0  0  0
  1 20  1  0  0  0  0
  2 21  1  0  0  0  0
  3 22  1  0  0  0  0
  4 23  1  0  0  0  0
  5 24  1  0  0  0  0
  6 25  1  0  0  0  0
 13 26  1  0  0  0  0
 13 27  1  0  0  0  0
 13 28  1  0  0  0  0
 14 29  1  0  0  0  0
 14 30  1  0  0  0  0
 16 31  1  0  0  0  0
 16 32  1  0  0  0  0
 17 33  1  0  0  0  0
M  END
> <idnumber>
Z4497196457

> <heavy_atoms>
19

> <LogS>
-3.328

> <LogP>
2.265

> <rotating_bonds>
3

> <PSA>
68.01

> <hb_acceptors>
3

> <hb_donors>
2

> <Collection>
Advanced

> <link>
https://www.enaminestore.com/catalog/Z4497196457

> <ROCS_ShapeQuery>
_x1140_x0812_0A_x1140_0A_x1097_0A_x0365_0A_x1097_0A_x0310_0A

> <ROCS_TanimotoCombo>
0.625 

> <ROCS_ShapeTanimoto>
0.232 

> <ROCS_ColorTanimoto>
0.393 

> <ROCS_RefTversky>
0.213 

> <ROCS_RefColorTversky>
0.533 

> <ROCS_RefTverskyCombo>
0.746 

> <ROCS_FitTversky>
1.635 

> <ROCS_FitColorTversky>
0.600 

> <ROCS_FitTverskyCombo>
2.235 

> <ROCS_ColorScore>
-4.236

> <ROCS_Overlap>
2182.911

> <ROCS_Rank>
451                 

$$$$
untitled-dbase-505862_25
  -OEChem-02092421083D

 32 32  0     1  0  0  0  0  0999 V2000
    7.1928   10.1559   25.1079 C   0  0  0  0  0  0  0  0  0  0  0  0
   10.4136   11.6157   22.5184 C   0  0  0  0  0  0  0  0  0  0  0  0
    8.0956   11.7281   23.4005 C   0  0  0  0  0  0  0  0  0  0  0  0
    9.8992   11.7588   25.0000 C   0  0  0  0  0  0  0  0  0  0  0  0
    7.5039   11.5904   24.7978 C   0  0  2  0  0  0  0  0  0  0  0  0
    8.6036   12.1127   25.7350 C   0  0  2  0  0  0  0  0  0  0  0  0
    8.4827   13.6203   25.9554 C   0  0  0  0  0  0  0  0  0  0  0  0
   13.6717   13.1489   23.7199 C   0  0  0  0  0  0  0  0  0  0  0  0
   11.8789   11.6066   22.8733 C   0  0  0  0  0  0  0  0  0  0  0  0
   12.3901   13.0298   22.9221 C   0  0  0  0  0  0  0  0  0  0  0  0
    9.5391   11.7015   23.5879 N   0  0  0  0  0  0  0  0  0  0  0  0
    6.1528    9.9927   25.9922 N   0  0  0  0  0  0  0  0  0  0  0  0
    7.8124    9.2278   24.5940 O   0  0  0  0  0  0  0  0  0  0  0  0
   10.0574   11.5555   21.3403 O   0  0  0  0  0  0  0  0  0  0  0  0
   11.4543   13.8428   23.4751 F   0  0  0  0  0  0  0  0  0  0  0  0
   12.6152   13.4872   21.6640 F   0  0  0  0  0  0  0  0  0  0  0  0
    7.8258   10.8965   22.7357 H   0  0  0  0  0  0  0  0  0  0  0  0
    7.7979   12.6621   22.9081 H   0  0  0  0  0  0  0  0  0  0  0  0
   10.6680   12.5345   25.1152 H   0  0  0  0  0  0  0  0  0  0  0  0
   10.3175   10.8019   25.3342 H   0  0  0  0  0  0  0  0  0  0  0  0
    6.5864   12.1756   24.8941 H   0  0  0  0  0  0  0  0  0  0  0  0
    8.5692   11.6122   26.6935 H   0  0  0  0  0  0  0  0  0  0  0  0
    8.5155   14.1433   24.9986 H   0  0  0  0  0  0  0  0  0  0  0  0
    9.3045   13.9755   26.5787 H   0  0  0  0  0  0  0  0  0  0  0  0
    7.5392   13.8526   26.4512 H   0  0  0  0  0  0  0  0  0  0  0  0
   14.0089   14.1905   23.7320 H   0  0  0  0  0  0  0  0  0  0  0  0
   14.4709   12.5478   23.2756 H   0  0  0  0  0  0  0  0  0  0  0  0
   13.5214   12.8376   24.7582 H   0  0  0  0  0  0  0  0  0  0  0  0
   12.3896   11.0253   22.1058 H   0  0  0  0  0  0  0  0  0  0  0  0
   11.9697   11.1165   23.8423 H   0  0  0  0  0  0  0  0  0  0  0  0
    5.6894   10.8185   26.3567 H   0  0  0  0  0  0  0  0  0  0  0  0
    5.8301    9.0794   26.2951 H   0  0  0  0  0  0  0  0  0  0  0  0
  1  5  1  1  0  0  0
  1 12  1  0  0  0  0
  1 13  2  0  0  0  0
  2  9  1  0  0  0  0
  2 11  1  0  0  0  0
  2 14  2  0  0  0  0
  3  5  1  0  0  0  0
  3 11  1  0  0  0  0
  4  6  1  0  0  0  0
  4 11  1  0  0  0  0
  5  6  1  0  0  0  0
  6  7  1  6  0  0  0
  8 10  1  0  0  0  0
  9 10  1  0  0  0  0
 10 15  1  0  0  0  0
 10 16  1  0  0  0  0
  3 17  1  0  0  0  0
  3 18  1  0  0  0  0
  4 19  1  0  0  0  0
  4 20  1  0  0  0  0
  5 21  1  0  0  0  0
  6 22  1  0  0  0  0
  7 23  1  0  0  0  0
  7 24  1  0  0  0  0
  7 25  1  0  0  0  0
  8 26  1  0  0  0  0
  8 27  1  0  0  0  0
  8 28  1  0  0  0  0
  9 29  1  0  0  0  0
  9 30  1  0  0  0  0
 12 31  1  0  0  0  0
 12 32  1  0  0  0  0
M  END
> <idnumber>
Z2055177902

> <heavy_atoms>
16

> <LogS>
-2.027

> <LogP>
-0.106

> <rotating_bonds>
3

> <PSA>
63.4

> <hb_acceptors>
2

> <hb_donors>
1

> <Collection>
Advanced

> <link>
https://www.enaminestore.com/catalog/Z2055177902

> <ROCS_ShapeQuery>
_x1140_x0812_0A_x1140_0A_x1097_0A_x0365_0A_x1097_0A_x0310_0A

> <ROCS_TanimotoCombo>
0.625 

> <ROCS_ShapeTanimoto>
0.216 

> <ROCS_ColorTanimoto>
0.409 

> <ROCS_RefTversky>
0.199 

> <ROCS_RefColorTversky>
0.447 

> <ROCS_RefTverskyCombo>
0.645 

> <ROCS_FitTversky>
1.697 

> <ROCS_FitColorTversky>
0.829 

> <ROCS_FitTverskyCombo>
2.526 

> <ROCS_ColorScore>
-3.483

> <ROCS_Overlap>
2036.697

> <ROCS_Rank>
452                 

$$$$
untitled-dbase-1186236_5
  -OEChem-02092421083D

 19 19  0     0  0  0  0  0  0999 V2000
    8.0683   11.9944   25.4124 C   0  0  0  0  0  0  0  0  0  0  0  0
    8.9273   12.3911   24.3936 C   0  0  0  0  0  0  0  0  0  0  0  0
    7.7146   10.6563   25.4783 C   0  0  0  0  0  0  0  0  0  0  0  0
    9.3998   11.4510   23.4847 C   0  0  0  0  0  0  0  0  0  0  0  0
    8.9867   10.1372   23.6370 C   0  0  0  0  0  0  0  0  0  0  0  0
   10.2985   11.8642   22.4180 C   0  0  0  0  0  0  0  0  0  0  0  0
   10.9829    8.9738   22.6632 C   0  0  0  0  0  0  0  0  0  0  0  0
    9.4616    9.0824   22.6911 C   0  0  0  0  0  0  0  0  0  0  0  0
    8.1533    9.7141   24.6137 N   0  0  0  0  0  0  0  0  0  0  0  0
   10.0309   11.7277   21.2212 O   0  0  0  0  0  0  0  0  0  0  0  0
    7.6871   12.7103   26.1319 H   0  0  0  0  0  0  0  0  0  0  0  0
    9.2209   13.4349   24.3178 H   0  0  0  0  0  0  0  0  0  0  0  0
    7.0465   10.2960   26.2536 H   0  0  0  0  0  0  0  0  0  0  0  0
   11.2672   12.3219   22.7145 H   0  0  0  0  0  0  0  0  0  0  0  0
   11.4411    9.9316   22.3944 H   0  0  0  0  0  0  0  0  0  0  0  0
   11.3029    8.2272   21.9296 H   0  0  0  0  0  0  0  0  0  0  0  0
   11.3743    8.6770   23.6421 H   0  0  0  0  0  0  0  0  0  0  0  0
    9.0340    8.1053   22.9638 H   0  0  0  0  0  0  0  0  0  0  0  0
    9.0948    9.2894   21.6739 H   0  0  0  0  0  0  0  0  0  0  0  0
  1  2  2  0  0  0  0
  1  3  1  0  0  0  0
  2  4  1  0  0  0  0
  3  9  2  0  0  0  0
  4  5  2  0  0  0  0
  4  6  1  0  0  0  0
  5  8  1  0  0  0  0
  5  9  1  0  0  0  0
  6 10  2  0  0  0  0
  7  8  1  0  0  0  0
  1 11  1  0  0  0  0
  2 12  1  0  0  0  0
  3 13  1  0  0  0  0
  6 14  1  0  0  0  0
  7 15  1  0  0  0  0
  7 16  1  0  0  0  0
  7 17  1  0  0  0  0
  8 18  1  0  0  0  0
  8 19  1  0  0  0  0
M  END
> <idnumber>
Z3241890674

> <heavy_atoms>
10

> <LogS>
-0.699

> <LogP>
1.596

> <rotating_bonds>
2

> <PSA>
29.96

> <hb_acceptors>
2

> <hb_donors>
0

> <Collection>
Functional

> <link>
https://www.enaminestore.com/catalog/Z3241890674

> <ROCS_ShapeQuery>
_x1140_x0812_0A_x1140_0A_x1097_0A_x0365_0A_x1097_0A_x0310_0A

> <ROCS_TanimotoCombo>
0.625 

> <ROCS_ShapeTanimoto>
0.195 

> <ROCS_ColorTanimoto>
0.430 

> <ROCS_RefTversky>
0.178 

> <ROCS_RefColorTversky>
0.463 

> <ROCS_RefTverskyCombo>
0.641 

> <ROCS_FitTversky>
1.929 

> <ROCS_FitColorTversky>
0.859 

> <ROCS_FitTverskyCombo>
2.789 

> <ROCS_ColorScore>
-3.609

> <ROCS_Overlap>
1825.495

> <ROCS_Rank>
453                 

$$$$
untitled-dbase-428853_94
  -OEChem-02092421083D

 34 35  0     0  0  0  0  0  0999 V2000
   10.4616    6.9531   20.3835 C   0  0  0  0  0  0  0  0  0  0  0  0
    7.5551   12.1021   25.1626 C   0  0  0  0  0  0  0  0  0  0  0  0
    8.4757   12.5258   24.2105 C   0  0  0  0  0  0  0  0  0  0  0  0
   10.6564    7.6717   21.5631 C   0  0  0  0  0  0  0  0  0  0  0  0
    9.2942    7.1334   19.6417 C   0  0  0  0  0  0  0  0  0  0  0  0
    8.5161    8.7506   21.2592 C   0  0  0  0  0  0  0  0  0  0  0  0
    7.4575   10.7424   25.4102 C   0  0  0  0  0  0  0  0  0  0  0  0
    9.2593   11.5900   23.5446 C   0  0  0  0  0  0  0  0  0  0  0  0
    9.6836    8.5704   22.0010 C   0  0  0  0  0  0  0  0  0  0  0  0
    8.3214    8.0321   20.0796 C   0  0  0  0  0  0  0  0  0  0  0  0
    9.0855   10.2532   23.8648 C   0  0  0  0  0  0  0  0  0  0  0  0
   10.2292   12.0492   22.5327 C   0  0  0  0  0  0  0  0  0  0  0  0
   12.2294   13.4505   22.0375 C   0  0  0  0  0  0  0  0  0  0  0  0
   12.2257   12.4689   24.9610 C   0  0  0  0  0  0  0  0  0  0  0  0
    8.2016    9.8036   24.7836 N   0  0  0  0  0  0  0  0  0  0  0  0
    9.8791    9.2927   23.1883 N   0  0  0  0  0  0  0  0  0  0  0  0
   11.2231   12.9117   22.9331 N   0  0  0  0  0  0  0  0  0  0  0  0
   10.0764   11.6372   21.3840 O   0  0  0  0  0  0  0  0  0  0  0  0
   11.3744   13.3672   24.2554 O   0  0  0  0  0  0  0  0  0  0  0  0
    7.2011    8.2063   19.3663 F   0  0  0  0  0  0  0  0  0  0  0  0
   11.2194    6.2538   20.0420 H   0  0  0  0  0  0  0  0  0  0  0  0
    6.9326   12.8138   25.6927 H   0  0  0  0  0  0  0  0  0  0  0  0
    8.5730   13.5868   23.9960 H   0  0  0  0  0  0  0  0  0  0  0  0
   11.5695    7.5230   22.1336 H   0  0  0  0  0  0  0  0  0  0  0  0
    9.1427    6.5743   18.7231 H   0  0  0  0  0  0  0  0  0  0  0  0
    7.7511    9.4478   21.5909 H   0  0  0  0  0  0  0  0  0  0  0  0
    6.7546   10.3607   26.1435 H   0  0  0  0  0  0  0  0  0  0  0  0
   11.8671   14.3941   21.6033 H   0  0  0  0  0  0  0  0  0  0  0  0
   13.1570   13.6374   22.5984 H   0  0  0  0  0  0  0  0  0  0  0  0
   12.4273   12.7285   21.2316 H   0  0  0  0  0  0  0  0  0  0  0  0
   12.3490   12.8151   25.9901 H   0  0  0  0  0  0  0  0  0  0  0  0
   13.1973   12.4192   24.4631 H   0  0  0  0  0  0  0  0  0  0  0  0
   11.7695   11.4761   24.9652 H   0  0  0  0  0  0  0  0  0  0  0  0
   10.7545    9.0954   23.6579 H   0  0  0  0  0  0  0  0  0  0  0  0
  1  4  2  0  0  0  0
  1  5  1  0  0  0  0
  2  3  2  0  0  0  0
  2  7  1  0  0  0  0
  3  8  1  0  0  0  0
  4  9  1  0  0  0  0
  5 10  2  0  0  0  0
  6  9  2  0  0  0  0
  6 10  1  0  0  0  0
  7 15  2  0  0  0  0
  8 11  2  0  0  0  0
  8 12  1  0  0  0  0
  9 16  1  0  0  0  0
 10 20  1  0  0  0  0
 11 15  1  0  0  0  0
 11 16  1  0  0  0  0
 12 17  1  0  0  0  0
 12 18  2  0  0  0  0
 13 17  1  0  0  0  0
 14 19  1  0  0  0  0
 17 19  1  0  0  0  0
  1 21  1  0  0  0  0
  2 22  1  0  0  0  0
  3 23  1  0  0  0  0
  4 24  1  0  0  0  0
  5 25  1  0  0  0  0
  6 26  1  0  0  0  0
  7 27  1  0  0  0  0
 13 28  1  0  0  0  0
 13 29  1  0  0  0  0
 13 30  1  0  0  0  0
 14 31  1  0  0  0  0
 14 32  1  0  0  0  0
 14 33  1  0  0  0  0
 16 34  1  0  0  0  0
M  END
> <idnumber>
Z454342854

> <heavy_atoms>
20

> <LogS>
-3.4

> <LogP>
2.851

> <rotating_bonds>
4

> <PSA>
54.46

> <hb_acceptors>
4

> <hb_donors>
1

> <Collection>
Legacy

> <link>
https://www.enaminestore.com/catalog/Z454342854

> <ROCS_ShapeQuery>
_x1140_x0812_0A_x1140_0A_x1097_0A_x0365_0A_x1097_0A_x0310_0A

> <ROCS_TanimotoCombo>
0.625 

> <ROCS_ShapeTanimoto>
0.241 

> <ROCS_ColorTanimoto>
0.384 

> <ROCS_RefTversky>
0.220 

> <ROCS_RefColorTversky>
0.460 

> <ROCS_RefTverskyCombo>
0.680 

> <ROCS_FitTversky>
1.622 

> <ROCS_FitColorTversky>
0.701 

> <ROCS_FitTverskyCombo>
2.322 

> <ROCS_ColorScore>
-3.609

> <ROCS_Overlap>
2262.587

> <ROCS_Rank>
454                 

$$$$
untitled-dbase-225342_67
  -OEChem-02092421083D

 30 31  0     0  0  0  0  0  0999 V2000
   13.4749    9.8144   22.7932 C   0  0  0  0  0  0  0  0  0  0  0  0
    7.4190   12.0177   25.0923 C   0  0  0  0  0  0  0  0  0  0  0  0
    8.2832   12.4306   24.0843 C   0  0  0  0  0  0  0  0  0  0  0  0
   12.2151    9.7268   23.3854 C   0  0  0  0  0  0  0  0  0  0  0  0
   13.6356    9.4953   21.4448 C   0  0  0  0  0  0  0  0  0  0  0  0
   11.2764    9.0009   21.2808 C   0  0  0  0  0  0  0  0  0  0  0  0
    7.4110   10.6739   25.4296 C   0  0  0  0  0  0  0  0  0  0  0  0
    9.1014   11.5002   23.4534 C   0  0  0  0  0  0  0  0  0  0  0  0
   11.1158    9.3200   22.6292 C   0  0  0  0  0  0  0  0  0  0  0  0
   12.5363    9.0885   20.6887 C   0  0  0  0  0  0  0  0  0  0  0  0
    9.0183   10.1795   23.8642 C   0  0  0  0  0  0  0  0  0  0  0  0
    9.9995   11.9417   22.3952 C   0  0  0  0  0  0  0  0  0  0  0  0
   11.9033   13.4555   21.7950 C   0  0  0  0  0  0  0  0  0  0  0  0
    8.1912    9.7408   24.8394 N   0  0  0  0  0  0  0  0  0  0  0  0
    9.8421    9.2306   23.2280 N   0  0  0  0  0  0  0  0  0  0  0  0
   10.9578   12.9015   22.7373 N   0  0  0  0  0  0  0  0  0  0  0  0
    9.8867   11.4876   21.2439 O   0  0  0  0  0  0  0  0  0  0  0  0
   12.6903    8.7837   19.3934 F   0  0  0  0  0  0  0  0  0  0  0  0
   14.3310   10.1318   23.3817 H   0  0  0  0  0  0  0  0  0  0  0  0
    6.7710   12.7254   25.5966 H   0  0  0  0  0  0  0  0  0  0  0  0
    8.3099   13.4790   23.7992 H   0  0  0  0  0  0  0  0  0  0  0  0
   12.1014    9.9772   24.4369 H   0  0  0  0  0  0  0  0  0  0  0  0
   14.6163    9.5639   20.9837 H   0  0  0  0  0  0  0  0  0  0  0  0
   10.4271    8.6823   20.6820 H   0  0  0  0  0  0  0  0  0  0  0  0
    6.7549   10.3011   26.2093 H   0  0  0  0  0  0  0  0  0  0  0  0
   12.8432   12.8858   21.8399 H   0  0  0  0  0  0  0  0  0  0  0  0
   11.4862   13.3950   20.7789 H   0  0  0  0  0  0  0  0  0  0  0  0
   12.0999   14.5076   22.0486 H   0  0  0  0  0  0  0  0  0  0  0  0
    9.4412    8.2978   23.1939 H   0  0  0  0  0  0  0  0  0  0  0  0
   10.9647   13.2843   23.6771 H   0  0  0  0  0  0  0  0  0  0  0  0
  1  4  2  0  0  0  0
  1  5  1  0  0  0  0
  2  3  2  0  0  0  0
  2  7  1  0  0  0  0
  3  8  1  0  0  0  0
  4  9  1  0  0  0  0
  5 10  2  0  0  0  0
  6  9  2  0  0  0  0
  6 10  1  0  0  0  0
  7 14  2  0  0  0  0
  8 11  2  0  0  0  0
  8 12  1  0  0  0  0
  9 15  1  0  0  0  0
 10 18  1  0  0  0  0
 11 14  1  0  0  0  0
 11 15  1  0  0  0  0
 12 16  1  0  0  0  0
 12 17  2  0  0  0  0
 13 16  1  0  0  0  0
  1 19  1  0  0  0  0
  2 20  1  0  0  0  0
  3 21  1  0  0  0  0
  4 22  1  0  0  0  0
  5 23  1  0  0  0  0
  6 24  1  0  0  0  0
  7 25  1  0  0  0  0
 13 26  1  0  0  0  0
 13 27  1  0  0  0  0
 13 28  1  0  0  0  0
 15 29  1  0  0  0  0
 16 30  1  0  0  0  0
M  END
> <idnumber>
Z456100690

> <heavy_atoms>
18

> <LogS>
-3.11

> <LogP>
3.192

> <rotating_bonds>
3

> <PSA>
54.02

> <hb_acceptors>
3

> <hb_donors>
2

> <Collection>
HTS

> <link>
https://www.enaminestore.com/catalog/Z456100690

> <ROCS_ShapeQuery>
_x1140_x0812_0A_x1140_0A_x1097_0A_x0365_0A_x1097_0A_x0310_0A

> <ROCS_TanimotoCombo>
0.625 

> <ROCS_ShapeTanimoto>
0.232 

> <ROCS_ColorTanimoto>
0.393 

> <ROCS_RefTversky>
0.213 

> <ROCS_RefColorTversky>
0.500 

> <ROCS_RefTverskyCombo>
0.712 

> <ROCS_FitTversky>
1.667 

> <ROCS_FitColorTversky>
0.647 

> <ROCS_FitTverskyCombo>
2.314 

> <ROCS_ColorScore>
-3.948

> <ROCS_Overlap>
2181.362

> <ROCS_Rank>
455                 

$$$$
untitled-dbase-1193119_3
  -OEChem-02092421083D

 26 26  0     0  0  0  0  0  0999 V2000
    8.3158   12.6405   24.7835 C   0  0  0  0  0  0  0  0  0  0  0  0
    9.1560   11.9019   23.9579 C   0  0  0  0  0  0  0  0  0  0  0  0
    7.3198   11.9955   25.5084 C   0  0  0  0  0  0  0  0  0  0  0  0
    8.9606   10.5317   23.8925 C   0  0  0  0  0  0  0  0  0  0  0  0
    7.2065   10.6212   25.3735 C   0  0  0  0  0  0  0  0  0  0  0  0
   11.8392    8.2092   22.0596 C   0  0  0  0  0  0  0  0  0  0  0  0
   11.2675    9.1350   21.2831 C   0  0  0  0  0  0  0  0  0  0  0  0
   10.4373   10.2202   21.8817 C   0  0  0  0  0  0  0  0  0  0  0  0
    5.8936    8.6166   26.1366 C   0  0  0  0  0  0  0  0  0  0  0  0
    4.7378    8.3276   27.0612 C   0  0  0  0  0  0  0  0  0  0  0  0
    8.0041    9.8699   24.5815 N   0  0  0  0  0  0  0  0  0  0  0  0
    9.8118    9.7966   23.0590 N   0  0  0  0  0  0  0  0  0  0  0  0
    6.2012    9.9804   26.1072 N   0  0  0  0  0  0  0  0  0  0  0  0
   10.3573   11.3233   21.3543 O   0  0  0  0  0  0  0  0  0  0  0  0
    6.4477    7.7111   25.5218 O   0  0  0  0  0  0  0  0  0  0  0  0
    8.4371   13.7166   24.8621 H   0  0  0  0  0  0  0  0  0  0  0  0
    9.9356   12.3974   23.3884 H   0  0  0  0  0  0  0  0  0  0  0  0
    6.6591   12.5644   26.1544 H   0  0  0  0  0  0  0  0  0  0  0  0
   12.4488    7.4063   21.6605 H   0  0  0  0  0  0  0  0  0  0  0  0
   11.7007    8.2429   23.1352 H   0  0  0  0  0  0  0  0  0  0  0  0
   11.4057    9.1022   20.2078 H   0  0  0  0  0  0  0  0  0  0  0  0
    3.7966    8.3881   26.5074 H   0  0  0  0  0  0  0  0  0  0  0  0
    4.7198    9.0616   27.8719 H   0  0  0  0  0  0  0  0  0  0  0  0
    4.8455    7.3279   27.4923 H   0  0  0  0  0  0  0  0  0  0  0  0
    9.9995    8.8305   23.3462 H   0  0  0  0  0  0  0  0  0  0  0  0
    5.6188   10.5832   26.6963 H   0  0  0  0  0  0  0  0  0  0  0  0
  1  2  1  0  0  0  0
  1  3  2  0  0  0  0
  2  4  2  0  0  0  0
  3  5  1  0  0  0  0
  4 11  1  0  0  0  0
  4 12  1  0  0  0  0
  5 11  2  0  0  0  0
  5 13  1  0  0  0  0
  6  7  2  0  0  0  0
  7  8  1  0  0  0  0
  8 12  1  0  0  0  0
  8 14  2  0  0  0  0
  9 10  1  0  0  0  0
  9 13  1  0  0  0  0
  9 15  2  0  0  0  0
  1 16  1  0  0  0  0
  2 17  1  0  0  0  0
  3 18  1  0  0  0  0
  6 19  1  0  0  0  0
  6 20  1  0  0  0  0
  7 21  1  0  0  0  0
 10 22  1  0  0  0  0
 10 23  1  0  0  0  0
 10 24  1  0  0  0  0
 12 25  1  0  0  0  0
 13 26  1  0  0  0  0
M  END
> <idnumber>
Z1509294187

> <heavy_atoms>
15

> <LogS>
-2.352

> <LogP>
-0.006

> <rotating_bonds>
3

> <PSA>
71.09

> <hb_acceptors>
3

> <hb_donors>
2

> <Collection>
Functional

> <link>
https://www.enaminestore.com/catalog/Z1509294187

> <ROCS_ShapeQuery>
_x1140_x0812_0A_x1140_0A_x1097_0A_x0365_0A_x1097_0A_x0310_0A

> <ROCS_TanimotoCombo>
0.625 

> <ROCS_ShapeTanimoto>
0.203 

> <ROCS_ColorTanimoto>
0.422 

> <ROCS_RefTversky>
0.188 

> <ROCS_RefColorTversky>
0.560 

> <ROCS_RefTverskyCombo>
0.748 

> <ROCS_FitTversky>
1.659 

> <ROCS_FitColorTversky>
0.631 

> <ROCS_FitTverskyCombo>
2.290 

> <ROCS_ColorScore>
-4.449

> <ROCS_Overlap>
1929.376

> <ROCS_Rank>
456                 

$$$$
untitled-dbase-460331_6
  -OEChem-02092421083D

 32 33  0     0  0  0  0  0  0999 V2000
   14.2151   12.8304   20.4058 C   0  0  0  0  0  0  0  0  0  0  0  0
   14.0028   14.1605   20.0434 C   0  0  0  0  0  0  0  0  0  0  0  0
   13.1703   12.0788   20.9438 C   0  0  0  0  0  0  0  0  0  0  0  0
   12.7458   14.7391   20.2191 C   0  0  0  0  0  0  0  0  0  0  0  0
   11.9134   12.6574   21.1195 C   0  0  0  0  0  0  0  0  0  0  0  0
   11.7010   13.9876   20.7572 C   0  0  0  0  0  0  0  0  0  0  0  0
    9.2786   11.7674   23.6838 C   0  0  0  0  0  0  0  0  0  0  0  0
    8.4211   12.5342   24.4461 C   0  0  0  0  0  0  0  0  0  0  0  0
    9.0809   10.4035   23.7526 C   0  0  0  0  0  0  0  0  0  0  0  0
    7.3509   10.6765   25.2016 C   0  0  0  0  0  0  0  0  0  0  0  0
   10.8403   11.8502   21.6841 C   0  0  0  0  0  0  0  0  0  0  0  0
   10.3654   14.6323   20.9350 C   0  0  0  0  0  0  0  0  0  0  0  0
    8.5367   14.0237   24.4537 C   0  0  0  0  0  0  0  0  0  0  0  0
    7.4424   12.0199   25.2194 N   0  0  0  0  0  0  0  0  0  0  0  0
    8.1232    9.8218   24.5041 N   0  0  0  0  0  0  0  0  0  0  0  0
   10.2977   12.3395   22.8813 N   0  0  0  0  0  0  0  0  0  0  0  0
   10.4724   10.7955   21.1512 O   0  0  0  0  0  0  0  0  0  0  0  0
    9.8821    9.5579   23.0304 O   0  0  0  0  0  0  0  0  0  0  0  0
    6.3639   10.1174   25.9797 O   0  0  0  0  0  0  0  0  0  0  0  0
   15.1937   12.3793   20.2690 H   0  0  0  0  0  0  0  0  0  0  0  0
   14.8167   14.7453   19.6248 H   0  0  0  0  0  0  0  0  0  0  0  0
   13.3489   11.0436   21.2232 H   0  0  0  0  0  0  0  0  0  0  0  0
   12.5909   15.7761   19.9331 H   0  0  0  0  0  0  0  0  0  0  0  0
    9.7552   14.4959   20.0348 H   0  0  0  0  0  0  0  0  0  0  0  0
    9.8288   14.2028   21.7898 H   0  0  0  0  0  0  0  0  0  0  0  0
   10.4672   15.7072   21.1291 H   0  0  0  0  0  0  0  0  0  0  0  0
    7.9116   14.4567   23.6644 H   0  0  0  0  0  0  0  0  0  0  0  0
    8.2214   14.4403   25.4181 H   0  0  0  0  0  0  0  0  0  0  0  0
    9.5742   14.3410   24.2923 H   0  0  0  0  0  0  0  0  0  0  0  0
   10.6853   13.2179   23.2169 H   0  0  0  0  0  0  0  0  0  0  0  0
    9.6154    8.6414   23.1873 H   0  0  0  0  0  0  0  0  0  0  0  0
    5.8759   10.8169   26.4323 H   0  0  0  0  0  0  0  0  0  0  0  0
  1  2  1  0  0  0  0
  1  3  2  0  0  0  0
  2  4  2  0  0  0  0
  3  5  1  0  0  0  0
  4  6  1  0  0  0  0
  5  6  2  0  0  0  0
  5 11  1  0  0  0  0
  6 12  1  0  0  0  0
  7  8  1  0  0  0  0
  7  9  2  0  0  0  0
  7 16  1  0  0  0  0
  8 13  1  0  0  0  0
  8 14  2  0  0  0  0
  9 15  1  0  0  0  0
  9 18  1  0  0  0  0
 10 14  1  0  0  0  0
 10 15  2  0  0  0  0
 10 19  1  0  0  0  0
 11 16  1  0  0  0  0
 11 17  2  0  0  0  0
  1 20  1  0  0  0  0
  2 21  1  0  0  0  0
  3 22  1  0  0  0  0
  4 23  1  0  0  0  0
 12 24  1  0  0  0  0
 12 25  1  0  0  0  0
 12 26  1  0  0  0  0
 13 27  1  0  0  0  0
 13 28  1  0  0  0  0
 13 29  1  0  0  0  0
 16 30  1  0  0  0  0
 18 31  1  0  0  0  0
 19 32  1  0  0  0  0
M  END
> <idnumber>
Z57459397

> <heavy_atoms>
19

> <LogS>
-3.286

> <LogP>
2.794

> <rotating_bonds>
2

> <PSA>
95.34

> <hb_acceptors>
5

> <hb_donors>
3

> <Collection>
HTS

> <link>
https://www.enaminestore.com/catalog/Z57459397

> <ROCS_ShapeQuery>
_x1140_x0812_0A_x1140_0A_x1097_0A_x0365_0A_x1097_0A_x0310_0A

> <ROCS_TanimotoCombo>
0.625 

> <ROCS_ShapeTanimoto>
0.243 

> <ROCS_ColorTanimoto>
0.382 

> <ROCS_RefTversky>
0.221 

> <ROCS_RefColorTversky>
0.616 

> <ROCS_RefTverskyCombo>
0.837 

> <ROCS_FitTversky>
1.665 

> <ROCS_FitColorTversky>
0.502 

> <ROCS_FitTverskyCombo>
2.167 

> <ROCS_ColorScore>
-4.990

> <ROCS_Overlap>
2271.451

> <ROCS_Rank>
457                 

$$$$
untitled-dbase-48623_5
  -OEChem-02092421083D

 27 28  0     0  0  0  0  0  0999 V2000
    7.5474   12.0932   25.1750 C   0  0  0  0  0  0  0  0  0  0  0  0
    8.4576   12.5228   24.2157 C   0  0  0  0  0  0  0  0  0  0  0  0
    7.4598   10.7328   25.4226 C   0  0  0  0  0  0  0  0  0  0  0  0
    9.2413   11.5920   23.5429 C   0  0  0  0  0  0  0  0  0  0  0  0
    9.0780   10.2540   23.8637 C   0  0  0  0  0  0  0  0  0  0  0  0
   10.2004   12.0575   22.5232 C   0  0  0  0  0  0  0  0  0  0  0  0
   12.9523   13.7392   23.5483 C   0  0  0  0  0  0  0  0  0  0  0  0
   12.2660   13.5323   22.1933 C   0  0  0  0  0  0  0  0  0  0  0  0
   11.6066   13.4446   24.2221 C   0  0  0  0  0  0  0  0  0  0  0  0
   11.2971    9.3079   23.2265 C   0  0  0  0  0  0  0  0  0  0  0  0
    8.2043    9.7988   24.7895 N   0  0  0  0  0  0  0  0  0  0  0  0
   11.1795   12.9217   22.9379 N   0  0  0  0  0  0  0  0  0  0  0  0
    9.8717    9.2986   23.1802 N   0  0  0  0  0  0  0  0  0  0  0  0
   10.0831   11.6365   21.3749 O   0  0  0  0  0  0  0  0  0  0  0  0
    6.9250   12.8009   25.7106 H   0  0  0  0  0  0  0  0  0  0  0  0
    8.5469   13.5845   24.0010 H   0  0  0  0  0  0  0  0  0  0  0  0
    6.7652   10.3466   26.1614 H   0  0  0  0  0  0  0  0  0  0  0  0
   13.7308   12.9998   23.7688 H   0  0  0  0  0  0  0  0  0  0  0  0
   13.3537   14.7414   23.7221 H   0  0  0  0  0  0  0  0  0  0  0  0
   11.9596   14.4451   21.6750 H   0  0  0  0  0  0  0  0  0  0  0  0
   12.7779   12.8520   21.5090 H   0  0  0  0  0  0  0  0  0  0  0  0
   11.6452   12.7047   25.0248 H   0  0  0  0  0  0  0  0  0  0  0  0
   11.0338   14.3232   24.5318 H   0  0  0  0  0  0  0  0  0  0  0  0
   11.6387   10.1436   23.8549 H   0  0  0  0  0  0  0  0  0  0  0  0
   11.6563    8.3591   23.6515 H   0  0  0  0  0  0  0  0  0  0  0  0
   11.6961    9.4280   22.2085 H   0  0  0  0  0  0  0  0  0  0  0  0
    9.3818    8.6053   22.6531 H   0  0  0  0  0  0  0  0  0  0  0  0
  1  2  2  0  0  0  0
  1  3  1  0  0  0  0
  2  4  1  0  0  0  0
  3 11  2  0  0  0  0
  4  5  2  0  0  0  0
  4  6  1  0  0  0  0
  5 11  1  0  0  0  0
  5 13  1  0  0  0  0
  6 12  1  0  0  0  0
  6 14  2  0  0  0  0
  7  8  1  0  0  0  0
  7  9  1  0  0  0  0
  8 12  1  0  0  0  0
  9 12  1  0  0  0  0
 10 13  1  0  0  0  0
  1 15  1  0  0  0  0
  2 16  1  0  0  0  0
  3 17  1  0  0  0  0
  7 18  1  0  0  0  0
  7 19  1  0  0  0  0
  8 20  1  0  0  0  0
  8 21  1  0  0  0  0
  9 22  1  0  0  0  0
  9 23  1  0  0  0  0
 10 24  1  0  0  0  0
 10 25  1  0  0  0  0
 10 26  1  0  0  0  0
 13 27  1  0  0  0  0
M  END
> <idnumber>
Z2066099892

> <heavy_atoms>
14

> <LogS>
-1.578

> <LogP>
0.138

> <rotating_bonds>
2

> <PSA>
45.23

> <hb_acceptors>
3

> <hb_donors>
1

> <Collection>
Advanced

> <link>
https://www.enaminestore.com/catalog/Z2066099892

> <ROCS_ShapeQuery>
_x1140_x0812_0A_x1140_0A_x1097_0A_x0365_0A_x1097_0A_x0310_0A

> <ROCS_TanimotoCombo>
0.625 

> <ROCS_ShapeTanimoto>
0.243 

> <ROCS_ColorTanimoto>
0.382 

> <ROCS_RefTversky>
0.217 

> <ROCS_RefColorTversky>
0.458 

> <ROCS_RefTverskyCombo>
0.675 

> <ROCS_FitTversky>
1.962 

> <ROCS_FitColorTversky>
0.698 

> <ROCS_FitTverskyCombo>
2.660 

> <ROCS_ColorScore>
-3.595

> <ROCS_Overlap>
2223.893

> <ROCS_Rank>
458                 

$$$$
untitled-dbase-1139502_33
  -OEChem-02092421083D

 23 23  0     0  0  0  0  0  0999 V2000
    8.3869   12.2249   24.6827 C   0  0  0  0  0  0  0  0  0  0  0  0
    9.2779   11.7358   23.7589 C   0  0  0  0  0  0  0  0  0  0  0  0
    9.1304   10.3377   23.8336 C   0  0  0  0  0  0  0  0  0  0  0  0
   10.6019   12.1755   21.6662 C   0  0  0  0  0  0  0  0  0  0  0  0
    6.7673   11.1411   26.2581 C   0  0  0  0  0  0  0  0  0  0  0  0
   10.7849   14.5812   20.9934 C   0  0  0  0  0  0  0  0  0  0  0  0
   11.5054   13.2565   21.1069 C   0  0  0  0  0  0  0  0  0  0  0  0
    8.2176    9.9630   24.7338 N   0  0  0  0  0  0  0  0  0  0  0  0
    7.7836   11.1327   25.2333 N   0  0  0  0  0  0  0  0  0  0  0  0
   10.1367   12.4994   22.9338 N   0  0  0  0  0  0  0  0  0  0  0  0
   10.3448   11.1747   21.0039 O   0  0  0  0  0  0  0  0  0  0  0  0
    9.7715    9.3883   23.1372 O   0  0  0  0  0  0  0  0  0  0  0  0
    9.7063   14.4341   20.1825 F   0  0  0  0  0  0  0  0  0  0  0  0
   10.3103   14.9548   22.2073 F   0  0  0  0  0  0  0  0  0  0  0  0
   12.6066   13.4264   21.8884 F   0  0  0  0  0  0  0  0  0  0  0  0
   11.9662   12.9076   19.8748 F   0  0  0  0  0  0  0  0  0  0  0  0
    8.1364   13.2318   24.9884 H   0  0  0  0  0  0  0  0  0  0  0  0
    5.7921   11.1816   25.7658 H   0  0  0  0  0  0  0  0  0  0  0  0
    6.8528   10.2341   26.8631 H   0  0  0  0  0  0  0  0  0  0  0  0
    6.9091   12.0147   26.9005 H   0  0  0  0  0  0  0  0  0  0  0  0
   11.4120   15.3819   20.5923 H   0  0  0  0  0  0  0  0  0  0  0  0
   10.4501   13.3901   23.3136 H   0  0  0  0  0  0  0  0  0  0  0  0
    9.4706    8.4938   23.3930 H   0  0  0  0  0  0  0  0  0  0  0  0
  1  2  2  0  0  0  0
  1  9  1  0  0  0  0
  2  3  1  0  0  0  0
  2 10  1  0  0  0  0
  3  8  2  0  0  0  0
  3 12  1  0  0  0  0
  4  7  1  0  0  0  0
  4 10  1  0  0  0  0
  4 11  2  0  0  0  0
  5  9  1  0  0  0  0
  6  7  1  0  0  0  0
  6 13  1  0  0  0  0
  6 14  1  0  0  0  0
  7 15  1  0  0  0  0
  7 16  1  0  0  0  0
  8  9  1  0  0  0  0
  1 17  1  0  0  0  0
  5 18  1  0  0  0  0
  5 19  1  0  0  0  0
  5 20  1  0  0  0  0
  6 21  1  0  0  0  0
 10 22  1  0  0  0  0
 12 23  1  0  0  0  0
M  END
> <idnumber>
Z6374976106

> <heavy_atoms>
16

> <LogS>
-1.637

> <LogP>
1.205

> <rotating_bonds>
3

> <PSA>
67.15

> <hb_acceptors>
3

> <hb_donors>
2

> <Collection>
Advanced

> <link>
https://www.enaminestore.com/catalog/Z6374976106

> <ROCS_ShapeQuery>
_x1140_x0812_0A_x1140_0A_x1097_0A_x0365_0A_x1097_0A_x0310_0A

> <ROCS_TanimotoCombo>
0.625 

> <ROCS_ShapeTanimoto>
0.227 

> <ROCS_ColorTanimoto>
0.397 

> <ROCS_RefTversky>
0.208 

> <ROCS_RefColorTversky>
0.504 

> <ROCS_RefTverskyCombo>
0.712 

> <ROCS_FitTversky>
1.732 

> <ROCS_FitColorTversky>
0.652 

> <ROCS_FitTverskyCombo>
2.384 

> <ROCS_ColorScore>
-3.985

> <ROCS_Overlap>
2128.472

> <ROCS_Rank>
459                 

$$$$
untitled-dbase-23805_15
  -OEChem-02092421083D

 22 22  0     0  0  0  0  0  0999 V2000
    8.6553   12.4783   24.3372 C   0  0  0  0  0  0  0  0  0  0  0  0
    8.8911   11.2173   23.8309 C   0  0  0  0  0  0  0  0  0  0  0  0
    7.2788   10.7146   25.2301 C   0  0  0  0  0  0  0  0  0  0  0  0
    9.9157   10.9210   22.7980 C   0  0  0  0  0  0  0  0  0  0  0  0
   12.4455    8.2773   22.9864 C   0  0  0  0  0  0  0  0  0  0  0  0
   10.3432    8.3777   21.6001 C   0  0  0  0  0  0  0  0  0  0  0  0
   11.4299    9.1787   22.3010 C   0  0  0  0  0  0  0  0  0  0  0  0
    8.1030   10.2047   24.3420 N   0  0  0  0  0  0  0  0  0  0  0  0
    6.3626    9.9921   25.9279 N   0  0  0  0  0  0  0  0  0  0  0  0
    9.9097   11.4238   21.6850 O   0  0  0  0  0  0  0  0  0  0  0  0
   10.8312   10.0328   23.2710 O   0  0  0  0  0  0  0  0  0  0  0  0
    7.3965   12.4053   25.4998 S   0  0  0  0  0  0  0  0  0  0  0  0
    9.1401   13.4124   24.0895 H   0  0  0  0  0  0  0  0  0  0  0  0
   11.9650    7.6253   23.7223 H   0  0  0  0  0  0  0  0  0  0  0  0
   12.9599    7.6526   22.2483 H   0  0  0  0  0  0  0  0  0  0  0  0
   13.2182    8.8668   23.4922 H   0  0  0  0  0  0  0  0  0  0  0  0
    9.8126    7.7281   22.3028 H   0  0  0  0  0  0  0  0  0  0  0  0
   10.7774    7.7569   20.8091 H   0  0  0  0  0  0  0  0  0  0  0  0
    9.6157    9.0392   21.1169 H   0  0  0  0  0  0  0  0  0  0  0  0
   11.9407    9.8169   21.5727 H   0  0  0  0  0  0  0  0  0  0  0  0
    6.2284    8.9887   25.7624 H   0  0  0  0  0  0  0  0  0  0  0  0
    5.7065   10.4385   26.5778 H   0  0  0  0  0  0  0  0  0  0  0  0
  1  2  2  0  0  0  0
  1 12  1  0  0  0  0
  2  4  1  0  0  0  0
  2  8  1  0  0  0  0
  3  8  2  0  0  0  0
  3  9  1  0  0  0  0
  3 12  1  0  0  0  0
  4 10  2  0  0  0  0
  4 11  1  0  0  0  0
  5  7  1  0  0  0  0
  6  7  1  0  0  0  0
  7 11  1  0  0  0  0
  1 13  1  0  0  0  0
  5 14  1  0  0  0  0
  5 15  1  0  0  0  0
  5 16  1  0  0  0  0
  6 17  1  0  0  0  0
  6 18  1  0  0  0  0
  6 19  1  0  0  0  0
  7 20  1  0  0  0  0
  9 21  1  0  0  0  0
  9 22  1  0  0  0  0
M  END
> <idnumber>
Z1262685252

> <heavy_atoms>
12

> <LogS>
-1.919

> <LogP>
0.778

> <rotating_bonds>
3

> <PSA>
65.21

> <hb_acceptors>
3

> <hb_donors>
1

> <Collection>
HTS

> <link>
https://www.enaminestore.com/catalog/Z1262685252

> <ROCS_ShapeQuery>
_x1140_x0812_0A_x1140_0A_x1097_0A_x0365_0A_x1097_0A_x0310_0A

> <ROCS_TanimotoCombo>
0.625 

> <ROCS_ShapeTanimoto>
0.199 

> <ROCS_ColorTanimoto>
0.426 

> <ROCS_RefTversky>
0.182 

> <ROCS_RefColorTversky>
0.530 

> <ROCS_RefTverskyCombo>
0.712 

> <ROCS_FitTversky>
1.835 

> <ROCS_FitColorTversky>
0.685 

> <ROCS_FitTverskyCombo>
2.520 

> <ROCS_ColorScore>
-4.185

> <ROCS_Overlap>
1867.672

> <ROCS_Rank>
460                 

$$$$
untitled-dbase-53546_68
  -OEChem-02092421083D

 28 28  0     0  0  0  0  0  0999 V2000
    8.6214   12.4204   24.6264 C   0  0  0  0  0  0  0  0  0  0  0  0
    7.6605   11.8533   25.4561 C   0  0  0  0  0  0  0  0  0  0  0  0
    9.0338   10.2623   23.7159 C   0  0  0  0  0  0  0  0  0  0  0  0
    9.3256   11.6166   23.7368 C   0  0  0  0  0  0  0  0  0  0  0  0
    7.4431   10.4884   25.3581 C   0  0  0  0  0  0  0  0  0  0  0  0
   10.3473   12.1872   22.8448 C   0  0  0  0  0  0  0  0  0  0  0  0
   11.9120   12.4129   24.7354 C   0  0  0  0  0  0  0  0  0  0  0  0
   11.7927   17.5831   22.9767 C   0  0  0  0  0  0  0  0  0  0  0  0
   12.1945   13.9253   22.8037 C   0  0  0  0  0  0  0  0  0  0  0  0
   11.5771   15.2537   23.2012 C   0  0  0  0  0  0  0  0  0  0  0  0
    8.1074    9.6754   24.5064 N   0  0  0  0  0  0  0  0  0  0  0  0
   11.4461   12.8327   23.4213 N   0  0  0  0  0  0  0  0  0  0  0  0
   10.1602   12.0390   21.6376 O   0  0  0  0  0  0  0  0  0  0  0  0
   12.3297   16.3148   22.6271 O   0  0  0  0  0  0  0  0  0  0  0  0
    6.2774    9.7033   26.3422 Cl  0  0  0  0  0  0  0  0  0  0  0  0
    8.8132   13.4886   24.6803 H   0  0  0  0  0  0  0  0  0  0  0  0
    7.1057   12.4720   26.1536 H   0  0  0  0  0  0  0  0  0  0  0  0
    9.5497    9.5842   23.0428 H   0  0  0  0  0  0  0  0  0  0  0  0
   12.6664   11.6204   24.6217 H   0  0  0  0  0  0  0  0  0  0  0  0
   12.3586   13.2719   25.2576 H   0  0  0  0  0  0  0  0  0  0  0  0
   11.0629   12.0294   25.3201 H   0  0  0  0  0  0  0  0  0  0  0  0
   12.3940   18.3727   22.5196 H   0  0  0  0  0  0  0  0  0  0  0  0
   11.7934   17.6929   24.0640 H   0  0  0  0  0  0  0  0  0  0  0  0
   10.7668   17.6490   22.6065 H   0  0  0  0  0  0  0  0  0  0  0  0
   12.1717   13.7861   21.7182 H   0  0  0  0  0  0  0  0  0  0  0  0
   13.2306   13.8680   23.1506 H   0  0  0  0  0  0  0  0  0  0  0  0
   11.6054   15.3695   24.2891 H   0  0  0  0  0  0  0  0  0  0  0  0
   10.5396   15.3334   22.8605 H   0  0  0  0  0  0  0  0  0  0  0  0
  1  2  2  0  0  0  0
  1  4  1  0  0  0  0
  2  5  1  0  0  0  0
  3  4  2  0  0  0  0
  3 11  1  0  0  0  0
  4  6  1  0  0  0  0
  5 11  2  0  0  0  0
  5 15  1  0  0  0  0
  6 12  1  0  0  0  0
  6 13  2  0  0  0  0
  7 12  1  0  0  0  0
  8 14  1  0  0  0  0
  9 10  1  0  0  0  0
  9 12  1  0  0  0  0
 10 14  1  0  0  0  0
  1 16  1  0  0  0  0
  2 17  1  0  0  0  0
  3 18  1  0  0  0  0
  7 19  1  0  0  0  0
  7 20  1  0  0  0  0
  7 21  1  0  0  0  0
  8 22  1  0  0  0  0
  8 23  1  0  0  0  0
  8 24  1  0  0  0  0
  9 25  1  0  0  0  0
  9 26  1  0  0  0  0
 10 27  1  0  0  0  0
 10 28  1  0  0  0  0
M  END
> <idnumber>
Z734121610

> <heavy_atoms>
15

> <LogS>
-2.002

> <LogP>
0.721

> <rotating_bonds>
4

> <PSA>
42.43

> <hb_acceptors>
3

> <hb_donors>
0

> <Collection>
Functional

> <link>
https://www.enaminestore.com/catalog/Z734121610

> <ROCS_ShapeQuery>
_x1140_x0812_0A_x1140_0A_x1097_0A_x0365_0A_x1097_0A_x0310_0A

> <ROCS_TanimotoCombo>
0.625 

> <ROCS_ShapeTanimoto>
0.222 

> <ROCS_ColorTanimoto>
0.402 

> <ROCS_RefTversky>
0.202 

> <ROCS_RefColorTversky>
0.441 

> <ROCS_RefTverskyCombo>
0.644 

> <ROCS_FitTversky>
1.812 

> <ROCS_FitColorTversky>
0.820 

> <ROCS_FitTverskyCombo>
2.631 

> <ROCS_ColorScore>
-3.443

> <ROCS_Overlap>
2073.237

> <ROCS_Rank>
461                 

$$$$
untitled-dbase-797969_72
  -OEChem-02092421083D

 32 33  0     0  0  0  0  0  0999 V2000
    8.1504   12.1460   25.4539 C   0  0  0  0  0  0  0  0  0  0  0  0
    9.0373   12.4614   24.4305 C   0  0  0  0  0  0  0  0  0  0  0  0
   14.1754   14.5400   21.8649 C   0  0  0  0  0  0  0  0  0  0  0  0
   14.4716   15.8874   22.0380 C   0  0  0  0  0  0  0  0  0  0  0  0
    7.6908   10.8414   25.5346 C   0  0  0  0  0  0  0  0  0  0  0  0
   11.9677   14.9802   22.6325 C   0  0  0  0  0  0  0  0  0  0  0  0
    9.4319   11.4764   23.5319 C   0  0  0  0  0  0  0  0  0  0  0  0
   12.9019   14.0696   22.1655 C   0  0  0  0  0  0  0  0  0  0  0  0
   13.4671   16.7166   22.5106 C   0  0  0  0  0  0  0  0  0  0  0  0
    8.9151   10.2018   23.6988 C   0  0  0  0  0  0  0  0  0  0  0  0
   10.3596   11.8046   22.4604 C   0  0  0  0  0  0  0  0  0  0  0  0
   13.7497   18.1685   22.7080 C   0  0  0  0  0  0  0  0  0  0  0  0
   12.5509   12.6214   21.9898 C   0  0  0  0  0  0  0  0  0  0  0  0
    9.3028    9.1020   22.7646 C   0  0  0  0  0  0  0  0  0  0  0  0
    8.0516    9.8576   24.6804 N   0  0  0  0  0  0  0  0  0  0  0  0
   12.2184   16.2962   22.8135 N   0  0  0  0  0  0  0  0  0  0  0  0
   10.1060   11.6867   21.2545 O   0  0  0  0  0  0  0  0  0  0  0  0
   11.5518   12.2629   22.9505 O   0  0  0  0  0  0  0  0  0  0  0  0
   10.1750    9.4961   21.7915 F   0  0  0  0  0  0  0  0  0  0  0  0
    9.9104    8.0495   23.3857 F   0  0  0  0  0  0  0  0  0  0  0  0
    8.2314    8.5733   22.1069 F   0  0  0  0  0  0  0  0  0  0  0  0
    7.8286   12.8980   26.1654 H   0  0  0  0  0  0  0  0  0  0  0  0
    9.4135   13.4774   24.3430 H   0  0  0  0  0  0  0  0  0  0  0  0
   14.9418   13.8643   21.4956 H   0  0  0  0  0  0  0  0  0  0  0  0
   15.4611   16.2670   21.8073 H   0  0  0  0  0  0  0  0  0  0  0  0
    6.9968   10.5442   26.3141 H   0  0  0  0  0  0  0  0  0  0  0  0
   10.9577   14.6714   22.8837 H   0  0  0  0  0  0  0  0  0  0  0  0
   13.5239   18.7286   21.7927 H   0  0  0  0  0  0  0  0  0  0  0  0
   13.1487   18.5827   23.5275 H   0  0  0  0  0  0  0  0  0  0  0  0
   14.8025   18.3367   22.9689 H   0  0  0  0  0  0  0  0  0  0  0  0
   12.1629   12.4316   20.9832 H   0  0  0  0  0  0  0  0  0  0  0  0
   13.4328   11.9883   22.1354 H   0  0  0  0  0  0  0  0  0  0  0  0
  1  2  2  0  0  0  0
  1  5  1  0  0  0  0
  2  7  1  0  0  0  0
  3  4  2  0  0  0  0
  3  8  1  0  0  0  0
  4  9  1  0  0  0  0
  5 15  2  0  0  0  0
  6  8  2  0  0  0  0
  6 16  1  0  0  0  0
  7 10  2  0  0  0  0
  7 11  1  0  0  0  0
  8 13  1  0  0  0  0
  9 12  1  0  0  0  0
  9 16  2  0  0  0  0
 10 14  1  0  0  0  0
 10 15  1  0  0  0  0
 11 17  2  0  0  0  0
 11 18  1  0  0  0  0
 13 18  1  0  0  0  0
 14 19  1  0  0  0  0
 14 20  1  0  0  0  0
 14 21  1  0  0  0  0
  1 22  1  0  0  0  0
  2 23  1  0  0  0  0
  3 24  1  0  0  0  0
  4 25  1  0  0  0  0
  5 26  1  0  0  0  0
  6 27  1  0  0  0  0
 12 28  1  0  0  0  0
 12 29  1  0  0  0  0
 12 30  1  0  0  0  0
 13 31  1  0  0  0  0
 13 32  1  0  0  0  0
M  END
> <idnumber>
Z1823852291

> <heavy_atoms>
21

> <LogS>
-2.75

> <LogP>
2.531

> <rotating_bonds>
5

> <PSA>
52.08

> <hb_acceptors>
3

> <hb_donors>
0

> <Collection>
Legacy

> <link>
https://www.enaminestore.com/catalog/Z1823852291

> <ROCS_ShapeQuery>
_x1140_x0812_0A_x1140_0A_x1097_0A_x0365_0A_x1097_0A_x0310_0A

> <ROCS_TanimotoCombo>
0.625 

> <ROCS_ShapeTanimoto>
0.241 

> <ROCS_ColorTanimoto>
0.384 

> <ROCS_RefTversky>
0.222 

> <ROCS_RefColorTversky>
0.459 

> <ROCS_RefTverskyCombo>
0.681 

> <ROCS_FitTversky>
1.565 

> <ROCS_FitColorTversky>
0.700 

> <ROCS_FitTverskyCombo>
2.265 

> <ROCS_ColorScore>
-3.606

> <ROCS_Overlap>
2275.207

> <ROCS_Rank>
462                 

$$$$
untitled-dbase-1003541_39
  -OEChem-02092421083D

 32 34  0     0  0  0  0  0  0999 V2000
    6.5746   12.6134   25.8950 C   0  0  0  0  0  0  0  0  0  0  0  0
    8.5020   12.5265   24.1276 C   0  0  0  0  0  0  0  0  0  0  0  0
    9.0585   10.2450   23.6624 C   0  0  0  0  0  0  0  0  0  0  0  0
    5.9123   11.5808   26.5232 C   0  0  0  0  0  0  0  0  0  0  0  0
    7.5368   12.0384   25.0232 C   0  0  0  0  0  0  0  0  0  0  0  0
    9.2764   11.5972   23.4354 C   0  0  0  0  0  0  0  0  0  0  0  0
    7.4246   10.6573   25.1537 C   0  0  0  0  0  0  0  0  0  0  0  0
   10.3085   12.0438   22.4811 C   0  0  0  0  0  0  0  0  0  0  0  0
   12.9500   15.9009   23.5776 C   0  0  0  0  0  0  0  0  0  0  0  0
   11.6325   13.3788   24.2807 C   0  0  0  0  0  0  0  0  0  0  0  0
   12.5468   13.2727   22.3494 C   0  0  0  0  0  0  0  0  0  0  0  0
   13.0720   13.5482   23.7672 C   0  0  0  0  0  0  0  0  0  0  0  0
   13.7078   17.1610   23.8673 C   0  0  0  0  0  0  0  0  0  0  0  0
    8.1452    9.7187   24.5112 N   0  0  0  0  0  0  0  0  0  0  0  0
    6.4361   10.3992   26.0665 N   0  0  0  0  0  0  0  0  0  0  0  0
   11.3166   12.8288   22.9771 N   0  0  0  0  0  0  0  0  0  0  0  0
   10.2209   11.6773   21.3117 O   0  0  0  0  0  0  0  0  0  0  0  0
   11.8443   15.8712   23.0546 O   0  0  0  0  0  0  0  0  0  0  0  0
   13.6848   14.8314   23.9862 O   0  0  0  0  0  0  0  0  0  0  0  0
    6.3835   13.6663   26.0494 H   0  0  0  0  0  0  0  0  0  0  0  0
    8.6377   13.5939   23.9817 H   0  0  0  0  0  0  0  0  0  0  0  0
    9.6497    9.4982   23.1369 H   0  0  0  0  0  0  0  0  0  0  0  0
    5.1153   11.5813   27.2535 H   0  0  0  0  0  0  0  0  0  0  0  0
   11.5193   12.6696   25.1025 H   0  0  0  0  0  0  0  0  0  0  0  0
   11.0951   14.3052   24.4944 H   0  0  0  0  0  0  0  0  0  0  0  0
   12.4068   14.1512   21.7163 H   0  0  0  0  0  0  0  0  0  0  0  0
   13.0719   12.4861   21.8053 H   0  0  0  0  0  0  0  0  0  0  0  0
   13.7367   12.7472   24.1275 H   0  0  0  0  0  0  0  0  0  0  0  0
   13.4552   17.5243   24.8665 H   0  0  0  0  0  0  0  0  0  0  0  0
   13.4746   17.9159   23.1122 H   0  0  0  0  0  0  0  0  0  0  0  0
   14.7815   16.9546   23.8325 H   0  0  0  0  0  0  0  0  0  0  0  0
    6.1388    9.4781   26.3570 H   0  0  0  0  0  0  0  0  0  0  0  0
  1  4  2  0  0  0  0
  1  5  1  0  0  0  0
  2  5  1  0  0  0  0
  2  6  2  0  0  0  0
  3  6  1  0  0  0  0
  3 14  2  0  0  0  0
  4 15  1  0  0  0  0
  5  7  2  0  0  0  0
  6  8  1  0  0  0  0
  7 14  1  0  0  0  0
  7 15  1  0  0  0  0
  8 16  1  0  0  0  0
  8 17  2  0  0  0  0
  9 13  1  0  0  0  0
  9 18  2  0  0  0  0
  9 19  1  0  0  0  0
 10 12  1  0  0  0  0
 10 16  1  0  0  0  0
 11 12  1  0  0  0  0
 11 16  1  0  0  0  0
 12 19  1  0  0  0  0
  1 20  1  0  0  0  0
  2 21  1  0  0  0  0
  3 22  1  0  0  0  0
  4 23  1  0  0  0  0
 10 24  1  0  0  0  0
 10 25  1  0  0  0  0
 11 26  1  0  0  0  0
 11 27  1  0  0  0  0
 12 28  1  0  0  0  0
 13 29  1  0  0  0  0
 13 30  1  0  0  0  0
 13 31  1  0  0  0  0
 15 32  1  0  0  0  0
M  END
> <idnumber>
Z3056923937

> <heavy_atoms>
19

> <LogS>
-3.14

> <LogP>
0.934

> <rotating_bonds>
3

> <PSA>
75.29

> <hb_acceptors>
3

> <hb_donors>
1

> <Collection>
Advanced

> <link>
https://www.enaminestore.com/catalog/Z3056923937

> <ROCS_ShapeQuery>
_x1140_x0812_0A_x1140_0A_x1097_0A_x0365_0A_x1097_0A_x0310_0A

> <ROCS_TanimotoCombo>
0.625 

> <ROCS_ShapeTanimoto>
0.266 

> <ROCS_ColorTanimoto>
0.358 

> <ROCS_RefTversky>
0.238 

> <ROCS_RefColorTversky>
0.498 

> <ROCS_RefTverskyCombo>
0.737 

> <ROCS_FitTversky>
1.782 

> <ROCS_FitColorTversky>
0.560 

> <ROCS_FitTverskyCombo>
2.343 

> <ROCS_ColorScore>
-3.962

> <ROCS_Overlap>
2447.752

> <ROCS_Rank>
463                 

$$$$
untitled-dbase-555581_92
  -OEChem-02092421083D

 38 40  0     0  0  0  0  0  0999 V2000
   12.2269   20.3974   23.1968 C   0  0  0  0  0  0  0  0  0  0  0  0
   13.2591   19.6456   23.7440 C   0  0  0  0  0  0  0  0  0  0  0  0
   11.2157   19.7598   22.4839 C   0  0  0  0  0  0  0  0  0  0  0  0
   10.2296   17.6972   21.6034 C   0  0  0  0  0  0  0  0  0  0  0  0
    8.2431   12.5010   24.2333 C   0  0  0  0  0  0  0  0  0  0  0  0
   13.2778   18.2586   23.5773 C   0  0  0  0  0  0  0  0  0  0  0  0
   10.2769   16.3185   21.4558 C   0  0  0  0  0  0  0  0  0  0  0  0
    7.3437   11.9486   25.1385 C   0  0  0  0  0  0  0  0  0  0  0  0
    8.8644   10.2983   23.5861 C   0  0  0  0  0  0  0  0  0  0  0  0
   11.2347   18.3647   22.3164 C   0  0  0  0  0  0  0  0  0  0  0  0
    9.0216   11.6670   23.4385 C   0  0  0  0  0  0  0  0  0  0  0  0
   12.2795   17.5950   22.8694 C   0  0  0  0  0  0  0  0  0  0  0  0
   11.3385   15.6510   22.0324 C   0  0  0  0  0  0  0  0  0  0  0  0
    7.2615   10.5673   25.2098 C   0  0  0  0  0  0  0  0  0  0  0  0
    9.9900   12.2268   22.4607 C   0  0  0  0  0  0  0  0  0  0  0  0
    5.1369   10.6860   26.5128 C   0  0  0  0  0  0  0  0  0  0  0  0
   11.4300   14.1675   21.8989 C   0  0  0  0  0  0  0  0  0  0  0  0
    8.0013    9.7249   24.4543 N   0  0  0  0  0  0  0  0  0  0  0  0
   12.3281   16.2569   22.7277 N   0  0  0  0  0  0  0  0  0  0  0  0
    6.3415   10.0198   26.1382 N   0  0  0  0  0  0  0  0  0  0  0  0
   10.5007   13.4825   22.7604 N   0  0  0  0  0  0  0  0  0  0  0  0
   10.2679   11.5802   21.4541 O   0  0  0  0  0  0  0  0  0  0  0  0
   12.2088   21.4754   23.3243 H   0  0  0  0  0  0  0  0  0  0  0  0
   14.0523   20.1352   24.3014 H   0  0  0  0  0  0  0  0  0  0  0  0
   10.4118   20.3575   22.0598 H   0  0  0  0  0  0  0  0  0  0  0  0
    9.4043   18.2486   21.1589 H   0  0  0  0  0  0  0  0  0  0  0  0
    8.3301   13.5813   24.1564 H   0  0  0  0  0  0  0  0  0  0  0  0
   14.0978   17.6925   24.0156 H   0  0  0  0  0  0  0  0  0  0  0  0
    9.5031   15.7952   20.9051 H   0  0  0  0  0  0  0  0  0  0  0  0
    6.7318   12.5920   25.7626 H   0  0  0  0  0  0  0  0  0  0  0  0
    9.4441    9.5962   22.9943 H   0  0  0  0  0  0  0  0  0  0  0  0
    5.0644   11.6432   25.9757 H   0  0  0  0  0  0  0  0  0  0  0  0
    4.2737   10.0548   26.2553 H   0  0  0  0  0  0  0  0  0  0  0  0
    5.1437   10.8735   27.5967 H   0  0  0  0  0  0  0  0  0  0  0  0
   11.2210   13.8499   20.8681 H   0  0  0  0  0  0  0  0  0  0  0  0
   12.4363   13.8030   22.1458 H   0  0  0  0  0  0  0  0  0  0  0  0
    6.5758    9.1303   26.5292 H   0  0  0  0  0  0  0  0  0  0  0  0
   10.1730   13.9817   23.5835 H   0  0  0  0  0  0  0  0  0  0  0  0
  1  2  1  0  0  0  0
  1  3  2  0  0  0  0
  2  6  2  0  0  0  0
  3 10  1  0  0  0  0
  4  7  2  0  0  0  0
  4 10  1  0  0  0  0
  5  8  2  0  0  0  0
  5 11  1  0  0  0  0
  6 12  1  0  0  0  0
  7 13  1  0  0  0  0
  8 14  1  0  0  0  0
  9 11  2  0  0  0  0
  9 18  1  0  0  0  0
 10 12  2  0  0  0  0
 11 15  1  0  0  0  0
 12 19  1  0  0  0  0
 13 17  1  0  0  0  0
 13 19  2  0  0  0  0
 14 18  2  0  0  0  0
 14 20  1  0  0  0  0
 15 21  1  0  0  0  0
 15 22  2  0  0  0  0
 16 20  1  0  0  0  0
 17 21  1  0  0  0  0
  1 23  1  0  0  0  0
  2 24  1  0  0  0  0
  3 25  1  0  0  0  0
  4 26  1  0  0  0  0
  5 27  1  0  0  0  0
  6 28  1  0  0  0  0
  7 29  1  0  0  0  0
  8 30  1  0  0  0  0
  9 31  1  0  0  0  0
 16 32  1  0  0  0  0
 16 33  1  0  0  0  0
 16 34  1  0  0  0  0
 17 35  1  0  0  0  0
 17 36  1  0  0  0  0
 20 37  1  0  0  0  0
 21 38  1  0  0  0  0
M  END
> <idnumber>
Z2067158336

> <heavy_atoms>
22

> <LogS>
-3.535

> <LogP>
2.488

> <rotating_bonds>
4

> <PSA>
66.91

> <hb_acceptors>
4

> <hb_donors>
2

> <Collection>
Legacy

> <link>
https://www.enaminestore.com/catalog/Z2067158336

> <ROCS_ShapeQuery>
_x1140_x0812_0A_x1140_0A_x1097_0A_x0365_0A_x1097_0A_x0310_0A

> <ROCS_TanimotoCombo>
0.625 

> <ROCS_ShapeTanimoto>
0.220 

> <ROCS_ColorTanimoto>
0.404 

> <ROCS_RefTversky>
0.207 

> <ROCS_RefColorTversky>
0.576 

> <ROCS_RefTverskyCombo>
0.783 

> <ROCS_FitTversky>
1.419 

> <ROCS_FitColorTversky>
0.576 

> <ROCS_FitTverskyCombo>
1.995 

> <ROCS_ColorScore>
-4.609

> <ROCS_Overlap>
2122.967

> <ROCS_Rank>
464                 

$$$$
untitled-dbase-209743_170
  -OEChem-02092421083D

 31 32  0     0  0  0  0  0  0999 V2000
   14.1026   16.7331   23.6033 C   0  0  0  0  0  0  0  0  0  0  0  0
    8.1189   11.9798   25.5826 C   0  0  0  0  0  0  0  0  0  0  0  0
    8.9078   12.4159   24.5239 C   0  0  0  0  0  0  0  0  0  0  0  0
   13.2563   17.0104   22.5297 C   0  0  0  0  0  0  0  0  0  0  0  0
   14.1943   15.4334   24.1015 C   0  0  0  0  0  0  0  0  0  0  0  0
    7.7288   10.6503   25.5961 C   0  0  0  0  0  0  0  0  0  0  0  0
    9.2773   11.5218   23.5252 C   0  0  0  0  0  0  0  0  0  0  0  0
   12.5934   14.6884   22.4526 C   0  0  0  0  0  0  0  0  0  0  0  0
   12.5017   15.9880   21.9544 C   0  0  0  0  0  0  0  0  0  0  0  0
   13.4397   14.4111   23.5262 C   0  0  0  0  0  0  0  0  0  0  0  0
    8.8355   10.2128   23.6308 C   0  0  0  0  0  0  0  0  0  0  0  0
   10.1205   12.0143   22.4067 C   0  0  0  0  0  0  0  0  0  0  0  0
   11.0594    9.0416   22.5374 C   0  0  0  0  0  0  0  0  0  0  0  0
   11.7832   13.5902   21.8341 C   0  0  0  0  0  0  0  0  0  0  0  0
    8.0680    9.7524   24.6441 N   0  0  0  0  0  0  0  0  0  0  0  0
   10.0745   11.5497   21.2783 O   0  0  0  0  0  0  0  0  0  0  0  0
   10.9264   13.0322   22.8196 O   0  0  0  0  0  0  0  0  0  0  0  0
    9.2608    8.9910   22.3946 S   0  0  0  0  0  0  0  0  0  0  0  0
   11.4674   16.3758   20.6269 Cl  0  0  0  0  0  0  0  0  0  0  0  0
   13.5872   12.8161   24.1715 Cl  0  0  0  0  0  0  0  0  0  0  0  0
   14.6892   17.5296   24.0517 H   0  0  0  0  0  0  0  0  0  0  0  0
    7.8186   12.6588   26.3721 H   0  0  0  0  0  0  0  0  0  0  0  0
    9.2275   13.4543   24.4901 H   0  0  0  0  0  0  0  0  0  0  0  0
   13.1954   18.0292   22.1553 H   0  0  0  0  0  0  0  0  0  0  0  0
   14.8591   15.2348   24.9383 H   0  0  0  0  0  0  0  0  0  0  0  0
    7.1124   10.2608   26.3995 H   0  0  0  0  0  0  0  0  0  0  0  0
   11.5081    8.3361   21.8339 H   0  0  0  0  0  0  0  0  0  0  0  0
   11.3587    8.7712   23.5531 H   0  0  0  0  0  0  0  0  0  0  0  0
   11.4213   10.0481   22.3141 H   0  0  0  0  0  0  0  0  0  0  0  0
   11.1732   13.9691   21.0060 H   0  0  0  0  0  0  0  0  0  0  0  0
   12.4334   12.8019   21.4375 H   0  0  0  0  0  0  0  0  0  0  0  0
  1  4  1  0  0  0  0
  1  5  2  0  0  0  0
  2  3  2  0  0  0  0
  2  6  1  0  0  0  0
  3  7  1  0  0  0  0
  4  9  2  0  0  0  0
  5 10  1  0  0  0  0
  6 15  2  0  0  0  0
  7 11  2  0  0  0  0
  7 12  1  0  0  0  0
  8  9  1  0  0  0  0
  8 10  2  0  0  0  0
  8 14  1  0  0  0  0
  9 19  1  0  0  0  0
 10 20  1  0  0  0  0
 11 15  1  0  0  0  0
 11 18  1  0  0  0  0
 12 16  2  0  0  0  0
 12 17  1  0  0  0  0
 13 18  1  0  0  0  0
 14 17  1  0  0  0  0
  1 21  1  0  0  0  0
  2 22  1  0  0  0  0
  3 23  1  0  0  0  0
  4 24  1  0  0  0  0
  5 25  1  0  0  0  0
  6 26  1  0  0  0  0
 13 27  1  0  0  0  0
 13 28  1  0  0  0  0
 13 29  1  0  0  0  0
 14 30  1  0  0  0  0
 14 31  1  0  0  0  0
M  END
> <idnumber>
Z18837712

> <heavy_atoms>
20

> <LogS>
-5.21

> <LogP>
5.171

> <rotating_bonds>
5

> <PSA>
39.19

> <hb_acceptors>
2

> <hb_donors>
0

> <Collection>
Functional

> <link>
https://www.enaminestore.com/catalog/Z18837712

> <ROCS_ShapeQuery>
_x1140_x0812_0A_x1140_0A_x1097_0A_x0365_0A_x1097_0A_x0310_0A

> <ROCS_TanimotoCombo>
0.625 

> <ROCS_ShapeTanimoto>
0.227 

> <ROCS_ColorTanimoto>
0.398 

> <ROCS_RefTversky>
0.209 

> <ROCS_RefColorTversky>
0.471 

> <ROCS_RefTverskyCombo>
0.681 

> <ROCS_FitTversky>
1.587 

> <ROCS_FitColorTversky>
0.718 

> <ROCS_FitTverskyCombo>
2.305 

> <ROCS_ColorScore>
-3.699

> <ROCS_Overlap>
2148.285

> <ROCS_Rank>
465                 

$$$$
untitled-dbase-714655_192
  -OEChem-02092421083D

 45 47  0     0  0  0  0  0  0999 V2000
    8.3385   12.3569   24.0737 C   0  0  0  0  0  0  0  0  0  0  0  0
   11.7103   15.6279   22.6853 C   0  0  0  0  0  0  0  0  0  0  0  0
    9.1073   11.4159   23.4197 C   0  0  0  0  0  0  0  0  0  0  0  0
   12.4085   14.6223   21.9903 C   0  0  0  0  0  0  0  0  0  0  0  0
   13.6263   15.1874   21.7005 C   0  0  0  0  0  0  0  0  0  0  0  0
    8.9762   10.1188   23.8720 C   0  0  0  0  0  0  0  0  0  0  0  0
    7.4633   10.7654   25.4405 C   0  0  0  0  0  0  0  0  0  0  0  0
    9.9858   11.8086   22.3294 C   0  0  0  0  0  0  0  0  0  0  0  0
    4.4983   11.1554   27.6393 C   0  0  0  0  0  0  0  0  0  0  0  0
    5.6483   11.9209   28.2691 C   0  0  0  0  0  0  0  0  0  0  0  0
    5.0641   10.7321   26.2922 C   0  0  0  0  0  0  0  0  0  0  0  0
    6.8757   11.0901   27.9126 C   0  0  0  0  0  0  0  0  0  0  0  0
    6.5404   10.4001   26.5747 C   0  0  0  0  0  0  0  0  0  0  0  0
   14.8033   14.6529   20.9897 C   0  0  0  0  0  0  0  0  0  0  0  0
   14.6330   17.4413   22.1714 C   0  0  0  0  0  0  0  0  0  0  0  0
   11.9250   13.2431   21.6461 C   0  0  0  0  0  0  0  0  0  0  0  0
    7.5026   12.0655   25.0919 N   0  0  0  0  0  0  0  0  0  0  0  0
   12.4252   16.7470   22.8285 N   0  0  0  0  0  0  0  0  0  0  0  0
    8.1607    9.7566   24.8840 N   0  0  0  0  0  0  0  0  0  0  0  0
   13.5853   16.4479   22.2196 N   0  0  0  0  0  0  0  0  0  0  0  0
    9.7400    9.1061   23.2405 N   0  0  0  0  0  0  0  0  0  0  0  0
   10.9900   12.7377   22.6255 N   0  0  0  0  0  0  0  0  0  0  0  0
    9.8218   11.3434   21.1875 O   0  0  0  0  0  0  0  0  0  0  0  0
    8.3673   13.4060   23.7957 H   0  0  0  0  0  0  0  0  0  0  0  0
   10.7107   15.5945   23.0944 H   0  0  0  0  0  0  0  0  0  0  0  0
    4.2514   10.2736   28.2420 H   0  0  0  0  0  0  0  0  0  0  0  0
    3.5969   11.7663   27.5377 H   0  0  0  0  0  0  0  0  0  0  0  0
    5.7281   12.9187   27.8207 H   0  0  0  0  0  0  0  0  0  0  0  0
    5.5284   12.0418   29.3494 H   0  0  0  0  0  0  0  0  0  0  0  0
    4.5256    9.8732   25.8785 H   0  0  0  0  0  0  0  0  0  0  0  0
    4.9660   11.5579   25.5760 H   0  0  0  0  0  0  0  0  0  0  0  0
    7.7830   11.7029   27.8827 H   0  0  0  0  0  0  0  0  0  0  0  0
    7.0252   10.3221   28.6820 H   0  0  0  0  0  0  0  0  0  0  0  0
    6.6404    9.2901   26.7204 H   0  0  0  0  0  0  0  0  0  0  0  0
   14.7450   14.8630   19.9088 H   0  0  0  0  0  0  0  0  0  0  0  0
   15.7464   15.0870   21.3643 H   0  0  0  0  0  0  0  0  0  0  0  0
   14.9015   13.5604   21.1132 H   0  0  0  0  0  0  0  0  0  0  0  0
   14.4970   18.0311   21.2611 H   0  0  0  0  0  0  0  0  0  0  0  0
   14.5682   18.0819   23.0553 H   0  0  0  0  0  0  0  0  0  0  0  0
   15.6053   16.9408   22.1624 H   0  0  0  0  0  0  0  0  0  0  0  0
   11.4260   13.2411   20.6709 H   0  0  0  0  0  0  0  0  0  0  0  0
   12.7604   12.5376   21.5855 H   0  0  0  0  0  0  0  0  0  0  0  0
   10.3113    9.3497   22.4610 H   0  0  0  0  0  0  0  0  0  0  0  0
    9.6166    8.1600   23.5291 H   0  0  0  0  0  0  0  0  0  0  0  0
   11.0402   13.1333   23.5587 H   0  0  0  0  0  0  0  0  0  0  0  0
  1  3  1  0  0  0  0
  1 17  2  0  0  0  0
  2  4  1  0  0  0  0
  2 18  2  0  0  0  0
  3  6  2  0  0  0  0
  3  8  1  0  0  0  0
  4  5  2  0  0  0  0
  4 16  1  0  0  0  0
  5 14  1  0  0  0  0
  5 20  1  0  0  0  0
  6 19  1  0  0  0  0
  6 21  1  0  0  0  0
  7 13  1  0  0  0  0
  7 17  1  0  0  0  0
  7 19  2  0  0  0  0
  8 22  1  0  0  0  0
  8 23  2  0  0  0  0
  9 10  1  0  0  0  0
  9 11  1  0  0  0  0
 10 12  1  0  0  0  0
 11 13  1  0  0  0  0
 12 13  1  0  0  0  0
 15 20  1  0  0  0  0
 16 22  1  0  0  0  0
 18 20  1  0  0  0  0
  1 24  1  0  0  0  0
  2 25  1  0  0  0  0
  9 26  1  0  0  0  0
  9 27  1  0  0  0  0
 10 28  1  0  0  0  0
 10 29  1  0  0  0  0
 11 30  1  0  0  0  0
 11 31  1  0  0  0  0
 12 32  1  0  0  0  0
 12 33  1  0  0  0  0
 13 34  1  0  0  0  0
 14 35  1  0  0  0  0
 14 36  1  0  0  0  0
 14 37  1  0  0  0  0
 15 38  1  0  0  0  0
 15 39  1  0  0  0  0
 15 40  1  0  0  0  0
 16 41  1  0  0  0  0
 16 42  1  0  0  0  0
 21 43  1  0  0  0  0
 21 44  1  0  0  0  0
 22 45  1  0  0  0  0
M  END
> <idnumber>
Z2120188622

> <heavy_atoms>
23

> <LogS>
-2.164

> <LogP>
2.285

> <rotating_bonds>
4

> <PSA>
98.72

> <hb_acceptors>
5

> <hb_donors>
2

> <Collection>
HTS

> <link>
https://www.enaminestore.com/catalog/Z2120188622

> <ROCS_ShapeQuery>
_x1140_x0812_0A_x1140_0A_x1097_0A_x0365_0A_x1097_0A_x0310_0A

> <ROCS_TanimotoCombo>
0.625 

> <ROCS_ShapeTanimoto>
0.260 

> <ROCS_ColorTanimoto>
0.364 

> <ROCS_RefTversky>
0.237 

> <ROCS_RefColorTversky>
0.594 

> <ROCS_RefTverskyCombo>
0.831 

> <ROCS_FitTversky>
1.596 

> <ROCS_FitColorTversky>
0.485 

> <ROCS_FitTverskyCombo>
2.081 

> <ROCS_ColorScore>
-4.808

> <ROCS_Overlap>
2438.022

> <ROCS_Rank>
466                 

$$$$
untitled-dbase-646335_73
  -OEChem-02092421083D

 33 34  0     0  0  0  0  0  0999 V2000
    7.5689   12.8841   26.5745 C   0  0  0  0  0  0  0  0  0  0  0  0
    6.7732   12.3912   27.6047 C   0  0  0  0  0  0  0  0  0  0  0  0
    8.8261   12.4988   24.5075 C   0  0  0  0  0  0  0  0  0  0  0  0
    6.8824   10.1953   26.6097 C   0  0  0  0  0  0  0  0  0  0  0  0
    8.0240   12.0292   25.5564 C   0  0  0  0  0  0  0  0  0  0  0  0
    9.2594   11.6292   23.5171 C   0  0  0  0  0  0  0  0  0  0  0  0
    7.6791   10.6614   25.5674 C   0  0  0  0  0  0  0  0  0  0  0  0
    6.4298   11.0451   27.6220 C   0  0  0  0  0  0  0  0  0  0  0  0
    8.8707   10.3084   23.6128 C   0  0  0  0  0  0  0  0  0  0  0  0
   10.0927   12.1214   22.4310 C   0  0  0  0  0  0  0  0  0  0  0  0
   12.6107   14.9653   22.2986 C   0  0  0  0  0  0  0  0  0  0  0  0
    9.2996    9.3170   22.5806 C   0  0  0  0  0  0  0  0  0  0  0  0
   14.7854   15.7967   22.7173 C   0  0  0  0  0  0  0  0  0  0  0  0
   11.8038   13.8173   21.7389 C   0  0  0  0  0  0  0  0  0  0  0  0
    8.0981    9.8151   24.6076 N   0  0  0  0  0  0  0  0  0  0  0  0
   10.9350   13.2021   22.7164 N   0  0  0  0  0  0  0  0  0  0  0  0
   10.0284   11.6038   21.3020 O   0  0  0  0  0  0  0  0  0  0  0  0
   12.0815   15.9647   22.7738 O   0  0  0  0  0  0  0  0  0  0  0  0
   13.9519   14.7504   22.2074 O   0  0  0  0  0  0  0  0  0  0  0  0
    5.4463   10.4236   28.8904 Cl  0  0  0  0  0  0  0  0  0  0  0  0
    7.8316   13.9396   26.5718 H   0  0  0  0  0  0  0  0  0  0  0  0
    6.4305   13.0670   28.3837 H   0  0  0  0  0  0  0  0  0  0  0  0
    9.1106   13.5487   24.4666 H   0  0  0  0  0  0  0  0  0  0  0  0
    6.6083    9.1411   26.6337 H   0  0  0  0  0  0  0  0  0  0  0  0
   10.2517    8.8571   22.8690 H   0  0  0  0  0  0  0  0  0  0  0  0
    8.5512    8.5248   22.4576 H   0  0  0  0  0  0  0  0  0  0  0  0
    9.4239    9.7944   21.6009 H   0  0  0  0  0  0  0  0  0  0  0  0
   15.8353   15.5201   22.5938 H   0  0  0  0  0  0  0  0  0  0  0  0
   14.5622   15.9589   23.7748 H   0  0  0  0  0  0  0  0  0  0  0  0
   14.5848   16.7146   22.1597 H   0  0  0  0  0  0  0  0  0  0  0  0
   12.4883   13.0467   21.3752 H   0  0  0  0  0  0  0  0  0  0  0  0
   11.1734   14.1857   20.9257 H   0  0  0  0  0  0  0  0  0  0  0  0
   10.9021   13.6272   23.6372 H   0  0  0  0  0  0  0  0  0  0  0  0
  1  2  2  0  0  0  0
  1  5  1  0  0  0  0
  2  8  1  0  0  0  0
  3  5  2  0  0  0  0
  3  6  1  0  0  0  0
  4  7  1  0  0  0  0
  4  8  2  0  0  0  0
  5  7  1  0  0  0  0
  6  9  2  0  0  0  0
  6 10  1  0  0  0  0
  7 15  2  0  0  0  0
  8 20  1  0  0  0  0
  9 12  1  0  0  0  0
  9 15  1  0  0  0  0
 10 16  1  0  0  0  0
 10 17  2  0  0  0  0
 11 14  1  0  0  0  0
 11 18  2  0  0  0  0
 11 19  1  0  0  0  0
 13 19  1  0  0  0  0
 14 16  1  0  0  0  0
  1 21  1  0  0  0  0
  2 22  1  0  0  0  0
  3 23  1  0  0  0  0
  4 24  1  0  0  0  0
 12 25  1  0  0  0  0
 12 26  1  0  0  0  0
 12 27  1  0  0  0  0
 13 28  1  0  0  0  0
 13 29  1  0  0  0  0
 13 30  1  0  0  0  0
 14 31  1  0  0  0  0
 14 32  1  0  0  0  0
 16 33  1  0  0  0  0
M  END
> <idnumber>
Z339476242

> <heavy_atoms>
20

> <LogS>
-3.56

> <LogP>
2.426

> <rotating_bonds>
4

> <PSA>
68.29

> <hb_acceptors>
3

> <hb_donors>
1

> <Collection>
Legacy

> <link>
https://www.enaminestore.com/catalog/Z339476242

> <ROCS_ShapeQuery>
_x1140_x0812_0A_x1140_0A_x1097_0A_x0365_0A_x1097_0A_x0310_0A

> <ROCS_TanimotoCombo>
0.625 

> <ROCS_ShapeTanimoto>
0.255 

> <ROCS_ColorTanimoto>
0.370 

> <ROCS_RefTversky>
0.230 

> <ROCS_RefColorTversky>
0.479 

> <ROCS_RefTverskyCombo>
0.709 

> <ROCS_FitTversky>
1.705 

> <ROCS_FitColorTversky>
0.620 

> <ROCS_FitTverskyCombo>
2.324 

> <ROCS_ColorScore>
-3.783

> <ROCS_Overlap>
2364.130

> <ROCS_Rank>
467                 

$$$$
untitled-dbase-939554_46
  -OEChem-02092421083D

 25 25  0     0  0  0  0  0  0999 V2000
    7.6019   11.8786   25.1084 C   0  0  0  0  0  0  0  0  0  0  0  0
    8.5710   12.4878   24.3191 C   0  0  0  0  0  0  0  0  0  0  0  0
    9.4806   11.7050   23.6168 C   0  0  0  0  0  0  0  0  0  0  0  0
    7.5848   10.4942   25.1614 C   0  0  0  0  0  0  0  0  0  0  0  0
    9.3796   10.3283   23.7367 C   0  0  0  0  0  0  0  0  0  0  0  0
   10.6593   12.1661   21.4440 C   0  0  0  0  0  0  0  0  0  0  0  0
    5.7304   10.7084   26.6348 C   0  0  0  0  0  0  0  0  0  0  0  0
    8.6087   13.9796   24.2469 C   0  0  0  0  0  0  0  0  0  0  0  0
   11.8241   12.9926   20.9652 C   0  0  0  0  0  0  0  0  0  0  0  0
    8.4518    9.7005   24.4935 N   0  0  0  0  0  0  0  0  0  0  0  0
   10.4574   12.3104   22.8207 N   0  0  0  0  0  0  0  0  0  0  0  0
    9.9967   11.4977   20.6576 O   0  0  0  0  0  0  0  0  0  0  0  0
    6.6402    9.8697   25.9327 O   0  0  0  0  0  0  0  0  0  0  0  0
    9.7940   14.4538   24.7100 F   0  0  0  0  0  0  0  0  0  0  0  0
    7.6416   14.5230   25.0302 F   0  0  0  0  0  0  0  0  0  0  0  0
   12.9834   12.6140   21.5649 F   0  0  0  0  0  0  0  0  0  0  0  0
   11.6561   14.3099   21.2542 F   0  0  0  0  0  0  0  0  0  0  0  0
   10.5892    9.1811   22.8081 Br  0  0  0  0  0  0  0  0  0  0  0  0
    6.8803   12.4666   25.6662 H   0  0  0  0  0  0  0  0  0  0  0  0
    5.0337   10.0919   27.2082 H   0  0  0  0  0  0  0  0  0  0  0  0
    5.1822   11.3298   25.9222 H   0  0  0  0  0  0  0  0  0  0  0  0
    6.2926   11.3498   27.3175 H   0  0  0  0  0  0  0  0  0  0  0  0
    8.4695   14.3512   23.2310 H   0  0  0  0  0  0  0  0  0  0  0  0
   11.9433   12.8838   19.8834 H   0  0  0  0  0  0  0  0  0  0  0  0
   11.1065   12.9382   23.3062 H   0  0  0  0  0  0  0  0  0  0  0  0
  1  2  2  0  0  0  0
  1  4  1  0  0  0  0
  2  3  1  0  0  0  0
  2  8  1  0  0  0  0
  3  5  2  0  0  0  0
  3 11  1  0  0  0  0
  4 10  2  0  0  0  0
  4 13  1  0  0  0  0
  5 10  1  0  0  0  0
  5 18  1  0  0  0  0
  6  9  1  0  0  0  0
  6 11  1  0  0  0  0
  6 12  2  0  0  0  0
  7 13  1  0  0  0  0
  8 14  1  0  0  0  0
  8 15  1  0  0  0  0
  9 16  1  0  0  0  0
  9 17  1  0  0  0  0
  1 19  1  0  0  0  0
  7 20  1  0  0  0  0
  7 21  1  0  0  0  0
  7 22  1  0  0  0  0
  8 23  1  0  0  0  0
  9 24  1  0  0  0  0
 11 25  1  0  0  0  0
M  END
> <idnumber>
Z2732434911

> <heavy_atoms>
18

> <LogS>
-3.68

> <LogP>
1.372

> <rotating_bonds>
4

> <PSA>
51.22

> <hb_acceptors>
3

> <hb_donors>
1

> <Collection>
Legacy

> <link>
https://www.enaminestore.com/catalog/Z2732434911

> <ROCS_ShapeQuery>
_x1140_x0812_0A_x1140_0A_x1097_0A_x0365_0A_x1097_0A_x0310_0A

> <ROCS_TanimotoCombo>
0.625 

> <ROCS_ShapeTanimoto>
0.253 

> <ROCS_ColorTanimoto>
0.371 

> <ROCS_RefTversky>
0.228 

> <ROCS_RefColorTversky>
0.480 

> <ROCS_RefTverskyCombo>
0.708 

> <ROCS_FitTversky>
1.808 

> <ROCS_FitColorTversky>
0.621 

> <ROCS_FitTverskyCombo>
2.429 

> <ROCS_ColorScore>
-3.793

> <ROCS_Overlap>
2334.674

> <ROCS_Rank>
468                 

$$$$
untitled-dbase-190968_37
  -OEChem-02092421083D

 43 46  0     0  0  0  0  0  0999 V2000
   11.3429    6.9876   22.2545 C   0  0  0  0  0  0  0  0  0  0  0  0
   11.8385    8.2909   22.2931 C   0  0  0  0  0  0  0  0  0  0  0  0
   10.0668    6.7119   22.7458 C   0  0  0  0  0  0  0  0  0  0  0  0
   11.0582    9.3184   22.8231 C   0  0  0  0  0  0  0  0  0  0  0  0
    9.2865    7.7394   23.2758 C   0  0  0  0  0  0  0  0  0  0  0  0
    8.1041   12.0182   24.2594 C   0  0  0  0  0  0  0  0  0  0  0  0
    9.7822    9.0427   23.3145 C   0  0  0  0  0  0  0  0  0  0  0  0
    9.0362   11.3835   23.4753 C   0  0  0  0  0  0  0  0  0  0  0  0
    7.5675   10.9961   25.0652 C   0  0  0  0  0  0  0  0  0  0  0  0
    9.9064   11.9672   22.4428 C   0  0  0  0  0  0  0  0  0  0  0  0
    5.0312   10.9891   25.7276 C   0  0  0  0  0  0  0  0  0  0  0  0
    5.5269   12.3836   25.9510 C   0  0  0  0  0  0  0  0  0  0  0  0
   11.0359   14.7134   21.3325 C   0  0  0  0  0  0  0  0  0  0  0  0
   12.9149   13.8998   22.6132 C   0  0  0  0  0  0  0  0  0  0  0  0
   10.9756   15.9309   22.2535 C   0  0  0  0  0  0  0  0  0  0  0  0
   12.8060   15.1384   23.5009 C   0  0  0  0  0  0  0  0  0  0  0  0
    6.4793   11.2156   26.1145 C   0  0  0  0  0  0  0  0  0  0  0  0
    8.1132    9.8027   24.8157 N   0  0  0  0  0  0  0  0  0  0  0  0
    9.0023   10.0710   23.8443 N   0  0  0  0  0  0  0  0  0  0  0  0
   11.6421   13.5410   21.9756 N   0  0  0  0  0  0  0  0  0  0  0  0
   10.7733   12.9619   22.8819 N   0  0  0  0  0  0  0  0  0  0  0  0
    9.8835   11.5814   21.2721 O   0  0  0  0  0  0  0  0  0  0  0  0
   12.2755   16.2367   22.7587 O   0  0  0  0  0  0  0  0  0  0  0  0
   11.9493    6.1876   21.8403 H   0  0  0  0  0  0  0  0  0  0  0  0
   12.8315    8.5060   21.9094 H   0  0  0  0  0  0  0  0  0  0  0  0
    9.6810    5.6970   22.7140 H   0  0  0  0  0  0  0  0  0  0  0  0
   11.4563   10.3299   22.8466 H   0  0  0  0  0  0  0  0  0  0  0  0
    8.2933    7.5108   23.6547 H   0  0  0  0  0  0  0  0  0  0  0  0
    7.8502   13.0685   24.2492 H   0  0  0  0  0  0  0  0  0  0  0  0
    4.3690   10.5627   26.4714 H   0  0  0  0  0  0  0  0  0  0  0  0
    4.8091   10.6909   24.7101 H   0  0  0  0  0  0  0  0  0  0  0  0
    5.6399   13.0235   25.0841 H   0  0  0  0  0  0  0  0  0  0  0  0
    5.1999   12.8993   26.8459 H   0  0  0  0  0  0  0  0  0  0  0  0
   10.0075   14.4699   20.9953 H   0  0  0  0  0  0  0  0  0  0  0  0
   11.6051   14.9803   20.4158 H   0  0  0  0  0  0  0  0  0  0  0  0
   13.6913   14.0770   21.8377 H   0  0  0  0  0  0  0  0  0  0  0  0
   13.2821   13.0519   23.2272 H   0  0  0  0  0  0  0  0  0  0  0  0
   10.6217   16.8028   21.6945 H   0  0  0  0  0  0  0  0  0  0  0  0
   10.2854   15.7705   23.0905 H   0  0  0  0  0  0  0  0  0  0  0  0
   12.1768   14.9516   24.3795 H   0  0  0  0  0  0  0  0  0  0  0  0
   13.7989   15.4271   23.8597 H   0  0  0  0  0  0  0  0  0  0  0  0
    6.7560   10.9535   27.1337 H   0  0  0  0  0  0  0  0  0  0  0  0
   10.7684   13.2580   23.8525 H   0  0  0  0  0  0  0  0  0  0  0  0
  1  2  1  0  0  0  0
  1  3  2  0  0  0  0
  2  4  2  0  0  0  0
  3  5  1  0  0  0  0
  4  7  1  0  0  0  0
  5  7  2  0  0  0  0
  6  8  2  0  0  0  0
  6  9  1  0  0  0  0
  7 19  1  0  0  0  0
  8 10  1  0  0  0  0
  8 19  1  0  0  0  0
  9 17  1  0  0  0  0
  9 18  2  0  0  0  0
 10 21  1  0  0  0  0
 10 22  2  0  0  0  0
 11 12  1  0  0  0  0
 11 17  1  0  0  0  0
 12 17  1  0  0  0  0
 13 15  1  0  0  0  0
 13 20  1  0  0  0  0
 14 16  1  0  0  0  0
 14 20  1  0  0  0  0
 15 23  1  0  0  0  0
 16 23  1  0  0  0  0
 18 19  1  0  0  0  0
 20 21  1  0  0  0  0
  1 24  1  0  0  0  0
  2 25  1  0  0  0  0
  3 26  1  0  0  0  0
  4 27  1  0  0  0  0
  5 28  1  0  0  0  0
  6 29  1  0  0  0  0
 11 30  1  0  0  0  0
 11 31  1  0  0  0  0
 12 32  1  0  0  0  0
 12 33  1  0  0  0  0
 13 34  1  0  0  0  0
 13 35  1  0  0  0  0
 14 36  1  0  0  0  0
 14 37  1  0  0  0  0
 15 38  1  0  0  0  0
 15 39  1  0  0  0  0
 16 40  1  0  0  0  0
 16 41  1  0  0  0  0
 17 42  1  0  0  0  0
 21 43  1  0  0  0  0
M  END
> <idnumber>
Z51754577

> <heavy_atoms>
23

> <LogS>
-3.186

> <LogP>
2.181

> <rotating_bonds>
4

> <PSA>
59.39

> <hb_acceptors>
4

> <hb_donors>
1

> <Collection>
Legacy

> <link>
https://www.enaminestore.com/catalog/Z51754577

> <ROCS_ShapeQuery>
_x1140_x0812_0A_x1140_0A_x1097_0A_x0365_0A_x1097_0A_x0310_0A

> <ROCS_TanimotoCombo>
0.624 

> <ROCS_ShapeTanimoto>
0.281 

> <ROCS_ColorTanimoto>
0.344 

> <ROCS_RefTversky>
0.252 

> <ROCS_RefColorTversky>
0.482 

> <ROCS_RefTverskyCombo>
0.735 

> <ROCS_FitTversky>
1.682 

> <ROCS_FitColorTversky>
0.544 

> <ROCS_FitTverskyCombo>
2.226 

> <ROCS_ColorScore>
-3.836

> <ROCS_Overlap>
2590.637

> <ROCS_Rank>
469                 

$$$$
untitled-dbase-852047_86
  -OEChem-02092421083D

 36 37  0     0  0  0  0  0  0999 V2000
    5.8014   12.4975   27.0270 C   0  0  0  0  0  0  0  0  0  0  0  0
    5.8190   11.1515   27.3800 C   0  0  0  0  0  0  0  0  0  0  0  0
    6.6305   12.9628   26.0060 C   0  0  0  0  0  0  0  0  0  0  0  0
    6.6657   10.2655   26.7133 C   0  0  0  0  0  0  0  0  0  0  0  0
    8.3304   12.5361   24.2939 C   0  0  0  0  0  0  0  0  0  0  0  0
    8.3657    9.8387   25.0013 C   0  0  0  0  0  0  0  0  0  0  0  0
    7.4892   12.0852   25.3241 C   0  0  0  0  0  0  0  0  0  0  0  0
    7.5070   10.7164   25.6831 C   0  0  0  0  0  0  0  0  0  0  0  0
    9.1772   11.6502   23.6272 C   0  0  0  0  0  0  0  0  0  0  0  0
    9.1948   10.3041   23.9802 C   0  0  0  0  0  0  0  0  0  0  0  0
   10.0350   12.1549   22.5640 C   0  0  0  0  0  0  0  0  0  0  0  0
   11.6079   15.2604   21.9074 C   0  0  0  0  0  0  0  0  0  0  0  0
    9.8238   16.8719   21.1990 C   0  0  0  0  0  0  0  0  0  0  0  0
   10.3802   14.9601   19.7463 C   0  0  0  0  0  0  0  0  0  0  0  0
   11.8596   13.7640   21.9659 C   0  0  0  0  0  0  0  0  0  0  0  0
   10.9571   13.1476   22.9116 N   0  0  0  0  0  0  0  0  0  0  0  0
   10.6419   15.6804   20.9863 N   0  0  0  0  0  0  0  0  0  0  0  0
    9.9202   11.7229   21.4044 O   0  0  0  0  0  0  0  0  0  0  0  0
   12.2300   16.0344   22.6399 O   0  0  0  0  0  0  0  0  0  0  0  0
   10.0158    9.4239   23.3404 O   0  0  0  0  0  0  0  0  0  0  0  0
    5.1416   13.1867   27.5462 H   0  0  0  0  0  0  0  0  0  0  0  0
    5.1734   10.7902   28.1754 H   0  0  0  0  0  0  0  0  0  0  0  0
    6.5998   14.0190   25.7463 H   0  0  0  0  0  0  0  0  0  0  0  0
    6.6625    9.2176   27.0059 H   0  0  0  0  0  0  0  0  0  0  0  0
    8.3247   13.5874   24.0098 H   0  0  0  0  0  0  0  0  0  0  0  0
    8.3912    8.7829   25.2657 H   0  0  0  0  0  0  0  0  0  0  0  0
   10.3310   17.7474   20.7674 H   0  0  0  0  0  0  0  0  0  0  0  0
    8.8467   16.7374   20.7119 H   0  0  0  0  0  0  0  0  0  0  0  0
    9.6772   17.0281   22.2779 H   0  0  0  0  0  0  0  0  0  0  0  0
    9.6015   14.2027   19.9190 H   0  0  0  0  0  0  0  0  0  0  0  0
   10.0390   15.6678   18.9764 H   0  0  0  0  0  0  0  0  0  0  0  0
   11.3030   14.4665   19.4075 H   0  0  0  0  0  0  0  0  0  0  0  0
   11.6757   13.3095   20.9890 H   0  0  0  0  0  0  0  0  0  0  0  0
   12.8792   13.5620   22.3040 H   0  0  0  0  0  0  0  0  0  0  0  0
   10.9651   13.5087   23.8599 H   0  0  0  0  0  0  0  0  0  0  0  0
    9.9030    8.5337   23.7082 H   0  0  0  0  0  0  0  0  0  0  0  0
  1  2  1  0  0  0  0
  1  3  2  0  0  0  0
  2  4  2  0  0  0  0
  3  7  1  0  0  0  0
  4  8  1  0  0  0  0
  5  7  2  0  0  0  0
  5  9  1  0  0  0  0
  6  8  2  0  0  0  0
  6 10  1  0  0  0  0
  7  8  1  0  0  0  0
  9 10  2  0  0  0  0
  9 11  1  0  0  0  0
 10 20  1  0  0  0  0
 11 16  1  0  0  0  0
 11 18  2  0  0  0  0
 12 15  1  0  0  0  0
 12 17  1  0  0  0  0
 12 19  2  0  0  0  0
 13 17  1  0  0  0  0
 14 17  1  0  0  0  0
 15 16  1  0  0  0  0
  1 21  1  0  0  0  0
  2 22  1  0  0  0  0
  3 23  1  0  0  0  0
  4 24  1  0  0  0  0
  5 25  1  0  0  0  0
  6 26  1  0  0  0  0
 13 27  1  0  0  0  0
 13 28  1  0  0  0  0
 13 29  1  0  0  0  0
 14 30  1  0  0  0  0
 14 31  1  0  0  0  0
 14 32  1  0  0  0  0
 15 33  1  0  0  0  0
 15 34  1  0  0  0  0
 16 35  1  0  0  0  0
 20 36  1  0  0  0  0
M  END
> <idnumber>
Z70983601

> <heavy_atoms>
20

> <LogS>
-3.445

> <LogP>
2.232

> <rotating_bonds>
3

> <PSA>
69.64

> <hb_acceptors>
3

> <hb_donors>
2

> <Collection>
Legacy

> <link>
https://www.enaminestore.com/catalog/Z70983601

> <ROCS_ShapeQuery>
_x1140_x0812_0A_x1140_0A_x1097_0A_x0365_0A_x1097_0A_x0310_0A

> <ROCS_TanimotoCombo>
0.624 

> <ROCS_ShapeTanimoto>
0.275 

> <ROCS_ColorTanimoto>
0.349 

> <ROCS_RefTversky>
0.245 

> <ROCS_RefColorTversky>
0.489 

> <ROCS_RefTverskyCombo>
0.734 

> <ROCS_FitTversky>
1.808 

> <ROCS_FitColorTversky>
0.550 

> <ROCS_FitTverskyCombo>
2.359 

> <ROCS_ColorScore>
-3.884

> <ROCS_Overlap>
2515.731

> <ROCS_Rank>
470                 

$$$$
untitled-dbase-674283_9
  -OEChem-02092421083D

 29 31  0     0  0  0  0  0  0999 V2000
   11.9174   15.2764   22.3243 C   0  0  0  0  0  0  0  0  0  0  0  0
    8.9216   10.3202   23.6495 C   0  0  0  0  0  0  0  0  0  0  0  0
    6.2785   11.5076   27.2714 C   0  0  0  0  0  0  0  0  0  0  0  0
    9.0608   11.6493   23.5300 C   0  0  0  0  0  0  0  0  0  0  0  0
    6.8908   12.4139   26.4930 C   0  0  0  0  0  0  0  0  0  0  0  0
    8.3713   12.5453   24.5059 C   0  0  0  0  0  0  0  0  0  0  0  0
    7.5909   10.4558   25.4490 C   0  0  0  0  0  0  0  0  0  0  0  0
    9.8928   12.1523   22.4339 C   0  0  0  0  0  0  0  0  0  0  0  0
   12.2676   13.2410   20.8766 C   0  0  0  0  0  0  0  0  0  0  0  0
   11.0926   13.9832   20.3227 C   0  0  0  0  0  0  0  0  0  0  0  0
   11.3830   14.0447   21.8093 C   0  0  0  0  0  0  0  0  0  0  0  0
    6.7940   13.8871   26.6990 C   0  0  0  0  0  0  0  0  0  0  0  0
   12.3487   16.2701   22.7398 N   0  0  0  0  0  0  0  0  0  0  0  0
    8.1843    9.6747   24.6101 N   0  0  0  0  0  0  0  0  0  0  0  0
    7.6353   11.8482   25.4610 N   0  0  0  0  0  0  0  0  0  0  0  0
   10.5109   13.3544   22.7323 N   0  0  0  0  0  0  0  0  0  0  0  0
    8.4905   13.7630   24.4094 O   0  0  0  0  0  0  0  0  0  0  0  0
    9.9969   11.5274   21.3787 O   0  0  0  0  0  0  0  0  0  0  0  0
    6.5900    9.8776   26.7681 S   0  0  0  0  0  0  0  0  0  0  0  0
    9.4145    9.6502   22.9507 H   0  0  0  0  0  0  0  0  0  0  0  0
    5.6541   11.7363   28.1241 H   0  0  0  0  0  0  0  0  0  0  0  0
   12.2063   12.1593   20.9134 H   0  0  0  0  0  0  0  0  0  0  0  0
   13.2568   13.6152   20.6380 H   0  0  0  0  0  0  0  0  0  0  0  0
   11.2915   14.8561   19.7115 H   0  0  0  0  0  0  0  0  0  0  0  0
   10.2421   13.4000   19.9885 H   0  0  0  0  0  0  0  0  0  0  0  0
    7.5928   14.2235   27.3612 H   0  0  0  0  0  0  0  0  0  0  0  0
    5.8304   14.1386   27.1448 H   0  0  0  0  0  0  0  0  0  0  0  0
    6.8817   14.4034   25.7419 H   0  0  0  0  0  0  0  0  0  0  0  0
   10.3436   13.7713   23.6435 H   0  0  0  0  0  0  0  0  0  0  0  0
  1 11  1  0  0  0  0
  1 13  3  0  0  0  0
  2  4  2  0  0  0  0
  2 14  1  0  0  0  0
  3  5  2  0  0  0  0
  3 19  1  0  0  0  0
  4  6  1  0  0  0  0
  4  8  1  0  0  0  0
  5 12  1  0  0  0  0
  5 15  1  0  0  0  0
  6 15  1  0  0  0  0
  6 17  2  0  0  0  0
  7 14  2  0  0  0  0
  7 15  1  0  0  0  0
  7 19  1  0  0  0  0
  8 16  1  0  0  0  0
  8 18  2  0  0  0  0
  9 10  1  0  0  0  0
  9 11  1  0  0  0  0
 10 11  1  0  0  0  0
 11 16  1  0  0  0  0
  2 20  1  0  0  0  0
  3 21  1  0  0  0  0
  9 22  1  0  0  0  0
  9 23  1  0  0  0  0
 10 24  1  0  0  0  0
 10 25  1  0  0  0  0
 12 26  1  0  0  0  0
 12 27  1  0  0  0  0
 12 28  1  0  0  0  0
 16 29  1  0  0  0  0
M  END
> <idnumber>
Z1601959286

> <heavy_atoms>
19

> <LogS>
-2.879

> <LogP>
-0.389

> <rotating_bonds>
2

> <PSA>
85.56

> <hb_acceptors>
4

> <hb_donors>
1

> <Collection>
Functional

> <link>
https://www.enaminestore.com/catalog/Z1601959286

> <ROCS_ShapeQuery>
_x1140_x0812_0A_x1140_0A_x1097_0A_x0365_0A_x1097_0A_x0310_0A

> <ROCS_TanimotoCombo>
0.624 

> <ROCS_ShapeTanimoto>
0.263 

> <ROCS_ColorTanimoto>
0.362 

> <ROCS_RefTversky>
0.235 

> <ROCS_RefColorTversky>
0.502 

> <ROCS_RefTverskyCombo>
0.737 

> <ROCS_FitTversky>
1.781 

> <ROCS_FitColorTversky>
0.565 

> <ROCS_FitTverskyCombo>
2.346 

> <ROCS_ColorScore>
-3.990

> <ROCS_Overlap>
2416.706

> <ROCS_Rank>
471                 

$$$$
untitled-dbase-956767_25
  -OEChem-02092421083D

 40 41  0     1  0  0  0  0  0999 V2000
    7.7564   11.0104   25.7644 C   0  0  0  0  0  0  0  0  0  0  0  0
    8.6236   10.0933   25.1707 C   0  0  0  0  0  0  0  0  0  0  0  0
    8.2795   12.6207   24.0409 C   0  0  0  0  0  0  0  0  0  0  0  0
    9.1468   11.7037   23.4472 C   0  0  0  0  0  0  0  0  0  0  0  0
    7.5843   12.2741   25.1994 C   0  0  0  0  0  0  0  0  0  0  0  0
    9.3189   10.4399   24.0122 C   0  0  0  0  0  0  0  0  0  0  0  0
    9.8629   12.0990   22.2287 C   0  0  0  0  0  0  0  0  0  0  0  0
   11.3790   13.5218   23.5621 C   0  0  0  0  0  0  0  0  0  0  0  0
   10.9635   14.1526   21.1970 C   0  0  0  0  0  0  0  0  0  0  0  0
   10.8276   14.8078   24.1571 C   0  0  0  0  0  0  0  0  0  0  0  0
   10.3472   15.5204   21.5013 C   0  0  2  0  0  0  0  0  0  0  0  0
   10.5799   16.4982   20.3557 C   0  0  0  0  0  0  0  0  0  0  0  0
   10.8874    8.5075   24.1885 C   0  0  0  0  0  0  0  0  0  0  0  0
    6.6565   13.2540   25.8343 C   0  0  0  0  0  0  0  0  0  0  0  0
   10.7160   13.2053   22.2955 N   0  0  0  0  0  0  0  0  0  0  0  0
   10.1912    9.4960   23.4266 N   0  0  0  0  0  0  0  0  0  0  0  0
    9.6563   11.4096   21.2312 O   0  0  0  0  0  0  0  0  0  0  0  0
   12.4319   16.4234   22.8604 O   0  0  0  0  0  0  0  0  0  0  0  0
   10.1292   17.2383   23.4908 O   0  0  0  0  0  0  0  0  0  0  0  0
    6.0450   12.7793   26.9598 F   0  0  0  0  0  0  0  0  0  0  0  0
    7.2669   14.4126   26.2227 F   0  0  0  0  0  0  0  0  0  0  0  0
    5.6446   13.6350   25.0012 F   0  0  0  0  0  0  0  0  0  0  0  0
   11.0126   16.1819   23.0356 S   0  0  0  0  0  0  0  0  0  0  0  0
    7.2186   10.7315   26.6667 H   0  0  0  0  0  0  0  0  0  0  0  0
    8.7493    9.1114   25.6197 H   0  0  0  0  0  0  0  0  0  0  0  0
    8.1420   13.6066   23.6021 H   0  0  0  0  0  0  0  0  0  0  0  0
   12.4531   13.6089   23.3622 H   0  0  0  0  0  0  0  0  0  0  0  0
   11.2436   12.7029   24.2760 H   0  0  0  0  0  0  0  0  0  0  0  0
   10.5636   13.7668   20.2551 H   0  0  0  0  0  0  0  0  0  0  0  0
   12.0507   14.2285   21.0730 H   0  0  0  0  0  0  0  0  0  0  0  0
    9.7614   14.7101   24.3861 H   0  0  0  0  0  0  0  0  0  0  0  0
   11.3574   15.0692   25.0781 H   0  0  0  0  0  0  0  0  0  0  0  0
    9.2670   15.4116   21.6593 H   0  0  0  0  0  0  0  0  0  0  0  0
   11.6489   16.6206   20.1823 H   0  0  0  0  0  0  0  0  0  0  0  0
   10.1476   17.4681   20.6007 H   0  0  0  0  0  0  0  0  0  0  0  0
   10.1139   16.1222   19.4451 H   0  0  0  0  0  0  0  0  0  0  0  0
   10.6288    8.6145   25.2523 H   0  0  0  0  0  0  0  0  0  0  0  0
   10.5980    7.5052   23.8399 H   0  0  0  0  0  0  0  0  0  0  0  0
   11.9715    8.6417   24.0595 H   0  0  0  0  0  0  0  0  0  0  0  0
   10.3096    9.5449   22.4332 H   0  0  0  0  0  0  0  0  0  0  0  0
  1  2  2  0  0  0  0
  1  5  1  0  0  0  0
  2  6  1  0  0  0  0
  3  4  1  0  0  0  0
  3  5  2  0  0  0  0
  4  6  2  0  0  0  0
  4  7  1  0  0  0  0
  5 14  1  0  0  0  0
  6 16  1  0  0  0  0
  7 15  1  0  0  0  0
  7 17  2  0  0  0  0
  8 10  1  0  0  0  0
  8 15  1  0  0  0  0
  9 11  1  0  0  0  0
  9 15  1  0  0  0  0
 10 23  1  0  0  0  0
 11 12  1  1  0  0  0
 11 23  1  0  0  0  0
 13 16  1  0  0  0  0
 14 20  1  0  0  0  0
 14 21  1  0  0  0  0
 14 22  1  0  0  0  0
 18 23  2  0  0  0  0
 19 23  2  0  0  0  0
  1 24  1  0  0  0  0
  2 25  1  0  0  0  0
  3 26  1  0  0  0  0
  8 27  1  0  0  0  0
  8 28  1  0  0  0  0
  9 29  1  0  0  0  0
  9 30  1  0  0  0  0
 10 31  1  0  0  0  0
 10 32  1  0  0  0  0
 11 33  1  0  0  0  0
 12 34  1  0  0  0  0
 12 35  1  0  0  0  0
 12 36  1  0  0  0  0
 13 37  1  0  0  0  0
 13 38  1  0  0  0  0
 13 39  1  0  0  0  0
 16 40  1  0  0  0  0
M  END
> <idnumber>
Z2782126055

> <heavy_atoms>
23

> <LogS>
-3.77

> <LogP>
1.483

> <rotating_bonds>
3

> <PSA>
66.48

> <hb_acceptors>
4

> <hb_donors>
1

> <Collection>
HTS

> <link>
https://www.enaminestore.com/catalog/Z2782126055

> <ROCS_ShapeQuery>
_x1140_x0812_0A_x1140_0A_x1097_0A_x0365_0A_x1097_0A_x0310_0A

> <ROCS_TanimotoCombo>
0.624 

> <ROCS_ShapeTanimoto>
0.263 

> <ROCS_ColorTanimoto>
0.361 

> <ROCS_RefTversky>
0.239 

> <ROCS_RefColorTversky>
0.470 

> <ROCS_RefTverskyCombo>
0.709 

> <ROCS_FitTversky>
1.642 

> <ROCS_FitColorTversky>
0.609 

> <ROCS_FitTverskyCombo>
2.251 

> <ROCS_ColorScore>
-3.714

> <ROCS_Overlap>
2453.014

> <ROCS_Rank>
472                 

$$$$
untitled-dbase-503857_41
  -OEChem-02092421083D

 36 37  0     0  0  0  0  0  0999 V2000
    8.9714   12.4036   24.3439 C   0  0  0  0  0  0  0  0  0  0  0  0
    8.0830   12.1141   25.3735 C   0  0  0  0  0  0  0  0  0  0  0  0
    8.8988   10.1133   23.7072 C   0  0  0  0  0  0  0  0  0  0  0  0
    9.3921   11.3898   23.4904 C   0  0  0  0  0  0  0  0  0  0  0  0
   12.1359   14.4928   22.1085 C   0  0  0  0  0  0  0  0  0  0  0  0
    7.6482   10.8052   25.5059 C   0  0  0  0  0  0  0  0  0  0  0  0
   12.9547   15.4094   22.7904 C   0  0  0  0  0  0  0  0  0  0  0  0
   11.0459   15.2380   21.7443 C   0  0  0  0  0  0  0  0  0  0  0  0
   10.3309   11.6633   22.3908 C   0  0  0  0  0  0  0  0  0  0  0  0
    6.6955   10.4582   26.6011 C   0  0  0  0  0  0  0  0  0  0  0  0
   14.2683   15.1670   23.4105 C   0  0  0  0  0  0  0  0  0  0  0  0
    9.8064   14.9424   21.0139 C   0  0  0  0  0  0  0  0  0  0  0  0
   12.1969   11.8410   23.9909 C   0  0  0  0  0  0  0  0  0  0  0  0
   12.3904   13.0378   21.8394 C   0  0  0  0  0  0  0  0  0  0  0  0
    8.0347    9.7937   24.6964 N   0  0  0  0  0  0  0  0  0  0  0  0
   12.4139   16.6299   22.8449 N   0  0  0  0  0  0  0  0  0  0  0  0
   11.5940   12.1736   22.7079 N   0  0  0  0  0  0  0  0  0  0  0  0
    9.9305   11.4054   21.2562 O   0  0  0  0  0  0  0  0  0  0  0  0
   11.2000   16.5152   22.1781 O   0  0  0  0  0  0  0  0  0  0  0  0
    9.3295   13.4215   24.2152 H   0  0  0  0  0  0  0  0  0  0  0  0
    7.7459   12.8956   26.0461 H   0  0  0  0  0  0  0  0  0  0  0  0
    9.1910    9.2804   23.0745 H   0  0  0  0  0  0  0  0  0  0  0  0
    5.6609   10.5694   26.2554 H   0  0  0  0  0  0  0  0  0  0  0  0
    6.8405    9.4251   26.9415 H   0  0  0  0  0  0  0  0  0  0  0  0
    6.8427   11.1051   27.4754 H   0  0  0  0  0  0  0  0  0  0  0  0
   15.0886   15.3457   22.6944 H   0  0  0  0  0  0  0  0  0  0  0  0
   14.4432   15.8184   24.2854 H   0  0  0  0  0  0  0  0  0  0  0  0
   14.3700   14.1310   23.7806 H   0  0  0  0  0  0  0  0  0  0  0  0
    9.0019   14.6162   21.6976 H   0  0  0  0  0  0  0  0  0  0  0  0
    9.4278   15.8186   20.4549 H   0  0  0  0  0  0  0  0  0  0  0  0
    9.9419   14.1437   20.2606 H   0  0  0  0  0  0  0  0  0  0  0  0
   12.7930   10.9221   23.8893 H   0  0  0  0  0  0  0  0  0  0  0  0
   12.8479   12.6663   24.3149 H   0  0  0  0  0  0  0  0  0  0  0  0
   11.4052   11.6835   24.7381 H   0  0  0  0  0  0  0  0  0  0  0  0
   12.1468   12.7889   20.8008 H   0  0  0  0  0  0  0  0  0  0  0  0
   13.4452   12.7881   21.9949 H   0  0  0  0  0  0  0  0  0  0  0  0
  1  2  2  0  0  0  0
  1  4  1  0  0  0  0
  2  6  1  0  0  0  0
  3  4  2  0  0  0  0
  3 15  1  0  0  0  0
  4  9  1  0  0  0  0
  5  7  1  0  0  0  0
  5  8  2  0  0  0  0
  5 14  1  0  0  0  0
  6 10  1  0  0  0  0
  6 15  2  0  0  0  0
  7 11  1  0  0  0  0
  7 16  2  0  0  0  0
  8 12  1  0  0  0  0
  8 19  1  0  0  0  0
  9 17  1  0  0  0  0
  9 18  2  0  0  0  0
 13 17  1  0  0  0  0
 14 17  1  0  0  0  0
 16 19  1  0  0  0  0
  1 20  1  0  0  0  0
  2 21  1  0  0  0  0
  3 22  1  0  0  0  0
 10 23  1  0  0  0  0
 10 24  1  0  0  0  0
 10 25  1  0  0  0  0
 11 26  1  0  0  0  0
 11 27  1  0  0  0  0
 11 28  1  0  0  0  0
 12 29  1  0  0  0  0
 12 30  1  0  0  0  0
 12 31  1  0  0  0  0
 13 32  1  0  0  0  0
 13 33  1  0  0  0  0
 13 34  1  0  0  0  0
 14 35  1  0  0  0  0
 14 36  1  0  0  0  0
M  END
> <idnumber>
Z383556364

> <heavy_atoms>
19

> <LogS>
-1.24

> <LogP>
0.61

> <rotating_bonds>
3

> <PSA>
59.23

> <hb_acceptors>
3

> <hb_donors>
0

> <Collection>
HTS

> <link>
https://www.enaminestore.com/catalog/Z383556364

> <ROCS_ShapeQuery>
_x1140_x0812_0A_x1140_0A_x1097_0A_x0365_0A_x1097_0A_x0310_0A

> <ROCS_TanimotoCombo>
0.624 

> <ROCS_ShapeTanimoto>
0.230 

> <ROCS_ColorTanimoto>
0.395 

> <ROCS_RefTversky>
0.211 

> <ROCS_RefColorTversky>
0.469 

> <ROCS_RefTverskyCombo>
0.680 

> <ROCS_FitTversky>
1.611 

> <ROCS_FitColorTversky>
0.714 

> <ROCS_FitTverskyCombo>
2.326 

> <ROCS_ColorScore>
-3.678

> <ROCS_Overlap>
2169.249

> <ROCS_Rank>
473                 

$$$$
untitled-dbase-1134229_153
  -OEChem-02092421083D

 46 49  0     0  0  0  0  0  0999 V2000
   12.5281   15.6827   23.1882 C   0  0  0  0  0  0  0  0  0  0  0  0
   13.4780   14.2259   26.0050 C   0  0  0  0  0  0  0  0  0  0  0  0
    8.3031   12.4524   23.9081 C   0  0  0  0  0  0  0  0  0  0  0  0
   14.5193   14.0145   26.9086 C   0  0  0  0  0  0  0  0  0  0  0  0
    7.3142   11.9725   24.7595 C   0  0  0  0  0  0  0  0  0  0  0  0
   15.9878   13.4330   25.0803 C   0  0  0  0  0  0  0  0  0  0  0  0
    9.1670   10.2421   23.7504 C   0  0  0  0  0  0  0  0  0  0  0  0
   13.6915   14.0408   24.6390 C   0  0  0  0  0  0  0  0  0  0  0  0
    9.2510   11.5772   23.3896 C   0  0  0  0  0  0  0  0  0  0  0  0
   15.7742   13.6181   26.4463 C   0  0  0  0  0  0  0  0  0  0  0  0
   14.9464   13.6444   24.1767 C   0  0  0  0  0  0  0  0  0  0  0  0
    7.3167   10.6197   25.0588 C   0  0  0  0  0  0  0  0  0  0  0  0
    4.3389   11.2015   28.3917 C   0  0  0  0  0  0  0  0  0  0  0  0
    4.2438   10.1637   27.2498 C   0  0  0  0  0  0  0  0  0  0  0  0
    5.7656   11.5138   27.8856 C   0  0  0  0  0  0  0  0  0  0  0  0
   11.0646   13.7861   24.0295 C   0  0  0  0  0  0  0  0  0  0  0  0
   12.3608   13.2723   22.4083 C   0  0  0  0  0  0  0  0  0  0  0  0
    5.2892   11.0197   26.5023 C   0  0  0  0  0  0  0  0  0  0  0  0
   10.8307   13.3694   22.5644 C   0  0  0  0  0  0  0  0  0  0  0  0
   12.4968   14.2836   23.6067 C   0  0  0  0  0  0  0  0  0  0  0  0
   12.5529   16.7940   22.8557 N   0  0  0  0  0  0  0  0  0  0  0  0
    8.2209    9.7390   24.5746 N   0  0  0  0  0  0  0  0  0  0  0  0
   10.2588   12.0308   22.5312 N   0  0  0  0  0  0  0  0  0  0  0  0
    6.3032   10.1465   25.9292 N   0  0  0  0  0  0  0  0  0  0  0  0
   16.7743   13.4151   27.3141 F   0  0  0  0  0  0  0  0  0  0  0  0
   15.1598   13.4644   22.8659 F   0  0  0  0  0  0  0  0  0  0  0  0
   12.5033   14.5346   26.3729 H   0  0  0  0  0  0  0  0  0  0  0  0
    8.3263   13.5090   23.6548 H   0  0  0  0  0  0  0  0  0  0  0  0
   14.3535   14.1584   27.9722 H   0  0  0  0  0  0  0  0  0  0  0  0
    6.5709   12.6485   25.1691 H   0  0  0  0  0  0  0  0  0  0  0  0
   16.9648   13.1245   24.7205 H   0  0  0  0  0  0  0  0  0  0  0  0
    9.8784    9.5111   23.3779 H   0  0  0  0  0  0  0  0  0  0  0  0
    3.6393   12.0389   28.2878 H   0  0  0  0  0  0  0  0  0  0  0  0
    4.2704   10.8012   29.4061 H   0  0  0  0  0  0  0  0  0  0  0  0
    4.5787    9.1614   27.5428 H   0  0  0  0  0  0  0  0  0  0  0  0
    3.2648   10.0843   26.7698 H   0  0  0  0  0  0  0  0  0  0  0  0
    6.0621   12.5647   27.9387 H   0  0  0  0  0  0  0  0  0  0  0  0
    6.5412   10.9003   28.3597 H   0  0  0  0  0  0  0  0  0  0  0  0
   10.3791   14.5518   24.4080 H   0  0  0  0  0  0  0  0  0  0  0  0
   11.0791   12.9589   24.7514 H   0  0  0  0  0  0  0  0  0  0  0  0
   12.7839   12.2803   22.6152 H   0  0  0  0  0  0  0  0  0  0  0  0
   12.7505   13.6111   21.4425 H   0  0  0  0  0  0  0  0  0  0  0  0
    4.9230   11.7439   25.8299 H   0  0  0  0  0  0  0  0  0  0  0  0
   10.3224   14.0538   21.9453 H   0  0  0  0  0  0  0  0  0  0  0  0
   10.6011   11.3561   21.8389 H   0  0  0  0  0  0  0  0  0  0  0  0
    6.3136    9.1694   26.1389 H   0  0  0  0  0  0  0  0  0  0  0  0
  1 20  1  0  0  0  0
  1 21  3  0  0  0  0
  2  4  2  0  0  0  0
  2  8  1  0  0  0  0
  3  5  2  0  0  0  0
  3  9  1  0  0  0  0
  4 10  1  0  0  0  0
  5 12  1  0  0  0  0
  6 10  2  0  0  0  0
  6 11  1  0  0  0  0
  7  9  2  0  0  0  0
  7 22  1  0  0  0  0
  8 11  2  0  0  0  0
  8 20  1  0  0  0  0
  9 23  1  0  0  0  0
 10 25  1  0  0  0  0
 11 26  1  0  0  0  0
 12 22  2  0  0  0  0
 12 24  1  0  0  0  0
 13 14  1  0  0  0  0
 13 15  1  0  0  0  0
 14 18  1  0  0  0  0
 15 18  1  0  0  0  0
 16 19  1  0  0  0  0
 16 20  1  0  0  0  0
 17 19  1  0  0  0  0
 17 20  1  0  0  0  0
 18 24  1  0  0  0  0
 19 23  1  0  0  0  0
  2 27  1  0  0  0  0
  3 28  1  0  0  0  0
  4 29  1  0  0  0  0
  5 30  1  0  0  0  0
  6 31  1  0  0  0  0
  7 32  1  0  0  0  0
 13 33  1  0  0  0  0
 13 34  1  0  0  0  0
 14 35  1  0  0  0  0
 14 36  1  0  0  0  0
 15 37  1  0  0  0  0
 15 38  1  0  0  0  0
 16 39  1  0  0  0  0
 16 40  1  0  0  0  0
 17 41  1  0  0  0  0
 17 42  1  0  0  0  0
 18 43  1  0  0  0  0
 19 44  1  0  0  0  0
 23 45  1  0  0  0  0
 24 46  1  0  0  0  0
M  END
> <idnumber>
Z6032156359

> <heavy_atoms>
26

> <LogS>
-4.016

> <LogP>
4.694

> <rotating_bonds>
5

> <PSA>
60.74

> <hb_acceptors>
4

> <hb_donors>
2

> <Collection>
Advanced

> <link>
https://www.enaminestore.com/catalog/Z6032156359

> <ROCS_ShapeQuery>
_x1140_x0812_0A_x1140_0A_x1097_0A_x0365_0A_x1097_0A_x0310_0A

> <ROCS_TanimotoCombo>
0.624 

> <ROCS_ShapeTanimoto>
0.235 

> <ROCS_ColorTanimoto>
0.389 

> <ROCS_RefTversky>
0.221 

> <ROCS_RefColorTversky>
0.560 

> <ROCS_RefTverskyCombo>
0.781 

> <ROCS_FitTversky>
1.375 

> <ROCS_FitColorTversky>
0.560 

> <ROCS_FitTverskyCombo>
1.936 

> <ROCS_ColorScore>
-4.482

> <ROCS_Overlap>
2272.407

> <ROCS_Rank>
474                 

$$$$
untitled-dbase-202012_10
  -OEChem-02092421083D

 43 45  0     0  0  0  0  0  0999 V2000
    5.3882   11.8429   25.6014 C   0  0  0  0  0  0  0  0  0  0  0  0
    6.8726   11.0379   27.3292 C   0  0  0  0  0  0  0  0  0  0  0  0
    4.4020   12.0796   26.5589 C   0  0  0  0  0  0  0  0  0  0  0  0
    5.8864   11.2747   28.2868 C   0  0  0  0  0  0  0  0  0  0  0  0
    9.0890   11.3274   23.4400 C   0  0  0  0  0  0  0  0  0  0  0  0
    6.6235   11.3220   25.9865 C   0  0  0  0  0  0  0  0  0  0  0  0
    4.6511   11.7955   27.9016 C   0  0  0  0  0  0  0  0  0  0  0  0
    8.9894    9.9949   23.8832 C   0  0  0  0  0  0  0  0  0  0  0  0
    8.1775   12.0128   24.2055 C   0  0  0  0  0  0  0  0  0  0  0  0
    9.9627   11.9104   22.3894 C   0  0  0  0  0  0  0  0  0  0  0  0
   13.0280   13.9761   22.6136 C   0  0  0  0  0  0  0  0  0  0  0  0
   11.0620   14.8052   21.2800 C   0  0  0  0  0  0  0  0  0  0  0  0
   12.8238   15.1830   23.5236 C   0  0  0  0  0  0  0  0  0  0  0  0
   10.9804   15.9698   22.2624 C   0  0  0  0  0  0  0  0  0  0  0  0
   11.7316   13.5788   21.9049 C   0  0  0  0  0  0  0  0  0  0  0  0
    9.7444    8.8240   23.4032 C   0  0  0  0  0  0  0  0  0  0  0  0
    7.8077   13.4434   24.2212 C   0  0  0  0  0  0  0  0  0  0  0  0
    8.0861    9.8408   24.8549 N   0  0  0  0  0  0  0  0  0  0  0  0
    7.6098   11.0854   25.0287 N   0  0  0  0  0  0  0  0  0  0  0  0
   10.8357   12.8987   22.8123 N   0  0  0  0  0  0  0  0  0  0  0  0
    9.8558   11.5138   21.2320 O   0  0  0  0  0  0  0  0  0  0  0  0
   12.2681   16.2767   22.7948 O   0  0  0  0  0  0  0  0  0  0  0  0
    3.7040   12.0229   28.8211 F   0  0  0  0  0  0  0  0  0  0  0  0
    5.1801   12.0683   24.5582 H   0  0  0  0  0  0  0  0  0  0  0  0
    7.8314   10.6326   27.6433 H   0  0  0  0  0  0  0  0  0  0  0  0
    3.4397   12.4843   26.2594 H   0  0  0  0  0  0  0  0  0  0  0  0
    6.0800   11.0546   29.3325 H   0  0  0  0  0  0  0  0  0  0  0  0
   13.7645   14.2426   21.8444 H   0  0  0  0  0  0  0  0  0  0  0  0
   13.4466   13.1349   23.1777 H   0  0  0  0  0  0  0  0  0  0  0  0
   10.0673   14.5601   20.8905 H   0  0  0  0  0  0  0  0  0  0  0  0
   11.6711   15.1194   20.4224 H   0  0  0  0  0  0  0  0  0  0  0  0
   12.1757   14.9425   24.3746 H   0  0  0  0  0  0  0  0  0  0  0  0
   13.7877   15.5086   23.9275 H   0  0  0  0  0  0  0  0  0  0  0  0
   10.6115   16.8628   21.7478 H   0  0  0  0  0  0  0  0  0  0  0  0
   10.2875   15.7545   23.0840 H   0  0  0  0  0  0  0  0  0  0  0  0
   11.9608   12.8467   21.1136 H   0  0  0  0  0  0  0  0  0  0  0  0
   10.6762    8.6863   23.9775 H   0  0  0  0  0  0  0  0  0  0  0  0
    9.1610    7.8900   23.4860 H   0  0  0  0  0  0  0  0  0  0  0  0
   10.0201    8.9148   22.3376 H   0  0  0  0  0  0  0  0  0  0  0  0
    6.9817   13.6463   23.5210 H   0  0  0  0  0  0  0  0  0  0  0  0
    7.4888   13.7757   25.2232 H   0  0  0  0  0  0  0  0  0  0  0  0
    8.6547   14.0911   23.9392 H   0  0  0  0  0  0  0  0  0  0  0  0
   10.8246   13.2197   23.7740 H   0  0  0  0  0  0  0  0  0  0  0  0
  1  3  2  0  0  0  0
  1  6  1  0  0  0  0
  2  4  1  0  0  0  0
  2  6  2  0  0  0  0
  3  7  1  0  0  0  0
  4  7  2  0  0  0  0
  5  8  1  0  0  0  0
  5  9  2  0  0  0  0
  5 10  1  0  0  0  0
  6 19  1  0  0  0  0
  7 23  1  0  0  0  0
  8 16  1  0  0  0  0
  8 18  2  0  0  0  0
  9 17  1  0  0  0  0
  9 19  1  0  0  0  0
 10 20  1  0  0  0  0
 10 21  2  0  0  0  0
 11 13  1  0  0  0  0
 11 15  1  0  0  0  0
 12 14  1  0  0  0  0
 12 15  1  0  0  0  0
 13 22  1  0  0  0  0
 14 22  1  0  0  0  0
 15 20  1  0  0  0  0
 18 19  1  0  0  0  0
  1 24  1  0  0  0  0
  2 25  1  0  0  0  0
  3 26  1  0  0  0  0
  4 27  1  0  0  0  0
 11 28  1  0  0  0  0
 11 29  1  0  0  0  0
 12 30  1  0  0  0  0
 12 31  1  0  0  0  0
 13 32  1  0  0  0  0
 13 33  1  0  0  0  0
 14 34  1  0  0  0  0
 14 35  1  0  0  0  0
 15 36  1  0  0  0  0
 16 37  1  0  0  0  0
 16 38  1  0  0  0  0
 16 39  1  0  0  0  0
 17 40  1  0  0  0  0
 17 41  1  0  0  0  0
 17 42  1  0  0  0  0
 20 43  1  0  0  0  0
M  END
> <idnumber>
Z757505124

> <heavy_atoms>
23

> <LogS>
-3.053

> <LogP>
0.984

> <rotating_bonds>
3

> <PSA>
56.15

> <hb_acceptors>
3

> <hb_donors>
1

> <Collection>
HTS

> <link>
https://www.enaminestore.com/catalog/Z757505124

> <ROCS_ShapeQuery>
_x1140_x0812_0A_x1140_0A_x1097_0A_x0365_0A_x1097_0A_x0310_0A

> <ROCS_TanimotoCombo>
0.624 

> <ROCS_ShapeTanimoto>
0.280 

> <ROCS_ColorTanimoto>
0.344 

> <ROCS_RefTversky>
0.252 

> <ROCS_RefColorTversky>
0.483 

> <ROCS_RefTverskyCombo>
0.734 

> <ROCS_FitTversky>
1.689 

> <ROCS_FitColorTversky>
0.544 

> <ROCS_FitTverskyCombo>
2.233 

> <ROCS_ColorScore>
-3.838

> <ROCS_Overlap>
2585.621

> <ROCS_Rank>
475                 

$$$$
untitled-dbase-58074_47
  -OEChem-02092421083D

 25 25  0     0  0  0  0  0  0999 V2000
    7.1836   11.7369   25.0009 C   0  0  0  0  0  0  0  0  0  0  0  0
    7.1988   10.3781   25.2265 C   0  0  0  0  0  0  0  0  0  0  0  0
    8.9946   11.5281   23.6203 C   0  0  0  0  0  0  0  0  0  0  0  0
    9.0104   10.1694   23.8464 C   0  0  0  0  0  0  0  0  0  0  0  0
    9.9743   12.2088   22.7349 C   0  0  0  0  0  0  0  0  0  0  0  0
   11.4737   15.4349   22.6292 C   0  0  0  0  0  0  0  0  0  0  0  0
    9.8144   17.1164   22.7520 C   0  0  0  0  0  0  0  0  0  0  0  0
   11.7388   13.9480   22.6020 C   0  0  0  0  0  0  0  0  0  0  0  0
    8.0812   12.3363   24.1937 N   0  0  0  0  0  0  0  0  0  0  0  0
    8.1125    9.5699   24.6533 N   0  0  0  0  0  0  0  0  0  0  0  0
    9.9932    9.3746   23.2143 N   0  0  0  0  0  0  0  0  0  0  0  0
   10.7651   13.1868   23.3304 N   0  0  0  0  0  0  0  0  0  0  0  0
   10.0251   11.9003   21.5472 O   0  0  0  0  0  0  0  0  0  0  0  0
   12.3793   16.2606   22.5747 O   0  0  0  0  0  0  0  0  0  0  0  0
   10.1466   15.7243   22.7199 O   0  0  0  0  0  0  0  0  0  0  0  0
    6.4499   12.3863   25.4624 H   0  0  0  0  0  0  0  0  0  0  0  0
    6.4759    9.8974   25.8742 H   0  0  0  0  0  0  0  0  0  0  0  0
    8.7302   17.2314   22.8252 H   0  0  0  0  0  0  0  0  0  0  0  0
   10.1824   17.6007   21.8440 H   0  0  0  0  0  0  0  0  0  0  0  0
   10.2868   17.5745   23.6241 H   0  0  0  0  0  0  0  0  0  0  0  0
   12.7147   13.7533   23.0543 H   0  0  0  0  0  0  0  0  0  0  0  0
   11.7194   13.5996   21.5663 H   0  0  0  0  0  0  0  0  0  0  0  0
   10.6299    9.8061   22.5774 H   0  0  0  0  0  0  0  0  0  0  0  0
    9.9726    8.3846   23.3431 H   0  0  0  0  0  0  0  0  0  0  0  0
   10.6155   13.4259   24.3103 H   0  0  0  0  0  0  0  0  0  0  0  0
  1  2  1  0  0  0  0
  1  9  2  0  0  0  0
  2 10  2  0  0  0  0
  3  4  2  0  0  0  0
  3  5  1  0  0  0  0
  3  9  1  0  0  0  0
  4 10  1  0  0  0  0
  4 11  1  0  0  0  0
  5 12  1  0  0  0  0
  5 13  2  0  0  0  0
  6  8  1  0  0  0  0
  6 14  2  0  0  0  0
  6 15  1  0  0  0  0
  7 15  1  0  0  0  0
  8 12  1  0  0  0  0
  1 16  1  0  0  0  0
  2 17  1  0  0  0  0
  7 18  1  0  0  0  0
  7 19  1  0  0  0  0
  7 20  1  0  0  0  0
  8 21  1  0  0  0  0
  8 22  1  0  0  0  0
 11 23  1  0  0  0  0
 11 24  1  0  0  0  0
 12 25  1  0  0  0  0
M  END
> <idnumber>
Z225301984

> <heavy_atoms>
15

> <LogS>
-0.365

> <LogP>
-0.076

> <rotating_bonds>
4

> <PSA>
107.2

> <hb_acceptors>
5

> <hb_donors>
2

> <Collection>
HTS

> <link>
https://www.enaminestore.com/catalog/Z225301984

> <ROCS_ShapeQuery>
_x1140_x0812_0A_x1140_0A_x1097_0A_x0365_0A_x1097_0A_x0310_0A

> <ROCS_TanimotoCombo>
0.624 

> <ROCS_ShapeTanimoto>
0.232 

> <ROCS_ColorTanimoto>
0.392 

> <ROCS_RefTversky>
0.210 

> <ROCS_RefColorTversky>
0.564 

> <ROCS_RefTverskyCombo>
0.774 

> <ROCS_FitTversky>
1.840 

> <ROCS_FitColorTversky>
0.563 

> <ROCS_FitTverskyCombo>
2.403 

> <ROCS_ColorScore>
-4.509

> <ROCS_Overlap>
2153.270

> <ROCS_Rank>
476                 

$$$$
untitled-dbase-59800_4
  -OEChem-02092421083D

 27 28  0     0  0  0  0  0  0999 V2000
    7.5013   12.0556   25.3048 C   0  0  0  0  0  0  0  0  0  0  0  0
    8.2990   12.6110   24.3105 C   0  0  0  0  0  0  0  0  0  0  0  0
    7.5526   10.6829   25.4861 C   0  0  0  0  0  0  0  0  0  0  0  0
    9.1121   11.7883   23.5389 C   0  0  0  0  0  0  0  0  0  0  0  0
    9.0914   10.4276   23.7994 C   0  0  0  0  0  0  0  0  0  0  0  0
    9.9569   12.3678   22.4861 C   0  0  0  0  0  0  0  0  0  0  0  0
   10.7203   14.3098   23.9505 C   0  0  0  0  0  0  0  0  0  0  0  0
   10.5937   14.5451   21.5026 C   0  0  0  0  0  0  0  0  0  0  0  0
   12.0679   15.0193   23.8920 C   0  0  0  0  0  0  0  0  0  0  0  0
   11.9501   15.2334   21.5475 C   0  0  0  0  0  0  0  0  0  0  0  0
    8.3298    9.8516   24.7564 N   0  0  0  0  0  0  0  0  0  0  0  0
   10.4269   13.6704   22.6621 N   0  0  0  0  0  0  0  0  0  0  0  0
   10.1838   11.6505   21.5127 O   0  0  0  0  0  0  0  0  0  0  0  0
   12.1091   15.9270   22.7881 O   0  0  0  0  0  0  0  0  0  0  0  0
    9.8780    9.5813   23.0614 O   0  0  0  0  0  0  0  0  0  0  0  0
    6.8605   12.6772   25.9196 H   0  0  0  0  0  0  0  0  0  0  0  0
    8.2791   13.6850   24.1456 H   0  0  0  0  0  0  0  0  0  0  0  0
    6.9505   10.2001   26.2488 H   0  0  0  0  0  0  0  0  0  0  0  0
   10.7083   13.5927   24.7747 H   0  0  0  0  0  0  0  0  0  0  0  0
    9.9191   15.0384   24.1221 H   0  0  0  0  0  0  0  0  0  0  0  0
    9.7893   15.2882   21.5566 H   0  0  0  0  0  0  0  0  0  0  0  0
   10.4767   13.9852   20.5698 H   0  0  0  0  0  0  0  0  0  0  0  0
   12.2206   15.6025   24.8056 H   0  0  0  0  0  0  0  0  0  0  0  0
   12.8950   14.3039   23.8125 H   0  0  0  0  0  0  0  0  0  0  0  0
   12.7708   14.5182   21.4152 H   0  0  0  0  0  0  0  0  0  0  0  0
   12.0196   15.9722   20.7429 H   0  0  0  0  0  0  0  0  0  0  0  0
    9.7509    8.6713   23.3630 H   0  0  0  0  0  0  0  0  0  0  0  0
  1  2  2  0  0  0  0
  1  3  1  0  0  0  0
  2  4  1  0  0  0  0
  3 11  2  0  0  0  0
  4  5  2  0  0  0  0
  4  6  1  0  0  0  0
  5 11  1  0  0  0  0
  5 15  1  0  0  0  0
  6 12  1  0  0  0  0
  6 13  2  0  0  0  0
  7  9  1  0  0  0  0
  7 12  1  0  0  0  0
  8 10  1  0  0  0  0
  8 12  1  0  0  0  0
  9 14  1  0  0  0  0
 10 14  1  0  0  0  0
  1 16  1  0  0  0  0
  2 17  1  0  0  0  0
  3 18  1  0  0  0  0
  7 19  1  0  0  0  0
  7 20  1  0  0  0  0
  8 21  1  0  0  0  0
  8 22  1  0  0  0  0
  9 23  1  0  0  0  0
  9 24  1  0  0  0  0
 10 25  1  0  0  0  0
 10 26  1  0  0  0  0
 15 27  1  0  0  0  0
M  END
> <idnumber>
Z183111096

> <heavy_atoms>
15

> <LogS>
-1.187

> <LogP>
0.04

> <rotating_bonds>
1

> <PSA>
62.66

> <hb_acceptors>
4

> <hb_donors>
1

> <Collection>
HTS

> <link>
https://www.enaminestore.com/catalog/Z183111096

> <ROCS_ShapeQuery>
_x1140_x0812_0A_x1140_0A_x1097_0A_x0365_0A_x1097_0A_x0310_0A

> <ROCS_TanimotoCombo>
0.624 

> <ROCS_ShapeTanimoto>
0.233 

> <ROCS_ColorTanimoto>
0.391 

> <ROCS_RefTversky>
0.211 

> <ROCS_RefColorTversky>
0.531 

> <ROCS_RefTverskyCombo>
0.742 

> <ROCS_FitTversky>
1.835 

> <ROCS_FitColorTversky>
0.598 

> <ROCS_FitTverskyCombo>
2.433 

> <ROCS_ColorScore>
-4.222

> <ROCS_Overlap>
2160.407

> <ROCS_Rank>
477                 

$$$$
untitled-dbase-1101912_1
  -OEChem-02092421083D

 19 19  0     0  0  0  0  0  0999 V2000
    8.2843   12.4292   24.0949 C   0  0  0  0  0  0  0  0  0  0  0  0
    7.4253   10.6593   25.4314 C   0  0  0  0  0  0  0  0  0  0  0  0
    9.1020   11.5063   23.4523 C   0  0  0  0  0  0  0  0  0  0  0  0
    7.4271   12.0057   25.1044 C   0  0  0  0  0  0  0  0  0  0  0  0
    9.0254   10.1823   23.8533 C   0  0  0  0  0  0  0  0  0  0  0  0
   10.0016   11.9415   22.3952 C   0  0  0  0  0  0  0  0  0  0  0  0
   11.9173   13.4421   21.7937 C   0  0  0  0  0  0  0  0  0  0  0  0
    8.2051    9.7333   24.8297 N   0  0  0  0  0  0  0  0  0  0  0  0
   10.9683   12.8944   22.7362 N   0  0  0  0  0  0  0  0  0  0  0  0
    9.8857   11.4897   21.2423 O   0  0  0  0  0  0  0  0  0  0  0  0
    9.8148    9.2405   23.2455 O   0  0  0  0  0  0  0  0  0  0  0  0
    6.4039   13.1149   25.9194 Cl  0  0  0  0  0  0  0  0  0  0  0  0
    8.3168   13.4777   23.8074 H   0  0  0  0  0  0  0  0  0  0  0  0
    6.7789   10.2661   26.2103 H   0  0  0  0  0  0  0  0  0  0  0  0
   12.8529   12.8653   21.8376 H   0  0  0  0  0  0  0  0  0  0  0  0
   11.4992   13.3855   20.7778 H   0  0  0  0  0  0  0  0  0  0  0  0
   12.1219   14.4925   22.0480 H   0  0  0  0  0  0  0  0  0  0  0  0
   10.9786   13.2765   23.6762 H   0  0  0  0  0  0  0  0  0  0  0  0
   10.3604    9.6608   22.5665 H   0  0  0  0  0  0  0  0  0  0  0  0
  1  3  1  0  0  0  0
  1  4  2  0  0  0  0
  2  4  1  0  0  0  0
  2  8  2  0  0  0  0
  3  5  2  0  0  0  0
  3  6  1  0  0  0  0
  4 12  1  0  0  0  0
  5  8  1  0  0  0  0
  5 11  1  0  0  0  0
  6  9  1  0  0  0  0
  6 10  2  0  0  0  0
  7  9  1  0  0  0  0
  1 13  1  0  0  0  0
  2 14  1  0  0  0  0
  7 15  1  0  0  0  0
  7 16  1  0  0  0  0
  7 17  1  0  0  0  0
  9 18  1  0  0  0  0
 11 19  1  0  0  0  0
M  END
> <idnumber>
Z4879052225

> <heavy_atoms>
12

> <LogS>
-1.36

> <LogP>
2.17

> <rotating_bonds>
1

> <PSA>
62.22

> <hb_acceptors>
3

> <hb_donors>
2

> <Collection>
Advanced

> <link>
https://www.enaminestore.com/catalog/Z4879052225

> <ROCS_ShapeQuery>
_x1140_x0812_0A_x1140_0A_x1097_0A_x0365_0A_x1097_0A_x0310_0A

> <ROCS_TanimotoCombo>
0.624 

> <ROCS_ShapeTanimoto>
0.230 

> <ROCS_ColorTanimoto>
0.394 

> <ROCS_RefTversky>
0.206 

> <ROCS_RefColorTversky>
0.502 

> <ROCS_RefTverskyCombo>
0.707 

> <ROCS_FitTversky>
2.041 

> <ROCS_FitColorTversky>
0.649 

> <ROCS_FitTverskyCombo>
2.690 

> <ROCS_ColorScore>
-3.963

> <ROCS_Overlap>
2107.458

> <ROCS_Rank>
478                 

$$$$
untitled-dbase-805379_1
  -OEChem-02092421083D

 30 31  0     0  0  0  0  0  0999 V2000
    8.6401   12.6384   24.2770 C   0  0  0  0  0  0  0  0  0  0  0  0
    7.6401   12.1690   25.1214 C   0  0  0  0  0  0  0  0  0  0  0  0
   13.5098   14.5428   20.0312 C   0  0  0  0  0  0  0  0  0  0  0  0
   13.6771   13.1897   19.8345 C   0  0  0  0  0  0  0  0  0  0  0  0
   12.4793   14.8231   20.9745 C   0  0  0  0  0  0  0  0  0  0  0  0
    9.4360   11.7349   23.5816 C   0  0  0  0  0  0  0  0  0  0  0  0
   11.8981   13.6734   21.4627 C   0  0  0  0  0  0  0  0  0  0  0  0
    9.1934   10.3830   23.7638 C   0  0  0  0  0  0  0  0  0  0  0  0
    7.4778   10.7976   25.2344 C   0  0  0  0  0  0  0  0  0  0  0  0
   10.8097   13.5234   22.4438 C   0  0  0  0  0  0  0  0  0  0  0  0
   11.9118   17.6668   23.1991 C   0  0  0  0  0  0  0  0  0  0  0  0
   12.0892   16.1970   21.3740 C   0  0  0  0  0  0  0  0  0  0  0  0
    8.2314    9.8893   24.5752 N   0  0  0  0  0  0  0  0  0  0  0  0
   10.4425   12.1929   22.7320 N   0  0  0  0  0  0  0  0  0  0  0  0
   10.2583   14.5074   22.9323 O   0  0  0  0  0  0  0  0  0  0  0  0
    9.9567    9.4580   23.0994 O   0  0  0  0  0  0  0  0  0  0  0  0
   12.2755   16.3608   22.7774 O   0  0  0  0  0  0  0  0  0  0  0  0
   12.5946   12.2636   20.7847 S   0  0  0  0  0  0  0  0  0  0  0  0
    6.1235   10.1335   26.3887 Br  0  0  0  0  0  0  0  0  0  0  0  0
    8.7916   13.7094   24.1701 H   0  0  0  0  0  0  0  0  0  0  0  0
    7.0188   12.8703   25.6686 H   0  0  0  0  0  0  0  0  0  0  0  0
   14.1013   15.2919   19.5201 H   0  0  0  0  0  0  0  0  0  0  0  0
   14.3832   12.7008   19.1783 H   0  0  0  0  0  0  0  0  0  0  0  0
   12.0663   17.7587   24.2770 H   0  0  0  0  0  0  0  0  0  0  0  0
   10.8629   17.8511   22.9535 H   0  0  0  0  0  0  0  0  0  0  0  0
   12.5389   18.3955   22.6801 H   0  0  0  0  0  0  0  0  0  0  0  0
   12.6902   16.9605   20.8547 H   0  0  0  0  0  0  0  0  0  0  0  0
   11.0331   16.4032   21.1377 H   0  0  0  0  0  0  0  0  0  0  0  0
   10.9876   11.4660   22.2537 H   0  0  0  0  0  0  0  0  0  0  0  0
    9.6644    8.5659   23.3320 H   0  0  0  0  0  0  0  0  0  0  0  0
  1  2  2  0  0  0  0
  1  6  1  0  0  0  0
  2  9  1  0  0  0  0
  3  4  2  0  0  0  0
  3  5  1  0  0  0  0
  4 18  1  0  0  0  0
  5  7  2  0  0  0  0
  5 12  1  0  0  0  0
  6  8  2  0  0  0  0
  6 14  1  0  0  0  0
  7 10  1  0  0  0  0
  7 18  1  0  0  0  0
  8 13  1  0  0  0  0
  8 16  1  0  0  0  0
  9 13  2  0  0  0  0
  9 19  1  0  0  0  0
 10 14  1  0  0  0  0
 10 15  2  0  0  0  0
 11 17  1  0  0  0  0
 12 17  1  0  0  0  0
  1 20  1  0  0  0  0
  2 21  1  0  0  0  0
  3 22  1  0  0  0  0
  4 23  1  0  0  0  0
 11 24  1  0  0  0  0
 11 25  1  0  0  0  0
 11 26  1  0  0  0  0
 12 27  1  0  0  0  0
 12 28  1  0  0  0  0
 14 29  1  0  0  0  0
 16 30  1  0  0  0  0
M  END
> <idnumber>
Z1842828621

> <heavy_atoms>
19

> <LogS>
-3.91

> <LogP>
2.669

> <rotating_bonds>
4

> <PSA>
71.45

> <hb_acceptors>
4

> <hb_donors>
2

> <Collection>
Legacy

> <link>
https://www.enaminestore.com/catalog/Z1842828621

> <ROCS_ShapeQuery>
_x1140_x0812_0A_x1140_0A_x1097_0A_x0365_0A_x1097_0A_x0310_0A

> <ROCS_TanimotoCombo>
0.624 

> <ROCS_ShapeTanimoto>
0.235 

> <ROCS_ColorTanimoto>
0.390 

> <ROCS_RefTversky>
0.215 

> <ROCS_RefColorTversky>
0.592 

> <ROCS_RefTverskyCombo>
0.807 

> <ROCS_FitTversky>
1.667 

> <ROCS_FitColorTversky>
0.532 

> <ROCS_FitTverskyCombo>
2.199 

> <ROCS_ColorScore>
-4.769

> <ROCS_Overlap>
2201.830

> <ROCS_Rank>
479                 

$$$$
untitled-dbase-802958_100
  -OEChem-02092421083D

 39 41  0     0  0  0  0  0  0999 V2000
    8.0763   14.0271   25.8396 C   0  0  0  0  0  0  0  0  0  0  0  0
    7.2480   13.1706   26.5542 C   0  0  0  0  0  0  0  0  0  0  0  0
    8.8253   13.5304   24.7767 C   0  0  0  0  0  0  0  0  0  0  0  0
    7.1705   11.8202   26.2046 C   0  0  0  0  0  0  0  0  0  0  0  0
   13.6620   16.0897   23.4592 C   0  0  0  0  0  0  0  0  0  0  0  0
   13.7885   14.8059   22.9914 C   0  0  0  0  0  0  0  0  0  0  0  0
    8.7472   12.1720   24.4253 C   0  0  0  0  0  0  0  0  0  0  0  0
    9.3909   10.2997   23.0379 C   0  0  0  0  0  0  0  0  0  0  0  0
    7.9082   11.2967   25.1463 C   0  0  0  0  0  0  0  0  0  0  0  0
    9.4902   11.6456   23.3600 C   0  0  0  0  0  0  0  0  0  0  0  0
    8.5437    9.5218   23.8006 C   0  0  0  0  0  0  0  0  0  0  0  0
   11.7256   12.3276   22.4220 C   0  0  0  0  0  0  0  0  0  0  0  0
    8.3897    8.0644   23.5102 C   0  0  0  0  0  0  0  0  0  0  0  0
   11.3772    8.9124   22.3926 C   0  0  0  0  0  0  0  0  0  0  0  0
   10.1686    9.7088   21.9092 C   0  0  0  0  0  0  0  0  0  0  0  0
   12.2578   13.4257   21.5199 C   0  0  0  0  0  0  0  0  0  0  0  0
   12.4913   16.6308   23.0053 N   0  0  0  0  0  0  0  0  0  0  0  0
    7.8099    9.9902   24.8360 N   0  0  0  0  0  0  0  0  0  0  0  0
   11.8788   15.7147   22.2633 N   0  0  0  0  0  0  0  0  0  0  0  0
   12.6582   14.6212   22.2563 N   0  0  0  0  0  0  0  0  0  0  0  0
   10.3433   12.4592   22.6007 N   0  0  0  0  0  0  0  0  0  0  0  0
   12.4524   11.4640   22.9021 O   0  0  0  0  0  0  0  0  0  0  0  0
    8.1404   15.0767   26.1096 H   0  0  0  0  0  0  0  0  0  0  0  0
    6.6595   13.5500   27.3844 H   0  0  0  0  0  0  0  0  0  0  0  0
    9.4659   14.2237   24.2370 H   0  0  0  0  0  0  0  0  0  0  0  0
    6.5147   11.1696   26.7805 H   0  0  0  0  0  0  0  0  0  0  0  0
   14.3418   16.6442   24.0882 H   0  0  0  0  0  0  0  0  0  0  0  0
   14.5471   14.0459   23.1129 H   0  0  0  0  0  0  0  0  0  0  0  0
    9.1238    7.4843   24.0810 H   0  0  0  0  0  0  0  0  0  0  0  0
    7.3847    7.7124   23.7729 H   0  0  0  0  0  0  0  0  0  0  0  0
    8.5325    7.8563   22.4427 H   0  0  0  0  0  0  0  0  0  0  0  0
   12.0410    9.5358   23.0014 H   0  0  0  0  0  0  0  0  0  0  0  0
   11.9540    8.5314   21.5440 H   0  0  0  0  0  0  0  0  0  0  0  0
   11.0663    8.0575   23.0026 H   0  0  0  0  0  0  0  0  0  0  0  0
    9.5243    9.0535   21.3020 H   0  0  0  0  0  0  0  0  0  0  0  0
   10.5091   10.5004   21.2231 H   0  0  0  0  0  0  0  0  0  0  0  0
   13.1306   13.0608   20.9663 H   0  0  0  0  0  0  0  0  0  0  0  0
   11.4894   13.7161   20.7943 H   0  0  0  0  0  0  0  0  0  0  0  0
    9.8999   13.2450   22.1175 H   0  0  0  0  0  0  0  0  0  0  0  0
  1  2  1  0  0  0  0
  1  3  2  0  0  0  0
  2  4  2  0  0  0  0
  3  7  1  0  0  0  0
  4  9  1  0  0  0  0
  5  6  2  0  0  0  0
  5 17  1  0  0  0  0
  6 20  1  0  0  0  0
  7  9  2  0  0  0  0
  7 10  1  0  0  0  0
  8 10  2  0  0  0  0
  8 11  1  0  0  0  0
  8 15  1  0  0  0  0
  9 18  1  0  0  0  0
 10 21  1  0  0  0  0
 11 13  1  0  0  0  0
 11 18  2  0  0  0  0
 12 16  1  0  0  0  0
 12 21  1  0  0  0  0
 12 22  2  0  0  0  0
 14 15  1  0  0  0  0
 16 20  1  0  0  0  0
 17 19  2  0  0  0  0
 19 20  1  0  0  0  0
  1 23  1  0  0  0  0
  2 24  1  0  0  0  0
  3 25  1  0  0  0  0
  4 26  1  0  0  0  0
  5 27  1  0  0  0  0
  6 28  1  0  0  0  0
 13 29  1  0  0  0  0
 13 30  1  0  0  0  0
 13 31  1  0  0  0  0
 14 32  1  0  0  0  0
 14 33  1  0  0  0  0
 14 34  1  0  0  0  0
 15 35  1  0  0  0  0
 15 36  1  0  0  0  0
 16 37  1  0  0  0  0
 16 38  1  0  0  0  0
 21 39  1  0  0  0  0
M  END
> <idnumber>
Z1779525559

> <heavy_atoms>
22

> <LogS>
-2.87

> <LogP>
1.892

> <rotating_bonds>
4

> <PSA>
72.7

> <hb_acceptors>
4

> <hb_donors>
1

> <Collection>
HTS

> <link>
https://www.enaminestore.com/catalog/Z1779525559

> <ROCS_ShapeQuery>
_x1140_x0812_0A_x1140_0A_x1097_0A_x0365_0A_x1097_0A_x0310_0A

> <ROCS_TanimotoCombo>
0.624 

> <ROCS_ShapeTanimoto>
0.275 

> <ROCS_ColorTanimoto>
0.349 

> <ROCS_RefTversky>
0.247 

> <ROCS_RefColorTversky>
0.557 

> <ROCS_RefTverskyCombo>
0.804 

> <ROCS_FitTversky>
1.690 

> <ROCS_FitColorTversky>
0.484 

> <ROCS_FitTverskyCombo>
2.174 

> <ROCS_ColorScore>
-4.490

> <ROCS_Overlap>
2539.273

> <ROCS_Rank>
480                 

$$$$
untitled-dbase-502852_97
  -OEChem-02092421083D

 33 34  0     0  0  0  0  0  0999 V2000
    8.6536   12.6083   24.2582 C   0  0  0  0  0  0  0  0  0  0  0  0
    7.7591   12.1832   25.2341 C   0  0  0  0  0  0  0  0  0  0  0  0
   10.2903   15.7136   21.6494 C   0  0  0  0  0  0  0  0  0  0  0  0
    9.0996   10.3286   23.7478 C   0  0  0  0  0  0  0  0  0  0  0  0
    9.3407   11.6697   23.4965 C   0  0  0  0  0  0  0  0  0  0  0  0
    7.5887   10.8191   25.4075 C   0  0  0  0  0  0  0  0  0  0  0  0
   11.5057   15.2141   22.1484 C   0  0  0  0  0  0  0  0  0  0  0  0
   10.2664   17.0107   22.0888 C   0  0  0  0  0  0  0  0  0  0  0  0
   10.2935   12.0868   22.4555 C   0  0  0  0  0  0  0  0  0  0  0  0
    9.3095   18.1147   21.9456 C   0  0  0  0  0  0  0  0  0  0  0  0
   11.9442   12.7093   24.1764 C   0  0  0  0  0  0  0  0  0  0  0  0
   12.0710   13.8333   21.9812 C   0  0  0  0  0  0  0  0  0  0  0  0
    6.6376   10.3272   26.4472 C   0  0  0  0  0  0  0  0  0  0  0  0
    8.2383    9.8775   24.6870 N   0  0  0  0  0  0  0  0  0  0  0  0
   12.1837   16.1313   22.8440 N   0  0  0  0  0  0  0  0  0  0  0  0
   11.3961   12.8589   22.8357 N   0  0  0  0  0  0  0  0  0  0  0  0
   10.0500   11.7067   21.3108 O   0  0  0  0  0  0  0  0  0  0  0  0
   11.3910   17.2720   22.8029 O   0  0  0  0  0  0  0  0  0  0  0  0
    6.0178   11.3287   27.1383 F   0  0  0  0  0  0  0  0  0  0  0  0
    5.6253    9.5622   25.9427 F   0  0  0  0  0  0  0  0  0  0  0  0
    7.2474    9.5531   27.3910 F   0  0  0  0  0  0  0  0  0  0  0  0
    8.8077   13.6722   24.0992 H   0  0  0  0  0  0  0  0  0  0  0  0
    7.2157   12.9046   25.8349 H   0  0  0  0  0  0  0  0  0  0  0  0
    9.5418   15.2066   21.0584 H   0  0  0  0  0  0  0  0  0  0  0  0
    9.6063    9.5493   23.1862 H   0  0  0  0  0  0  0  0  0  0  0  0
    8.5699   18.1192   22.7670 H   0  0  0  0  0  0  0  0  0  0  0  0
    9.8043   19.1044   21.9440 H   0  0  0  0  0  0  0  0  0  0  0  0
    8.7446   18.0628   20.9955 H   0  0  0  0  0  0  0  0  0  0  0  0
   12.7203   11.9298   24.1709 H   0  0  0  0  0  0  0  0  0  0  0  0
   12.3853   13.6634   24.5007 H   0  0  0  0  0  0  0  0  0  0  0  0
   11.1410   12.4219   24.8709 H   0  0  0  0  0  0  0  0  0  0  0  0
   11.9706   13.4981   20.9431 H   0  0  0  0  0  0  0  0  0  0  0  0
   13.1377   13.8128   22.2279 H   0  0  0  0  0  0  0  0  0  0  0  0
  1  2  2  0  0  0  0
  1  5  1  0  0  0  0
  2  6  1  0  0  0  0
  3  7  1  0  0  0  0
  3  8  2  0  0  0  0
  4  5  2  0  0  0  0
  4 14  1  0  0  0  0
  5  9  1  0  0  0  0
  6 13  1  0  0  0  0
  6 14  2  0  0  0  0
  7 12  1  0  0  0  0
  7 15  2  0  0  0  0
  8 10  1  0  0  0  0
  8 18  1  0  0  0  0
  9 16  1  0  0  0  0
  9 17  2  0  0  0  0
 11 16  1  0  0  0  0
 12 16  1  0  0  0  0
 13 19  1  0  0  0  0
 13 20  1  0  0  0  0
 13 21  1  0  0  0  0
 15 18  1  0  0  0  0
  1 22  1  0  0  0  0
  2 23  1  0  0  0  0
  3 24  1  0  0  0  0
  4 25  1  0  0  0  0
 10 26  1  0  0  0  0
 10 27  1  0  0  0  0
 10 28  1  0  0  0  0
 11 29  1  0  0  0  0
 11 30  1  0  0  0  0
 11 31  1  0  0  0  0
 12 32  1  0  0  0  0
 12 33  1  0  0  0  0
M  END
> <idnumber>
Z383487260

> <heavy_atoms>
21

> <LogS>
-2.397

> <LogP>
0.89

> <rotating_bonds>
4

> <PSA>
59.23

> <hb_acceptors>
3

> <hb_donors>
0

> <Collection>
HTS

> <link>
https://www.enaminestore.com/catalog/Z383487260

> <ROCS_ShapeQuery>
_x1140_x0812_0A_x1140_0A_x1097_0A_x0365_0A_x1097_0A_x0310_0A

> <ROCS_TanimotoCombo>
0.624 

> <ROCS_ShapeTanimoto>
0.250 

> <ROCS_ColorTanimoto>
0.374 

> <ROCS_RefTversky>
0.228 

> <ROCS_RefColorTversky>
0.451 

> <ROCS_RefTverskyCombo>
0.679 

> <ROCS_FitTversky>
1.618 

> <ROCS_FitColorTversky>
0.687 

> <ROCS_FitTverskyCombo>
2.306 

> <ROCS_ColorScore>
-3.540

> <ROCS_Overlap>
2342.026

> <ROCS_Rank>
481                 

$$$$
untitled-dbase-849642_40
  -OEChem-02092421083D

 32 33  0     0  0  0  0  0  0999 V2000
    8.9749   12.2978   25.1943 C   0  0  0  0  0  0  0  0  0  0  0  0
    7.7672   11.8788   25.7142 C   0  0  0  0  0  0  0  0  0  0  0  0
   11.1363   11.1938   21.8881 C   0  0  0  0  0  0  0  0  0  0  0  0
   12.1077   12.1599   21.7298 C   0  0  0  0  0  0  0  0  0  0  0  0
    7.3661   10.6110   25.3453 C   0  0  0  0  0  0  0  0  0  0  0  0
   10.0203   12.5758   20.6018 C   0  0  0  0  0  0  0  0  0  0  0  0
    9.2406   10.3282   24.0910 C   0  0  0  0  0  0  0  0  0  0  0  0
   13.4794   12.2278   22.2727 C   0  0  0  0  0  0  0  0  0  0  0  0
    8.9282   13.1641   19.7960 C   0  0  0  0  0  0  0  0  0  0  0  0
    5.9055    8.7201   26.0642 C   0  0  0  0  0  0  0  0  0  0  0  0
   11.2679    9.9322   22.6913 C   0  0  0  0  0  0  0  0  0  0  0  0
    9.7404   11.5457   24.3767 N   0  0  0  0  0  0  0  0  0  0  0  0
    9.9385   11.4308   21.2423 N   0  0  0  0  0  0  0  0  0  0  0  0
    8.0806    9.8055   24.5323 N   0  0  0  0  0  0  0  0  0  0  0  0
    6.1368   10.1102   25.8387 N   0  0  0  0  0  0  0  0  0  0  0  0
   10.0154    9.5128   23.2376 N   0  0  0  0  0  0  0  0  0  0  0  0
   11.5088   13.4199   20.7323 S   0  0  0  0  0  0  0  0  0  0  0  0
    6.7812   13.0168   26.8491 Br  0  0  0  0  0  0  0  0  0  0  0  0
    9.3860   13.2772   25.4189 H   0  0  0  0  0  0  0  0  0  0  0  0
   14.2010   11.7545   21.5874 H   0  0  0  0  0  0  0  0  0  0  0  0
   13.8068   13.2680   22.4391 H   0  0  0  0  0  0  0  0  0  0  0  0
   13.5624   11.7218   23.2496 H   0  0  0  0  0  0  0  0  0  0  0  0
    8.2871   13.8118   20.4141 H   0  0  0  0  0  0  0  0  0  0  0  0
    9.3149   13.7701   18.9604 H   0  0  0  0  0  0  0  0  0  0  0  0
    8.2887   12.3889   19.3431 H   0  0  0  0  0  0  0  0  0  0  0  0
    6.8082    8.1500   25.7996 H   0  0  0  0  0  0  0  0  0  0  0  0
    5.6661    8.5558   27.1252 H   0  0  0  0  0  0  0  0  0  0  0  0
    5.0635    8.3830   25.4418 H   0  0  0  0  0  0  0  0  0  0  0  0
   11.6546    9.1173   22.0697 H   0  0  0  0  0  0  0  0  0  0  0  0
   11.9675   10.0670   23.5230 H   0  0  0  0  0  0  0  0  0  0  0  0
    5.4210   10.7829   26.0259 H   0  0  0  0  0  0  0  0  0  0  0  0
    9.6477    8.6064   23.0207 H   0  0  0  0  0  0  0  0  0  0  0  0
  1  2  1  0  0  0  0
  1 12  2  0  0  0  0
  2  5  2  0  0  0  0
  2 18  1  0  0  0  0
  3  4  2  0  0  0  0
  3 11  1  0  0  0  0
  3 13  1  0  0  0  0
  4  8  1  0  0  0  0
  4 17  1  0  0  0  0
  5 14  1  0  0  0  0
  5 15  1  0  0  0  0
  6  9  1  0  0  0  0
  6 13  2  0  0  0  0
  6 17  1  0  0  0  0
  7 12  1  0  0  0  0
  7 14  2  0  0  0  0
  7 16  1  0  0  0  0
 10 15  1  0  0  0  0
 11 16  1  0  0  0  0
  1 19  1  0  0  0  0
  8 20  1  0  0  0  0
  8 21  1  0  0  0  0
  8 22  1  0  0  0  0
  9 23  1  0  0  0  0
  9 24  1  0  0  0  0
  9 25  1  0  0  0  0
 10 26  1  0  0  0  0
 10 27  1  0  0  0  0
 10 28  1  0  0  0  0
 11 29  1  0  0  0  0
 11 30  1  0  0  0  0
 15 31  1  0  0  0  0
 16 32  1  0  0  0  0
M  END
> <idnumber>
Z1765154429

> <heavy_atoms>
18

> <LogS>
-3.39

> <LogP>
2.965

> <rotating_bonds>
4

> <PSA>
62.73

> <hb_acceptors>
5

> <hb_donors>
2

> <Collection>
HTS

> <link>
https://www.enaminestore.com/catalog/Z1765154429

> <ROCS_ShapeQuery>
_x1140_x0812_0A_x1140_0A_x1097_0A_x0365_0A_x1097_0A_x0310_0A

> <ROCS_TanimotoCombo>
0.624 

> <ROCS_ShapeTanimoto>
0.218 

> <ROCS_ColorTanimoto>
0.406 

> <ROCS_RefTversky>
0.202 

> <ROCS_RefColorTversky>
0.577 

> <ROCS_RefTverskyCombo>
0.779 

> <ROCS_FitTversky>
1.624 

> <ROCS_FitColorTversky>
0.577 

> <ROCS_FitTverskyCombo>
2.201 

> <ROCS_ColorScore>
-4.619

> <ROCS_Overlap>
2067.619

> <ROCS_Rank>
482                 

$$$$
untitled-dbase-971142_8
  -OEChem-02092421083D

 41 43  0     0  0  0  0  0  0999 V2000
    6.5297   10.2598   26.3664 C   0  0  0  0  0  0  0  0  0  0  0  0
    5.7240   11.1593   27.0689 C   0  0  0  0  0  0  0  0  0  0  0  0
    8.4795   12.5157   24.2188 C   0  0  0  0  0  0  0  0  0  0  0  0
    6.7426   12.9840   25.8817 C   0  0  0  0  0  0  0  0  0  0  0  0
    7.5529   12.0791   25.1752 C   0  0  0  0  0  0  0  0  0  0  0  0
    9.2650   11.5969   23.5379 C   0  0  0  0  0  0  0  0  0  0  0  0
    7.4502   10.6929   25.4160 C   0  0  0  0  0  0  0  0  0  0  0  0
    5.8303   12.5232   26.8265 C   0  0  0  0  0  0  0  0  0  0  0  0
    9.0934   10.2615   23.8415 C   0  0  0  0  0  0  0  0  0  0  0  0
   10.2382   12.0545   22.5335 C   0  0  0  0  0  0  0  0  0  0  0  0
   12.2802   16.2207   21.6316 C   0  0  0  0  0  0  0  0  0  0  0  0
   11.2633   15.7661   20.5852 C   0  0  0  0  0  0  0  0  0  0  0  0
   12.3046   15.1324   22.7014 C   0  0  0  0  0  0  0  0  0  0  0  0
   10.7224   14.4248   21.0730 C   0  0  0  0  0  0  0  0  0  0  0  0
   11.8123   13.8645   21.9941 C   0  0  0  0  0  0  0  0  0  0  0  0
   12.9335   13.1854   21.1998 C   0  0  0  0  0  0  0  0  0  0  0  0
   11.8345   12.9589   24.2853 C   0  0  0  0  0  0  0  0  0  0  0  0
    8.2113    9.7989   24.7569 N   0  0  0  0  0  0  0  0  0  0  0  0
   11.2599   12.9221   22.9402 N   0  0  0  0  0  0  0  0  0  0  0  0
   10.0864   11.6218   21.3916 O   0  0  0  0  0  0  0  0  0  0  0  0
    9.8457    9.3144   23.1963 O   0  0  0  0  0  0  0  0  0  0  0  0
    5.0601   13.3892   27.4975 F   0  0  0  0  0  0  0  0  0  0  0  0
    6.4271    9.1963   26.5748 H   0  0  0  0  0  0  0  0  0  0  0  0
    5.0148   10.7912   27.8045 H   0  0  0  0  0  0  0  0  0  0  0  0
    8.5856   13.5782   24.0071 H   0  0  0  0  0  0  0  0  0  0  0  0
    6.8175   14.0538   25.7000 H   0  0  0  0  0  0  0  0  0  0  0  0
   13.2733   16.3691   21.1944 H   0  0  0  0  0  0  0  0  0  0  0  0
   11.9685   17.1791   22.0636 H   0  0  0  0  0  0  0  0  0  0  0  0
   10.4535   16.5015   20.5090 H   0  0  0  0  0  0  0  0  0  0  0  0
   11.7152   15.6749   19.5918 H   0  0  0  0  0  0  0  0  0  0  0  0
   13.3368   14.9989   23.0561 H   0  0  0  0  0  0  0  0  0  0  0  0
   11.6983   15.3997   23.5761 H   0  0  0  0  0  0  0  0  0  0  0  0
    9.7496   14.5282   21.5705 H   0  0  0  0  0  0  0  0  0  0  0  0
   10.5710   13.7612   20.2093 H   0  0  0  0  0  0  0  0  0  0  0  0
   12.5512   12.2903   20.7109 H   0  0  0  0  0  0  0  0  0  0  0  0
   13.7449   12.9054   21.8701 H   0  0  0  0  0  0  0  0  0  0  0  0
   13.3168   13.8682   20.4426 H   0  0  0  0  0  0  0  0  0  0  0  0
   12.6874   12.2664   24.3393 H   0  0  0  0  0  0  0  0  0  0  0  0
   12.1765   13.9799   24.5100 H   0  0  0  0  0  0  0  0  0  0  0  0
   11.0713   12.6582   25.0182 H   0  0  0  0  0  0  0  0  0  0  0  0
   10.4412    9.7438   22.5667 H   0  0  0  0  0  0  0  0  0  0  0  0
  1  2  2  0  0  0  0
  1  7  1  0  0  0  0
  2  8  1  0  0  0  0
  3  5  2  0  0  0  0
  3  6  1  0  0  0  0
  4  5  1  0  0  0  0
  4  8  2  0  0  0  0
  5  7  1  0  0  0  0
  6  9  2  0  0  0  0
  6 10  1  0  0  0  0
  7 18  2  0  0  0  0
  8 22  1  0  0  0  0
  9 18  1  0  0  0  0
  9 21  1  0  0  0  0
 10 19  1  0  0  0  0
 10 20  2  0  0  0  0
 11 12  1  0  0  0  0
 11 13  1  0  0  0  0
 12 14  1  0  0  0  0
 13 15  1  0  0  0  0
 14 15  1  0  0  0  0
 15 16  1  0  0  0  0
 15 19  1  0  0  0  0
 17 19  1  0  0  0  0
  1 23  1  0  0  0  0
  2 24  1  0  0  0  0
  3 25  1  0  0  0  0
  4 26  1  0  0  0  0
 11 27  1  0  0  0  0
 11 28  1  0  0  0  0
 12 29  1  0  0  0  0
 12 30  1  0  0  0  0
 13 31  1  0  0  0  0
 13 32  1  0  0  0  0
 14 33  1  0  0  0  0
 14 34  1  0  0  0  0
 16 35  1  0  0  0  0
 16 36  1  0  0  0  0
 16 37  1  0  0  0  0
 17 38  1  0  0  0  0
 17 39  1  0  0  0  0
 17 40  1  0  0  0  0
 21 41  1  0  0  0  0
M  END
> <idnumber>
Z2907560907

> <heavy_atoms>
22

> <LogS>
-4.185

> <LogP>
3.429

> <rotating_bonds>
2

> <PSA>
53.43

> <hb_acceptors>
3

> <hb_donors>
1

> <Collection>
HTS

> <link>
https://www.enaminestore.com/catalog/Z2907560907

> <ROCS_ShapeQuery>
_x1140_x0812_0A_x1140_0A_x1097_0A_x0365_0A_x1097_0A_x0310_0A

> <ROCS_TanimotoCombo>
0.624 

> <ROCS_ShapeTanimoto>
0.305 

> <ROCS_ColorTanimoto>
0.319 

> <ROCS_RefTversky>
0.267 

> <ROCS_RefColorTversky>
0.457 

> <ROCS_RefTverskyCombo>
0.725 

> <ROCS_FitTversky>
1.835 

> <ROCS_FitColorTversky>
0.515 

> <ROCS_FitTverskyCombo>
2.350 

> <ROCS_ColorScore>
-3.636

> <ROCS_Overlap>
2746.986

> <ROCS_Rank>
483                 

$$$$
untitled-dbase-465832_10
  -OEChem-02092421083D

 30 30  0     0  0  0  0  0  0999 V2000
    9.6445   14.7547   21.6776 C   0  0  0  0  0  0  0  0  0  0  0  0
   11.7082   15.6683   22.6260 C   0  0  0  0  0  0  0  0  0  0  0  0
    9.1312   10.3246   23.5232 C   0  0  0  0  0  0  0  0  0  0  0  0
    8.6419   12.5713   24.2649 C   0  0  0  0  0  0  0  0  0  0  0  0
    8.1202    9.8320   24.3484 C   0  0  0  0  0  0  0  0  0  0  0  0
    7.6309   12.0788   25.0900 C   0  0  0  0  0  0  0  0  0  0  0  0
    9.3921   11.6943   23.4815 C   0  0  0  0  0  0  0  0  0  0  0  0
    7.3701   10.7091   25.1318 C   0  0  0  0  0  0  0  0  0  0  0  0
   10.8605   14.5403   22.4007 C   0  0  0  0  0  0  0  0  0  0  0  0
   11.1831   13.3024   22.8496 C   0  0  0  0  0  0  0  0  0  0  0  0
    5.5084   10.9358   26.8073 C   0  0  0  0  0  0  0  0  0  0  0  0
   12.4534   13.0092   23.6194 C   0  0  0  0  0  0  0  0  0  0  0  0
    4.5457   10.0296   27.5328 C   0  0  0  0  0  0  0  0  0  0  0  0
    8.6589   14.9314   21.0908 N   0  0  0  0  0  0  0  0  0  0  0  0
   12.3888   16.5917   22.8031 N   0  0  0  0  0  0  0  0  0  0  0  0
   10.4033   12.1863   22.6586 N   0  0  0  0  0  0  0  0  0  0  0  0
    6.3588   10.2164   25.9570 N   0  0  0  0  0  0  0  0  0  0  0  0
    5.4873   12.1489   26.9887 O   0  0  0  0  0  0  0  0  0  0  0  0
    9.7101    9.6319   22.9178 H   0  0  0  0  0  0  0  0  0  0  0  0
    8.8368   13.6404   24.2403 H   0  0  0  0  0  0  0  0  0  0  0  0
    7.9261    8.7626   24.3741 H   0  0  0  0  0  0  0  0  0  0  0  0
    7.0526   12.7703   25.6975 H   0  0  0  0  0  0  0  0  0  0  0  0
   12.2757   13.1294   24.6943 H   0  0  0  0  0  0  0  0  0  0  0  0
   13.2416   13.7100   23.3222 H   0  0  0  0  0  0  0  0  0  0  0  0
   12.8446   12.0001   23.4675 H   0  0  0  0  0  0  0  0  0  0  0  0
    4.9870    9.7015   28.4781 H   0  0  0  0  0  0  0  0  0  0  0  0
    4.3301    9.1508   26.9184 H   0  0  0  0  0  0  0  0  0  0  0  0
    3.6099   10.5607   27.7302 H   0  0  0  0  0  0  0  0  0  0  0  0
   10.6070   11.6806   21.8139 H   0  0  0  0  0  0  0  0  0  0  0  0
    6.2142    9.2001   25.9437 H   0  0  0  0  0  0  0  0  0  0  0  0
  1  9  1  0  0  0  0
  1 14  3  0  0  0  0
  2  9  1  0  0  0  0
  2 15  3  0  0  0  0
  3  5  2  0  0  0  0
  3  7  1  0  0  0  0
  4  6  1  0  0  0  0
  4  7  2  0  0  0  0
  5  8  1  0  0  0  0
  6  8  2  0  0  0  0
  7 16  1  0  0  0  0
  8 17  1  0  0  0  0
  9 10  2  0  0  0  0
 10 12  1  0  0  0  0
 10 16  1  0  0  0  0
 11 13  1  0  0  0  0
 11 17  1  0  0  0  0
 11 18  2  0  0  0  0
  3 19  1  0  0  0  0
  4 20  1  0  0  0  0
  5 21  1  0  0  0  0
  6 22  1  0  0  0  0
 12 23  1  0  0  0  0
 12 24  1  0  0  0  0
 12 25  1  0  0  0  0
 13 26  1  0  0  0  0
 13 27  1  0  0  0  0
 13 28  1  0  0  0  0
 16 29  1  0  0  0  0
 17 30  1  0  0  0  0
M  END
> <idnumber>
Z57981031

> <heavy_atoms>
18

> <LogS>
-2.18

> <LogP>
0.97

> <rotating_bonds>
3

> <PSA>
88.71

> <hb_acceptors>
4

> <hb_donors>
2

> <Collection>
Legacy

> <link>
https://www.enaminestore.com/catalog/Z57981031

> <ROCS_ShapeQuery>
_x1140_x0812_0A_x1140_0A_x1097_0A_x0365_0A_x1097_0A_x0310_0A

> <ROCS_TanimotoCombo>
0.624 

> <ROCS_ShapeTanimoto>
0.251 

> <ROCS_ColorTanimoto>
0.373 

> <ROCS_RefTversky>
0.226 

> <ROCS_RefColorTversky>
0.481 

> <ROCS_RefTverskyCombo>
0.707 

> <ROCS_FitTversky>
1.808 

> <ROCS_FitColorTversky>
0.623 

> <ROCS_FitTverskyCombo>
2.431 

> <ROCS_ColorScore>
-3.802

> <ROCS_Overlap>
2316.349

> <ROCS_Rank>
484                 

$$$$
untitled-dbase-1123799_136
  -OEChem-02092421083D

 25 26  0     0  0  0  0  0  0999 V2000
    6.3971   12.4348   25.9297 C   0  0  0  0  0  0  0  0  0  0  0  0
    8.3516   12.4111   24.1904 C   0  0  0  0  0  0  0  0  0  0  0  0
    8.9655   10.1480   23.7077 C   0  0  0  0  0  0  0  0  0  0  0  0
    5.7488   11.3806   26.5364 C   0  0  0  0  0  0  0  0  0  0  0  0
    7.3845   11.8914   25.0659 C   0  0  0  0  0  0  0  0  0  0  0  0
    9.1566   11.5074   23.4993 C   0  0  0  0  0  0  0  0  0  0  0  0
    7.3013   10.5067   25.1791 C   0  0  0  0  0  0  0  0  0  0  0  0
   12.5990   15.6148   21.5603 C   0  0  0  0  0  0  0  0  0  0  0  0
   10.1768   11.9806   22.5794 C   0  0  0  0  0  0  0  0  0  0  0  0
   11.7474   14.6231   21.8469 C   0  0  0  0  0  0  0  0  0  0  0  0
   12.1587   13.2998   22.4076 C   0  0  0  0  0  0  0  0  0  0  0  0
    8.0519    9.5919   24.5368 N   0  0  0  0  0  0  0  0  0  0  0  0
    6.3055   10.2163   26.0742 N   0  0  0  0  0  0  0  0  0  0  0  0
   10.2129   11.7086   21.3712 O   0  0  0  0  0  0  0  0  0  0  0  0
   11.0994   12.7696   23.2116 O   0  0  0  0  0  0  0  0  0  0  0  0
   10.0468   14.8501   21.6142 Cl  0  0  0  0  0  0  0  0  0  0  0  0
    6.1804   13.4813   26.0932 H   0  0  0  0  0  0  0  0  0  0  0  0
    8.4656   13.4829   24.0585 H   0  0  0  0  0  0  0  0  0  0  0  0
    9.5809    9.4207   23.1827 H   0  0  0  0  0  0  0  0  0  0  0  0
    4.9415   11.3549   27.2547 H   0  0  0  0  0  0  0  0  0  0  0  0
   12.2557   16.5661   21.1668 H   0  0  0  0  0  0  0  0  0  0  0  0
   13.6669   15.4969   21.7126 H   0  0  0  0  0  0  0  0  0  0  0  0
   12.3781   12.5773   21.6142 H   0  0  0  0  0  0  0  0  0  0  0  0
   13.0550   13.4053   23.0280 H   0  0  0  0  0  0  0  0  0  0  0  0
    6.0246    9.2855   26.3498 H   0  0  0  0  0  0  0  0  0  0  0  0
  1  4  2  0  0  0  0
  1  5  1  0  0  0  0
  2  5  1  0  0  0  0
  2  6  2  0  0  0  0
  3  6  1  0  0  0  0
  3 12  2  0  0  0  0
  4 13  1  0  0  0  0
  5  7  2  0  0  0  0
  6  9  1  0  0  0  0
  7 12  1  0  0  0  0
  7 13  1  0  0  0  0
  8 10  2  0  0  0  0
  9 14  2  0  0  0  0
  9 15  1  0  0  0  0
 10 11  1  0  0  0  0
 10 16  1  0  0  0  0
 11 15  1  0  0  0  0
  1 17  1  0  0  0  0
  2 18  1  0  0  0  0
  3 19  1  0  0  0  0
  4 20  1  0  0  0  0
  8 21  1  0  0  0  0
  8 22  1  0  0  0  0
 11 23  1  0  0  0  0
 11 24  1  0  0  0  0
 13 25  1  0  0  0  0
M  END
> <idnumber>
Z5348530741

> <heavy_atoms>
16

> <LogS>
-3.649

> <LogP>
2.674

> <rotating_bonds>
4

> <PSA>
54.98

> <hb_acceptors>
2

> <hb_donors>
1

> <Collection>
Advanced

> <link>
https://www.enaminestore.com/catalog/Z5348530741

> <ROCS_ShapeQuery>
_x1140_x0812_0A_x1140_0A_x1097_0A_x0365_0A_x1097_0A_x0310_0A

> <ROCS_TanimotoCombo>
0.624 

> <ROCS_ShapeTanimoto>
0.264 

> <ROCS_ColorTanimoto>
0.360 

> <ROCS_RefTversky>
0.233 

> <ROCS_RefColorTversky>
0.439 

> <ROCS_RefTverskyCombo>
0.673 

> <ROCS_FitTversky>
1.960 

> <ROCS_FitColorTversky>
0.667 

> <ROCS_FitTverskyCombo>
2.627 

> <ROCS_ColorScore>
-3.449

> <ROCS_Overlap>
2393.869

> <ROCS_Rank>
485                 

$$$$
untitled-dbase-931762_5
  -OEChem-02092421083D

 28 29  0     0  0  0  0  0  0999 V2000
   11.7543    7.8284   22.5352 C   0  0  0  0  0  0  0  0  0  0  0  0
   11.8865    9.1702   24.5399 C   0  0  0  0  0  0  0  0  0  0  0  0
   12.9948    7.2637   22.8313 C   0  0  0  0  0  0  0  0  0  0  0  0
   13.1271    8.6055   24.8361 C   0  0  0  0  0  0  0  0  0  0  0  0
    8.5527   12.5922   24.0754 C   0  0  0  0  0  0  0  0  0  0  0  0
    7.5071   10.8183   25.2656 C   0  0  0  0  0  0  0  0  0  0  0  0
    7.6162   12.1768   25.0154 C   0  0  0  0  0  0  0  0  0  0  0  0
   11.2001    8.7817   23.3895 C   0  0  0  0  0  0  0  0  0  0  0  0
    9.3404   11.6499   23.4236 C   0  0  0  0  0  0  0  0  0  0  0  0
   13.6813    7.6522   23.9817 C   0  0  0  0  0  0  0  0  0  0  0  0
    9.1542   10.3151   23.7452 C   0  0  0  0  0  0  0  0  0  0  0  0
    6.7584   13.1598   25.7295 C   0  0  0  0  0  0  0  0  0  0  0  0
    8.2546    9.8734   24.6525 N   0  0  0  0  0  0  0  0  0  0  0  0
   10.2896   12.0684   22.4723 N   0  0  0  0  0  0  0  0  0  0  0  0
    9.9467    9.3537   23.0883 N   0  0  0  0  0  0  0  0  0  0  0  0
    6.9898   14.4585   25.3684 F   0  0  0  0  0  0  0  0  0  0  0  0
    5.4190   12.9714   25.5274 F   0  0  0  0  0  0  0  0  0  0  0  0
    6.9289   13.1248   27.0848 F   0  0  0  0  0  0  0  0  0  0  0  0
   15.2117    6.9552   24.3467 Cl  0  0  0  0  0  0  0  0  0  0  0  0
   11.2281    7.5196   21.6357 H   0  0  0  0  0  0  0  0  0  0  0  0
   11.4644    9.9134   25.2117 H   0  0  0  0  0  0  0  0  0  0  0  0
   13.4150    6.5233   22.1553 H   0  0  0  0  0  0  0  0  0  0  0  0
   13.6511    8.9196   25.7353 H   0  0  0  0  0  0  0  0  0  0  0  0
    8.6660   13.6508   23.8526 H   0  0  0  0  0  0  0  0  0  0  0  0
    6.7932   10.4352   25.9884 H   0  0  0  0  0  0  0  0  0  0  0  0
   10.3557   13.0401   22.2396 H   0  0  0  0  0  0  0  0  0  0  0  0
   10.8198   11.3810   21.9732 H   0  0  0  0  0  0  0  0  0  0  0  0
    9.5351    9.0020   22.2288 H   0  0  0  0  0  0  0  0  0  0  0  0
  1  3  2  0  0  0  0
  1  8  1  0  0  0  0
  2  4  1  0  0  0  0
  2  8  2  0  0  0  0
  3 10  1  0  0  0  0
  4 10  2  0  0  0  0
  5  7  2  0  0  0  0
  5  9  1  0  0  0  0
  6  7  1  0  0  0  0
  6 13  2  0  0  0  0
  7 12  1  0  0  0  0
  8 15  1  0  0  0  0
  9 11  2  0  0  0  0
  9 14  1  0  0  0  0
 10 19  1  0  0  0  0
 11 13  1  0  0  0  0
 11 15  1  0  0  0  0
 12 16  1  0  0  0  0
 12 17  1  0  0  0  0
 12 18  1  0  0  0  0
  1 20  1  0  0  0  0
  2 21  1  0  0  0  0
  3 22  1  0  0  0  0
  4 23  1  0  0  0  0
  5 24  1  0  0  0  0
  6 25  1  0  0  0  0
 14 26  1  0  0  0  0
 14 27  1  0  0  0  0
 15 28  1  0  0  0  0
M  END
> <idnumber>
Z2678081868

> <heavy_atoms>
19

> <LogS>
-4.2

> <LogP>
4.651

> <rotating_bonds>
3

> <PSA>
50.94

> <hb_acceptors>
3

> <hb_donors>
2

> <Collection>
Functional

> <link>
https://www.enaminestore.com/catalog/Z2678081868

> <ROCS_ShapeQuery>
_x1140_x0812_0A_x1140_0A_x1097_0A_x0365_0A_x1097_0A_x0310_0A

> <ROCS_TanimotoCombo>
0.624 

> <ROCS_ShapeTanimoto>
0.230 

> <ROCS_ColorTanimoto>
0.394 

> <ROCS_RefTversky>
0.211 

> <ROCS_RefColorTversky>
0.501 

> <ROCS_RefTverskyCombo>
0.712 

> <ROCS_FitTversky>
1.605 

> <ROCS_FitColorTversky>
0.649 

> <ROCS_FitTverskyCombo>
2.254 

> <ROCS_ColorScore>
-3.958

> <ROCS_Overlap>
2169.164

> <ROCS_Rank>
486                 

$$$$
untitled-dbase-816843_7
  -OEChem-02092421083D

 38 40  0     0  0  0  0  0  0999 V2000
    8.6778   12.5890   24.5932 C   0  0  0  0  0  0  0  0  0  0  0  0
    9.1155   10.4656   23.5651 C   0  0  0  0  0  0  0  0  0  0  0  0
    7.6625   11.9430   25.3097 C   0  0  0  0  0  0  0  0  0  0  0  0
    9.4182   11.8165   23.6983 C   0  0  0  0  0  0  0  0  0  0  0  0
    6.6927   12.2718   26.2775 C   0  0  0  0  0  0  0  0  0  0  0  0
    7.4660   10.5901   25.0808 C   0  0  0  0  0  0  0  0  0  0  0  0
   10.8834   13.7256   22.9560 C   0  0  0  0  0  0  0  0  0  0  0  0
   15.0239   14.3758   22.3956 C   0  0  0  0  0  0  0  0  0  0  0  0
   13.9992   14.6490   23.5106 C   0  0  0  0  0  0  0  0  0  0  0  0
   14.1898   15.2836   21.4747 C   0  0  0  0  0  0  0  0  0  0  0  0
   12.9729   15.0464   22.4128 C   0  0  0  0  0  0  0  0  0  0  0  0
    6.4442   13.5870   26.8940 C   0  0  0  0  0  0  0  0  0  0  0  0
   11.6500   16.7814   21.5397 C   0  0  0  0  0  0  0  0  0  0  0  0
   12.0339   13.9257   21.9841 C   0  0  0  0  0  0  0  0  0  0  0  0
    8.1454    9.7967   24.2344 N   0  0  0  0  0  0  0  0  0  0  0  0
    5.9427   11.2246   26.6362 N   0  0  0  0  0  0  0  0  0  0  0  0
    6.4357   10.2175   25.8928 N   0  0  0  0  0  0  0  0  0  0  0  0
   10.4601   12.3996   22.9385 N   0  0  0  0  0  0  0  0  0  0  0  0
   10.4336   14.6429   23.6347 O   0  0  0  0  0  0  0  0  0  0  0  0
   12.2026   16.2286   22.7170 O   0  0  0  0  0  0  0  0  0  0  0  0
    8.8800   13.6466   24.7311 H   0  0  0  0  0  0  0  0  0  0  0  0
    9.6790    9.8431   22.8734 H   0  0  0  0  0  0  0  0  0  0  0  0
   16.0435   14.7144   22.5966 H   0  0  0  0  0  0  0  0  0  0  0  0
   15.0556   13.3294   22.0721 H   0  0  0  0  0  0  0  0  0  0  0  0
   13.7412   13.7826   24.1264 H   0  0  0  0  0  0  0  0  0  0  0  0
   14.2813   15.4760   24.1730 H   0  0  0  0  0  0  0  0  0  0  0  0
   14.5351   16.3239   21.4528 H   0  0  0  0  0  0  0  0  0  0  0  0
   14.0841   14.9298   20.4452 H   0  0  0  0  0  0  0  0  0  0  0  0
    5.7069   14.1675   26.3139 H   0  0  0  0  0  0  0  0  0  0  0  0
    6.0603   13.4973   27.9256 H   0  0  0  0  0  0  0  0  0  0  0  0
    7.3643   14.1938   26.9653 H   0  0  0  0  0  0  0  0  0  0  0  0
   11.0718   17.6737   21.7919 H   0  0  0  0  0  0  0  0  0  0  0  0
   11.0066   16.0420   21.0561 H   0  0  0  0  0  0  0  0  0  0  0  0
   12.4611   17.0553   20.8609 H   0  0  0  0  0  0  0  0  0  0  0  0
   12.5986   12.9912   21.9108 H   0  0  0  0  0  0  0  0  0  0  0  0
   11.6235   14.1577   20.9965 H   0  0  0  0  0  0  0  0  0  0  0  0
    6.0206    9.2994   25.9909 H   0  0  0  0  0  0  0  0  0  0  0  0
   10.9484   11.7644   22.3106 H   0  0  0  0  0  0  0  0  0  0  0  0
  1  3  1  0  0  0  0
  1  4  2  0  0  0  0
  2  4  1  0  0  0  0
  2 15  2  0  0  0  0
  3  5  1  0  0  0  0
  3  6  2  0  0  0  0
  4 18  1  0  0  0  0
  5 12  1  0  0  0  0
  5 16  2  0  0  0  0
  6 15  1  0  0  0  0
  6 17  1  0  0  0  0
  7 14  1  0  0  0  0
  7 18  1  0  0  0  0
  7 19  2  0  0  0  0
  8  9  1  0  0  0  0
  8 10  1  0  0  0  0
  9 11  1  0  0  0  0
 10 11  1  0  0  0  0
 11 14  1  0  0  0  0
 11 20  1  0  0  0  0
 13 20  1  0  0  0  0
 16 17  1  0  0  0  0
  1 21  1  0  0  0  0
  2 22  1  0  0  0  0
  8 23  1  0  0  0  0
  8 24  1  0  0  0  0
  9 25  1  0  0  0  0
  9 26  1  0  0  0  0
 10 27  1  0  0  0  0
 10 28  1  0  0  0  0
 12 29  1  0  0  0  0
 12 30  1  0  0  0  0
 12 31  1  0  0  0  0
 13 32  1  0  0  0  0
 13 33  1  0  0  0  0
 13 34  1  0  0  0  0
 14 35  1  0  0  0  0
 14 36  1  0  0  0  0
 17 37  1  0  0  0  0
 18 38  1  0  0  0  0
M  END
> <idnumber>
Z1838996171

> <heavy_atoms>
20

> <LogS>
-2.629

> <LogP>
2.073

> <rotating_bonds>
4

> <PSA>
79.9

> <hb_acceptors>
4

> <hb_donors>
2

> <Collection>
HTS

> <link>
https://www.enaminestore.com/catalog/Z1838996171

> <ROCS_ShapeQuery>
_x1140_x0812_0A_x1140_0A_x1097_0A_x0365_0A_x1097_0A_x0310_0A

> <ROCS_TanimotoCombo>
0.624 

> <ROCS_ShapeTanimoto>
0.256 

> <ROCS_ColorTanimoto>
0.368 

> <ROCS_RefTversky>
0.232 

> <ROCS_RefColorTversky>
0.568 

> <ROCS_RefTverskyCombo>
0.800 

> <ROCS_FitTversky>
1.692 

> <ROCS_FitColorTversky>
0.510 

> <ROCS_FitTverskyCombo>
2.202 

> <ROCS_ColorScore>
-4.576

> <ROCS_Overlap>
2379.597

> <ROCS_Rank>
487                 

$$$$
untitled-dbase-125630_144
  -OEChem-02092421083D

 39 41  0     0  0  0  0  0  0999 V2000
   10.2571   17.1241   23.0599 C   0  0  0  0  0  0  0  0  0  0  0  0
    8.4500   12.4810   24.3492 C   0  0  0  0  0  0  0  0  0  0  0  0
   10.1922   15.7132   22.9694 C   0  0  0  0  0  0  0  0  0  0  0  0
    7.4497   11.9673   25.1670 C   0  0  0  0  0  0  0  0  0  0  0  0
    9.0040   10.2559   23.7176 C   0  0  0  0  0  0  0  0  0  0  0  0
   11.5805   17.4574   22.8881 C   0  0  0  0  0  0  0  0  0  0  0  0
    9.2464   11.6157   23.6074 C   0  0  0  0  0  0  0  0  0  0  0  0
   11.4805   15.2849   22.7485 C   0  0  0  0  0  0  0  0  0  0  0  0
    7.2876   10.5918   25.2073 C   0  0  0  0  0  0  0  0  0  0  0  0
   10.3130   12.1281   22.7326 C   0  0  0  0  0  0  0  0  0  0  0  0
   13.4544   11.8952   26.1939 C   0  0  0  0  0  0  0  0  0  0  0  0
   13.1069   13.3465   26.5370 C   0  0  0  0  0  0  0  0  0  0  0  0
   12.9009   11.6491   24.7929 C   0  0  0  0  0  0  0  0  0  0  0  0
   12.3607   13.8991   25.3255 C   0  0  0  0  0  0  0  0  0  0  0  0
   11.7647   12.6576   24.6730 C   0  0  0  0  0  0  0  0  0  0  0  0
   12.0933   13.9270   22.5619 C   0  0  0  0  0  0  0  0  0  0  0  0
    8.0417    9.7198   24.5012 N   0  0  0  0  0  0  0  0  0  0  0  0
   11.3591   12.8858   23.2977 N   0  0  0  0  0  0  0  0  0  0  0  0
   10.2242   11.8397   21.5397 O   0  0  0  0  0  0  0  0  0  0  0  0
   12.3328   16.3420   22.6975 O   0  0  0  0  0  0  0  0  0  0  0  0
    6.3083   10.0616   26.0058 O   0  0  0  0  0  0  0  0  0  0  0  0
    9.4415   17.8121   23.2295 H   0  0  0  0  0  0  0  0  0  0  0  0
    8.6005   13.5559   24.2971 H   0  0  0  0  0  0  0  0  0  0  0  0
    9.3140   15.0891   23.0554 H   0  0  0  0  0  0  0  0  0  0  0  0
    6.8200   12.6289   25.7519 H   0  0  0  0  0  0  0  0  0  0  0  0
    9.5927    9.5312   23.1632 H   0  0  0  0  0  0  0  0  0  0  0  0
   12.1198   18.3931   22.8749 H   0  0  0  0  0  0  0  0  0  0  0  0
   14.5333   11.7140   26.2331 H   0  0  0  0  0  0  0  0  0  0  0  0
   12.9806   11.2196   26.9155 H   0  0  0  0  0  0  0  0  0  0  0  0
   12.4657   13.3747   27.4255 H   0  0  0  0  0  0  0  0  0  0  0  0
   14.0010   13.9380   26.7584 H   0  0  0  0  0  0  0  0  0  0  0  0
   13.6832   11.8494   24.0498 H   0  0  0  0  0  0  0  0  0  0  0  0
   12.5629   10.6167   24.6605 H   0  0  0  0  0  0  0  0  0  0  0  0
   11.6000   14.6323   25.6106 H   0  0  0  0  0  0  0  0  0  0  0  0
   13.0736   14.3925   24.6527 H   0  0  0  0  0  0  0  0  0  0  0  0
   10.8832   12.3190   25.2212 H   0  0  0  0  0  0  0  0  0  0  0  0
   12.1012   13.6492   21.5023 H   0  0  0  0  0  0  0  0  0  0  0  0
   13.1317   13.9134   22.9095 H   0  0  0  0  0  0  0  0  0  0  0  0
    5.8358   10.7730   26.4601 H   0  0  0  0  0  0  0  0  0  0  0  0
  1  3  1  0  0  0  0
  1  6  2  0  0  0  0
  2  4  2  0  0  0  0
  2  7  1  0  0  0  0
  3  8  2  0  0  0  0
  4  9  1  0  0  0  0
  5  7  2  0  0  0  0
  5 17  1  0  0  0  0
  6 20  1  0  0  0  0
  7 10  1  0  0  0  0
  8 16  1  0  0  0  0
  8 20  1  0  0  0  0
  9 17  2  0  0  0  0
  9 21  1  0  0  0  0
 10 18  1  0  0  0  0
 10 19  2  0  0  0  0
 11 12  1  0  0  0  0
 11 13  1  0  0  0  0
 12 14  1  0  0  0  0
 13 15  1  0  0  0  0
 14 15  1  0  0  0  0
 15 18  1  0  0  0  0
 16 18  1  0  0  0  0
  1 22  1  0  0  0  0
  2 23  1  0  0  0  0
  3 24  1  0  0  0  0
  4 25  1  0  0  0  0
  5 26  1  0  0  0  0
  6 27  1  0  0  0  0
 11 28  1  0  0  0  0
 11 29  1  0  0  0  0
 12 30  1  0  0  0  0
 12 31  1  0  0  0  0
 13 32  1  0  0  0  0
 13 33  1  0  0  0  0
 14 34  1  0  0  0  0
 14 35  1  0  0  0  0
 15 36  1  0  0  0  0
 16 37  1  0  0  0  0
 16 38  1  0  0  0  0
 21 39  1  0  0  0  0
M  END
> <idnumber>
Z344536240

> <heavy_atoms>
21

> <LogS>
-2.96

> <LogP>
2.711

> <rotating_bonds>
4

> <PSA>
66.57

> <hb_acceptors>
3

> <hb_donors>
1

> <Collection>
HTS

> <link>
https://www.enaminestore.com/catalog/Z344536240

> <ROCS_ShapeQuery>
_x1140_x0812_0A_x1140_0A_x1097_0A_x0365_0A_x1097_0A_x0310_0A

> <ROCS_TanimotoCombo>
0.624 

> <ROCS_ShapeTanimoto>
0.232 

> <ROCS_ColorTanimoto>
0.392 

> <ROCS_RefTversky>
0.215 

> <ROCS_RefColorTversky>
0.563 

> <ROCS_RefTverskyCombo>
0.778 

> <ROCS_FitTversky>
1.528 

> <ROCS_FitColorTversky>
0.563 

> <ROCS_FitTverskyCombo>
2.090 

> <ROCS_ColorScore>
-4.505

> <ROCS_Overlap>
2205.851

> <ROCS_Rank>
488                 

$$$$
untitled-dbase-1015175_41
  -OEChem-02092421083D

 25 25  0     0  0  0  0  0  0999 V2000
    8.4292   12.0564   24.9199 C   0  0  0  0  0  0  0  0  0  0  0  0
    7.5246   10.9864   25.0562 C   0  0  0  0  0  0  0  0  0  0  0  0
    9.5205   11.5058   24.2935 C   0  0  0  0  0  0  0  0  0  0  0  0
   10.1812   12.3969   21.4839 C   0  0  0  0  0  0  0  0  0  0  0  0
   10.0476    9.1881   23.4770 C   0  0  0  0  0  0  0  0  0  0  0  0
   10.8259   12.1070   23.8593 C   0  0  0  0  0  0  0  0  0  0  0  0
   10.1011   13.4235   20.3830 C   0  0  0  0  0  0  0  0  0  0  0  0
    6.1814   11.0027   25.6637 C   0  0  0  0  0  0  0  0  0  0  0  0
    7.9999    9.8425   24.5565 N   0  0  0  0  0  0  0  0  0  0  0  0
    9.2150   10.1907   24.0999 N   0  0  0  0  0  0  0  0  0  0  0  0
   10.6811   12.9111   22.6684 N   0  0  0  0  0  0  0  0  0  0  0  0
    9.8153   11.2350   21.3153 O   0  0  0  0  0  0  0  0  0  0  0  0
    5.7950   12.2285   26.1465 F   0  0  0  0  0  0  0  0  0  0  0  0
    5.1711   10.6402   24.8079 F   0  0  0  0  0  0  0  0  0  0  0  0
    6.0589   10.1509   26.7317 F   0  0  0  0  0  0  0  0  0  0  0  0
    8.1974   13.6551   25.4251 Cl  0  0  0  0  0  0  0  0  0  0  0  0
   11.1133   12.8642   19.0423 Cl  0  0  0  0  0  0  0  0  0  0  0  0
   10.6550    8.7218   24.2573 H   0  0  0  0  0  0  0  0  0  0  0  0
    9.4151    8.4421   22.9879 H   0  0  0  0  0  0  0  0  0  0  0  0
   10.6860    9.6635   22.7270 H   0  0  0  0  0  0  0  0  0  0  0  0
   11.2388   12.7446   24.6486 H   0  0  0  0  0  0  0  0  0  0  0  0
   11.5667   11.3283   23.6494 H   0  0  0  0  0  0  0  0  0  0  0  0
    9.0819   13.5671   20.0161 H   0  0  0  0  0  0  0  0  0  0  0  0
   10.4870   14.3790   20.7486 H   0  0  0  0  0  0  0  0  0  0  0  0
   10.9555   13.8882   22.7009 H   0  0  0  0  0  0  0  0  0  0  0  0
  1  2  1  0  0  0  0
  1  3  2  0  0  0  0
  1 16  1  0  0  0  0
  2  8  1  0  0  0  0
  2  9  2  0  0  0  0
  3  6  1  0  0  0  0
  3 10  1  0  0  0  0
  4  7  1  0  0  0  0
  4 11  1  0  0  0  0
  4 12  2  0  0  0  0
  5 10  1  0  0  0  0
  6 11  1  0  0  0  0
  7 17  1  0  0  0  0
  8 13  1  0  0  0  0
  8 14  1  0  0  0  0
  8 15  1  0  0  0  0
  9 10  1  0  0  0  0
  5 18  1  0  0  0  0
  5 19  1  0  0  0  0
  5 20  1  0  0  0  0
  6 21  1  0  0  0  0
  6 22  1  0  0  0  0
  7 23  1  0  0  0  0
  7 24  1  0  0  0  0
 11 25  1  0  0  0  0
M  END
> <idnumber>
Z3254200631

> <heavy_atoms>
17

> <LogS>
-2.446

> <LogP>
1.248

> <rotating_bonds>
4

> <PSA>
46.92

> <hb_acceptors>
2

> <hb_donors>
1

> <Collection>
Functional

> <link>
https://www.enaminestore.com/catalog/Z3254200631

> <ROCS_ShapeQuery>
_x1140_x0812_0A_x1140_0A_x1097_0A_x0365_0A_x1097_0A_x0310_0A

> <ROCS_TanimotoCombo>
0.624 

> <ROCS_ShapeTanimoto>
0.258 

> <ROCS_ColorTanimoto>
0.365 

> <ROCS_RefTversky>
0.230 

> <ROCS_RefColorTversky>
0.412 

> <ROCS_RefTverskyCombo>
0.642 

> <ROCS_FitTversky>
1.905 

> <ROCS_FitColorTversky>
0.764 

> <ROCS_FitTverskyCombo>
2.669 

> <ROCS_ColorScore>
-3.210

> <ROCS_Overlap>
2361.049

> <ROCS_Rank>
489                 

$$$$
untitled-dbase-876737_37
  -OEChem-02092421083D

 30 32  0     0  0  0  0  0  0999 V2000
    7.0601   14.1959   26.2788 C   0  0  0  0  0  0  0  0  0  0  0  0
    8.1589   14.6938   25.5875 C   0  0  0  0  0  0  0  0  0  0  0  0
   11.6990   13.1050   21.0136 C   0  0  0  0  0  0  0  0  0  0  0  0
    6.7565   12.8403   26.2006 C   0  0  0  0  0  0  0  0  0  0  0  0
    8.9519   13.8356   24.8200 C   0  0  0  0  0  0  0  0  0  0  0  0
   12.2453   12.1421   21.8953 C   0  0  0  0  0  0  0  0  0  0  0  0
   10.4579   12.6334   20.6543 C   0  0  0  0  0  0  0  0  0  0  0  0
    7.5588   11.9838   25.4267 C   0  0  0  0  0  0  0  0  0  0  0  0
    8.6713   12.4747   24.7242 C   0  0  0  0  0  0  0  0  0  0  0  0
   11.2990   11.1508   22.0123 C   0  0  0  0  0  0  0  0  0  0  0  0
    7.3104   10.6194   25.3067 C   0  0  0  0  0  0  0  0  0  0  0  0
    9.1000   10.3615   23.9454 C   0  0  0  0  0  0  0  0  0  0  0  0
   11.2508    9.8631   22.7828 C   0  0  0  0  0  0  0  0  0  0  0  0
    9.4455   11.6645   23.9812 N   0  0  0  0  0  0  0  0  0  0  0  0
    8.0644    9.7803   24.5719 N   0  0  0  0  0  0  0  0  0  0  0  0
    6.2045   10.0520   25.9875 N   0  0  0  0  0  0  0  0  0  0  0  0
    9.9171    9.5167   23.1627 N   0  0  0  0  0  0  0  0  0  0  0  0
   10.2063   11.4427   21.2589 O   0  0  0  0  0  0  0  0  0  0  0  0
    6.4434   14.8611   26.8754 H   0  0  0  0  0  0  0  0  0  0  0  0
    8.4026   15.7509   25.6433 H   0  0  0  0  0  0  0  0  0  0  0  0
   12.1531   14.0272   20.6811 H   0  0  0  0  0  0  0  0  0  0  0  0
    5.8923   12.4752   26.7495 H   0  0  0  0  0  0  0  0  0  0  0  0
    9.8059   14.2505   24.2877 H   0  0  0  0  0  0  0  0  0  0  0  0
   13.2094   12.1701   22.3829 H   0  0  0  0  0  0  0  0  0  0  0  0
    9.6736   13.0066   20.0122 H   0  0  0  0  0  0  0  0  0  0  0  0
   11.6556    9.0397   22.1843 H   0  0  0  0  0  0  0  0  0  0  0  0
   11.8525    9.9284   23.6953 H   0  0  0  0  0  0  0  0  0  0  0  0
    5.6526   10.6348   26.5782 H   0  0  0  0  0  0  0  0  0  0  0  0
    6.0611    9.0671   25.9346 H   0  0  0  0  0  0  0  0  0  0  0  0
    9.5200    8.6436   22.8736 H   0  0  0  0  0  0  0  0  0  0  0  0
  1  2  1  0  0  0  0
  1  4  2  0  0  0  0
  2  5  2  0  0  0  0
  3  6  1  0  0  0  0
  3  7  2  0  0  0  0
  4  8  1  0  0  0  0
  5  9  1  0  0  0  0
  6 10  2  0  0  0  0
  7 18  1  0  0  0  0
  8  9  1  0  0  0  0
  8 11  2  0  0  0  0
  9 14  2  0  0  0  0
 10 13  1  0  0  0  0
 10 18  1  0  0  0  0
 11 15  1  0  0  0  0
 11 16  1  0  0  0  0
 12 14  1  0  0  0  0
 12 15  2  0  0  0  0
 12 17  1  0  0  0  0
 13 17  1  0  0  0  0
  1 19  1  0  0  0  0
  2 20  1  0  0  0  0
  3 21  1  0  0  0  0
  4 22  1  0  0  0  0
  5 23  1  0  0  0  0
  6 24  1  0  0  0  0
  7 25  1  0  0  0  0
 13 26  1  0  0  0  0
 13 27  1  0  0  0  0
 16 28  1  0  0  0  0
 16 29  1  0  0  0  0
 17 30  1  0  0  0  0
M  END
> <idnumber>
Z1478451611

> <heavy_atoms>
18

> <LogS>
-4.033

> <LogP>
2.495

> <rotating_bonds>
3

> <PSA>
76.97

> <hb_acceptors>
4

> <hb_donors>
2

> <Collection>
Advanced

> <link>
https://www.enaminestore.com/catalog/Z1478451611

> <ROCS_ShapeQuery>
_x1140_x0812_0A_x1140_0A_x1097_0A_x0365_0A_x1097_0A_x0310_0A

> <ROCS_TanimotoCombo>
0.624 

> <ROCS_ShapeTanimoto>
0.253 

> <ROCS_ColorTanimoto>
0.371 

> <ROCS_RefTversky>
0.228 

> <ROCS_RefColorTversky>
0.572 

> <ROCS_RefTverskyCombo>
0.800 

> <ROCS_FitTversky>
1.752 

> <ROCS_FitColorTversky>
0.513 

> <ROCS_FitTverskyCombo>
2.265 

> <ROCS_ColorScore>
-4.603

> <ROCS_Overlap>
2340.567

> <ROCS_Rank>
490                 

$$$$
untitled-dbase-799022_7
  -OEChem-02092421083D

 28 28  0     0  0  0  0  0  0999 V2000
    8.4795   12.4323   24.2292 C   0  0  0  0  0  0  0  0  0  0  0  0
    7.4913   11.9737   25.0932 C   0  0  0  0  0  0  0  0  0  0  0  0
    8.9798   10.1717   23.6850 C   0  0  0  0  0  0  0  0  0  0  0  0
    9.2424   11.5206   23.5080 C   0  0  0  0  0  0  0  0  0  0  0  0
    7.3070   10.6045   25.1992 C   0  0  0  0  0  0  0  0  0  0  0  0
   10.2955   11.9729   22.5851 C   0  0  0  0  0  0  0  0  0  0  0  0
    5.4568   10.9181   26.8733 C   0  0  0  0  0  0  0  0  0  0  0  0
    4.5178   10.0495   27.6722 C   0  0  0  0  0  0  0  0  0  0  0  0
   12.4152   13.1737   22.2129 C   0  0  0  0  0  0  0  0  0  0  0  0
   11.4906   13.1263   24.5024 C   0  0  0  0  0  0  0  0  0  0  0  0
    8.0284    9.6885   24.5150 N   0  0  0  0  0  0  0  0  0  0  0  0
    6.3110   10.1529   26.0734 N   0  0  0  0  0  0  0  0  0  0  0  0
   11.3523   12.7286   23.1031 N   0  0  0  0  0  0  0  0  0  0  0  0
   10.1704   11.6346   21.4086 O   0  0  0  0  0  0  0  0  0  0  0  0
    5.4132   12.1406   26.9656 O   0  0  0  0  0  0  0  0  0  0  0  0
    8.6462   13.5011   24.1249 H   0  0  0  0  0  0  0  0  0  0  0  0
    6.8907   12.6783   25.6592 H   0  0  0  0  0  0  0  0  0  0  0  0
    9.5421    9.4126   23.1498 H   0  0  0  0  0  0  0  0  0  0  0  0
    4.9729    9.8002   28.6349 H   0  0  0  0  0  0  0  0  0  0  0  0
    4.3148    9.1240   27.1259 H   0  0  0  0  0  0  0  0  0  0  0  0
    3.5733   10.5757   27.8388 H   0  0  0  0  0  0  0  0  0  0  0  0
   12.1556   14.1571   21.7940 H   0  0  0  0  0  0  0  0  0  0  0  0
   13.3565   13.2524   22.7766 H   0  0  0  0  0  0  0  0  0  0  0  0
   12.5369   12.4477   21.3956 H   0  0  0  0  0  0  0  0  0  0  0  0
   12.0526   12.3550   25.0495 H   0  0  0  0  0  0  0  0  0  0  0  0
   12.0304   14.0831   24.5599 H   0  0  0  0  0  0  0  0  0  0  0  0
   10.4929   13.2406   24.9513 H   0  0  0  0  0  0  0  0  0  0  0  0
    6.1919    9.1373   26.1351 H   0  0  0  0  0  0  0  0  0  0  0  0
  1  2  2  0  0  0  0
  1  4  1  0  0  0  0
  2  5  1  0  0  0  0
  3  4  2  0  0  0  0
  3 11  1  0  0  0  0
  4  6  1  0  0  0  0
  5 11  2  0  0  0  0
  5 12  1  0  0  0  0
  6 13  1  0  0  0  0
  6 14  2  0  0  0  0
  7  8  1  0  0  0  0
  7 12  1  0  0  0  0
  7 15  2  0  0  0  0
  9 13  1  0  0  0  0
 10 13  1  0  0  0  0
  1 16  1  0  0  0  0
  2 17  1  0  0  0  0
  3 18  1  0  0  0  0
  8 19  1  0  0  0  0
  8 20  1  0  0  0  0
  8 21  1  0  0  0  0
  9 22  1  0  0  0  0
  9 23  1  0  0  0  0
  9 24  1  0  0  0  0
 10 25  1  0  0  0  0
 10 26  1  0  0  0  0
 10 27  1  0  0  0  0
 12 28  1  0  0  0  0
M  END
> <idnumber>
Z1940299777

> <heavy_atoms>
15

> <LogS>
-1.22

> <LogP>
-0.59

> <rotating_bonds>
2

> <PSA>
62.3

> <hb_acceptors>
3

> <hb_donors>
1

> <Collection>
HTS

> <link>
https://www.enaminestore.com/catalog/Z1940299777

> <ROCS_ShapeQuery>
_x1140_x0812_0A_x1140_0A_x1097_0A_x0365_0A_x1097_0A_x0310_0A

> <ROCS_TanimotoCombo>
0.624 

> <ROCS_ShapeTanimoto>
0.244 

> <ROCS_ColorTanimoto>
0.379 

> <ROCS_RefTversky>
0.219 

> <ROCS_RefColorTversky>
0.455 

> <ROCS_RefTverskyCombo>
0.674 

> <ROCS_FitTversky>
1.929 

> <ROCS_FitColorTversky>
0.694 

> <ROCS_FitTverskyCombo>
2.623 

> <ROCS_ColorScore>
-3.575

> <ROCS_Overlap>
2240.789

> <ROCS_Rank>
491                 

$$$$
untitled-dbase-407346_18
  -OEChem-02092421083D

 32 34  0     0  0  0  0  0  0999 V2000
    8.3530   12.6524   24.1425 C   0  0  0  0  0  0  0  0  0  0  0  0
    7.3654   12.0599   24.9215 C   0  0  0  0  0  0  0  0  0  0  0  0
   10.7848   14.0558   25.3297 C   0  0  0  0  0  0  0  0  0  0  0  0
    9.2525   10.4896   23.7302 C   0  0  0  0  0  0  0  0  0  0  0  0
   12.0576   15.4113   21.7006 C   0  0  0  0  0  0  0  0  0  0  0  0
   11.1531   14.3595   23.9812 C   0  0  0  0  0  0  0  0  0  0  0  0
    9.3183   11.8593   23.5320 C   0  0  0  0  0  0  0  0  0  0  0  0
   11.1651   15.0409   26.2151 C   0  0  0  0  0  0  0  0  0  0  0  0
    7.3869   10.6811   25.0574 C   0  0  0  0  0  0  0  0  0  0  0  0
   10.9830   13.6795   22.7710 C   0  0  0  0  0  0  0  0  0  0  0  0
   11.8066   15.5829   23.9107 C   0  0  0  0  0  0  0  0  0  0  0  0
   10.9634   15.0892   27.6794 C   0  0  0  0  0  0  0  0  0  0  0  0
    6.2856    8.6856   26.0726 C   0  0  0  0  0  0  0  0  0  0  0  0
    8.3083    9.8779   24.4799 N   0  0  0  0  0  0  0  0  0  0  0  0
   11.4421   14.2154   21.6199 N   0  0  0  0  0  0  0  0  0  0  0  0
   12.2842   16.1634   22.7924 N   0  0  0  0  0  0  0  0  0  0  0  0
   10.3329   12.4312   22.7370 N   0  0  0  0  0  0  0  0  0  0  0  0
    6.3745   10.0927   25.8558 N   0  0  0  0  0  0  0  0  0  0  0  0
   11.9663   16.3337   25.4322 S   0  0  0  0  0  0  0  0  0  0  0  0
    8.3615   13.7319   24.0173 H   0  0  0  0  0  0  0  0  0  0  0  0
    6.6087   12.6712   25.4020 H   0  0  0  0  0  0  0  0  0  0  0  0
   10.2646   13.1562   25.6357 H   0  0  0  0  0  0  0  0  0  0  0  0
    9.9779    9.8188   23.2798 H   0  0  0  0  0  0  0  0  0  0  0  0
   12.4171   15.8200   20.7627 H   0  0  0  0  0  0  0  0  0  0  0  0
   11.8114   14.6283   28.2097 H   0  0  0  0  0  0  0  0  0  0  0  0
   10.8581   16.1235   28.0458 H   0  0  0  0  0  0  0  0  0  0  0  0
   10.0460   14.5602   27.9854 H   0  0  0  0  0  0  0  0  0  0  0  0
    7.1020    8.1792   25.5369 H   0  0  0  0  0  0  0  0  0  0  0  0
    6.3673    8.4748   27.1491 H   0  0  0  0  0  0  0  0  0  0  0  0
    5.3185    8.3176   25.6993 H   0  0  0  0  0  0  0  0  0  0  0  0
   10.6578   11.8204   21.9919 H   0  0  0  0  0  0  0  0  0  0  0  0
    5.7110   10.7161   26.2682 H   0  0  0  0  0  0  0  0  0  0  0  0
  1  2  2  0  0  0  0
  1  7  1  0  0  0  0
  2  9  1  0  0  0  0
  3  6  1  0  0  0  0
  3  8  2  0  0  0  0
  4  7  2  0  0  0  0
  4 14  1  0  0  0  0
  5 15  2  0  0  0  0
  5 16  1  0  0  0  0
  6 10  2  0  0  0  0
  6 11  1  0  0  0  0
  7 17  1  0  0  0  0
  8 12  1  0  0  0  0
  8 19  1  0  0  0  0
  9 14  2  0  0  0  0
  9 18  1  0  0  0  0
 10 15  1  0  0  0  0
 10 17  1  0  0  0  0
 11 16  2  0  0  0  0
 11 19  1  0  0  0  0
 13 18  1  0  0  0  0
  1 20  1  0  0  0  0
  2 21  1  0  0  0  0
  3 22  1  0  0  0  0
  4 23  1  0  0  0  0
  5 24  1  0  0  0  0
 12 25  1  0  0  0  0
 12 26  1  0  0  0  0
 12 27  1  0  0  0  0
 13 28  1  0  0  0  0
 13 29  1  0  0  0  0
 13 30  1  0  0  0  0
 17 31  1  0  0  0  0
 18 32  1  0  0  0  0
M  END
> <idnumber>
Z1537081226

> <heavy_atoms>
19

> <LogS>
-4.363

> <LogP>
3.275

> <rotating_bonds>
3

> <PSA>
62.73

> <hb_acceptors>
5

> <hb_donors>
2

> <Collection>
HTS

> <link>
https://www.enaminestore.com/catalog/Z1537081226

> <ROCS_ShapeQuery>
_x1140_x0812_0A_x1140_0A_x1097_0A_x0365_0A_x1097_0A_x0310_0A

> <ROCS_TanimotoCombo>
0.624 

> <ROCS_ShapeTanimoto>
0.220 

> <ROCS_ColorTanimoto>
0.404 

> <ROCS_RefTversky>
0.204 

> <ROCS_RefColorTversky>
0.576 

> <ROCS_RefTverskyCombo>
0.780 

> <ROCS_FitTversky>
1.543 

> <ROCS_FitColorTversky>
0.575 

> <ROCS_FitTverskyCombo>
2.118 

> <ROCS_ColorScore>
-4.608

> <ROCS_Overlap>
2093.392

> <ROCS_Rank>
492                 

$$$$
untitled-dbase-528415_1
  -OEChem-02092421083D

 43 44  0     1  0  0  0  0  0999 V2000
   10.3971   11.6016   22.4482 C   0  0  0  0  0  0  0  0  0  0  0  0
    7.2463   10.1108   25.1051 C   0  0  0  0  0  0  0  0  0  0  0  0
   12.3884   12.1146   23.9072 C   0  0  0  0  0  0  0  0  0  0  0  0
   12.7187   11.0009   21.6691 C   0  0  0  0  0  0  0  0  0  0  0  0
    8.0374   11.5277   23.2160 C   0  0  0  0  0  0  0  0  0  0  0  0
    9.7286   12.0299   24.8591 C   0  0  0  0  0  0  0  0  0  0  0  0
   13.8602   11.8200   24.1829 C   0  0  0  0  0  0  0  0  0  0  0  0
   14.1701   10.7753   22.0836 C   0  0  0  0  0  0  0  0  0  0  0  0
    7.3895   11.5144   24.5950 C   0  0  2  0  0  0  0  0  0  0  0  0
    8.3589   12.3088   25.4837 C   0  0  2  0  0  0  0  0  0  0  0  0
   11.7890   11.1321   22.8871 C   0  0  0  0  0  0  0  0  0  0  0  0
   11.0056    8.8000   22.5774 C   0  0  0  0  0  0  0  0  0  0  0  0
   11.5991    9.7806   23.5313 C   0  0  0  0  0  0  0  0  0  0  0  0
    8.0350   13.8024   25.4707 C   0  0  0  0  0  0  0  0  0  0  0  0
    9.4595   11.7223   23.4591 N   0  0  0  0  0  0  0  0  0  0  0  0
    6.1870    9.9385   25.9644 N   0  0  0  0  0  0  0  0  0  0  0  0
   10.1688   11.8515   21.2633 O   0  0  0  0  0  0  0  0  0  0  0  0
    8.0070    9.2100   24.7599 O   0  0  0  0  0  0  0  0  0  0  0  0
   14.6094   11.8028   22.9696 O   0  0  0  0  0  0  0  0  0  0  0  0
    8.9362   14.4812   26.2007 F   0  0  0  0  0  0  0  0  0  0  0  0
    8.0588   14.2734   24.2124 F   0  0  0  0  0  0  0  0  0  0  0  0
    6.8134   14.0187   25.9873 F   0  0  0  0  0  0  0  0  0  0  0  0
   11.8391   12.0207   24.8534 H   0  0  0  0  0  0  0  0  0  0  0  0
   12.2798   13.1528   23.5711 H   0  0  0  0  0  0  0  0  0  0  0  0
   12.6561   11.8850   21.0233 H   0  0  0  0  0  0  0  0  0  0  0  0
   12.3973   10.1383   21.0702 H   0  0  0  0  0  0  0  0  0  0  0  0
    7.9137   10.5805   22.6740 H   0  0  0  0  0  0  0  0  0  0  0  0
    7.6517   12.3327   22.5783 H   0  0  0  0  0  0  0  0  0  0  0  0
   10.3847   12.9101   24.8853 H   0  0  0  0  0  0  0  0  0  0  0  0
   10.2455   11.1959   25.3486 H   0  0  0  0  0  0  0  0  0  0  0  0
   14.2971   12.5508   24.8733 H   0  0  0  0  0  0  0  0  0  0  0  0
   13.9581   10.8335   24.6475 H   0  0  0  0  0  0  0  0  0  0  0  0
   14.2584    9.8207   22.6122 H   0  0  0  0  0  0  0  0  0  0  0  0
   14.8370   10.7305   21.2147 H   0  0  0  0  0  0  0  0  0  0  0  0
    6.4011   11.9789   24.5681 H   0  0  0  0  0  0  0  0  0  0  0  0
    8.3341   11.9514   26.5045 H   0  0  0  0  0  0  0  0  0  0  0  0
   10.0336    9.1713   22.2319 H   0  0  0  0  0  0  0  0  0  0  0  0
   10.8465    7.8297   23.0597 H   0  0  0  0  0  0  0  0  0  0  0  0
   11.6489    8.6660   21.7013 H   0  0  0  0  0  0  0  0  0  0  0  0
   12.5675    9.4191   23.8807 H   0  0  0  0  0  0  0  0  0  0  0  0
   10.9484    9.8940   24.3997 H   0  0  0  0  0  0  0  0  0  0  0  0
    5.6023   10.7384   26.1833 H   0  0  0  0  0  0  0  0  0  0  0  0
    5.9663    9.0433   26.3886 H   0  0  0  0  0  0  0  0  0  0  0  0
  1 11  1  0  0  0  0
  1 15  1  0  0  0  0
  1 17  2  0  0  0  0
  2  9  1  1  0  0  0
  2 16  1  0  0  0  0
  2 18  2  0  0  0  0
  3  7  1  0  0  0  0
  3 11  1  0  0  0  0
  4  8  1  0  0  0  0
  4 11  1  0  0  0  0
  5  9  1  0  0  0  0
  5 15  1  0  0  0  0
  6 10  1  0  0  0  0
  6 15  1  0  0  0  0
  7 19  1  0  0  0  0
  8 19  1  0  0  0  0
  9 10  1  0  0  0  0
 10 14  1  6  0  0  0
 11 13  1  0  0  0  0
 12 13  1  0  0  0  0
 14 20  1  0  0  0  0
 14 21  1  0  0  0  0
 14 22  1  0  0  0  0
  3 23  1  0  0  0  0
  3 24  1  0  0  0  0
  4 25  1  0  0  0  0
  4 26  1  0  0  0  0
  5 27  1  0  0  0  0
  5 28  1  0  0  0  0
  6 29  1  0  0  0  0
  6 30  1  0  0  0  0
  7 31  1  0  0  0  0
  7 32  1  0  0  0  0
  8 33  1  0  0  0  0
  8 34  1  0  0  0  0
  9 35  1  0  0  0  0
 10 36  1  0  0  0  0
 12 37  1  0  0  0  0
 12 38  1  0  0  0  0
 12 39  1  0  0  0  0
 13 40  1  0  0  0  0
 13 41  1  0  0  0  0
 16 42  1  0  0  0  0
 16 43  1  0  0  0  0
M  END
> <idnumber>
Z2059372057

> <heavy_atoms>
22

> <LogS>
-2.6

> <LogP>
-0.406

> <rotating_bonds>
4

> <PSA>
72.63

> <hb_acceptors>
3

> <hb_donors>
1

> <Collection>
Advanced

> <link>
https://www.enaminestore.com/catalog/Z2059372057

> <ROCS_ShapeQuery>
_x1140_x0812_0A_x1140_0A_x1097_0A_x0365_0A_x1097_0A_x0310_0A

> <ROCS_TanimotoCombo>
0.623 

> <ROCS_ShapeTanimoto>
0.238 

> <ROCS_ColorTanimoto>
0.386 

> <ROCS_RefTversky>
0.219 

> <ROCS_RefColorTversky>
0.525 

> <ROCS_RefTverskyCombo>
0.745 

> <ROCS_FitTversky>
1.530 

> <ROCS_FitColorTversky>
0.592 

> <ROCS_FitTverskyCombo>
2.123 

> <ROCS_ColorScore>
-4.177

> <ROCS_Overlap>
2253.667

> <ROCS_Rank>
493                 

$$$$
untitled-dbase-209738_95
  -OEChem-02092421083D

 25 25  0     0  0  0  0  0  0999 V2000
    7.9928   11.7886   25.6527 C   0  0  0  0  0  0  0  0  0  0  0  0
    8.6915   12.4957   24.6805 C   0  0  0  0  0  0  0  0  0  0  0  0
    7.8043   10.4300   25.4568 C   0  0  0  0  0  0  0  0  0  0  0  0
    9.1736   11.8318   23.5579 C   0  0  0  0  0  0  0  0  0  0  0  0
    8.9324   10.4712   23.4558 C   0  0  0  0  0  0  0  0  0  0  0  0
    9.9029   12.5967   22.5548 C   0  0  0  0  0  0  0  0  0  0  0  0
   12.5034   15.0678   22.9681 C   0  0  0  0  0  0  0  0  0  0  0  0
   11.1365    9.0432   22.6710 C   0  0  0  0  0  0  0  0  0  0  0  0
   11.8222   13.9635   22.1948 C   0  0  0  0  0  0  0  0  0  0  0  0
    8.2577    9.7506   24.3795 N   0  0  0  0  0  0  0  0  0  0  0  0
   13.3184   14.5827   23.9675 N   0  0  0  0  0  0  0  0  0  0  0  0
    9.5563   12.7056   21.3727 O   0  0  0  0  0  0  0  0  0  0  0  0
   12.3454   16.2617   22.7306 O   0  0  0  0  0  0  0  0  0  0  0  0
   11.0195   13.1808   23.0851 O   0  0  0  0  0  0  0  0  0  0  0  0
    9.5145    9.5323   22.0481 S   0  0  0  0  0  0  0  0  0  0  0  0
    7.6077   12.2851   26.5358 H   0  0  0  0  0  0  0  0  0  0  0  0
    8.8532   13.5627   24.8106 H   0  0  0  0  0  0  0  0  0  0  0  0
    7.2652    9.8336   26.1854 H   0  0  0  0  0  0  0  0  0  0  0  0
   11.6568    8.4420   21.9213 H   0  0  0  0  0  0  0  0  0  0  0  0
   11.0211    8.4533   23.5836 H   0  0  0  0  0  0  0  0  0  0  0  0
   11.7323    9.9319   22.8928 H   0  0  0  0  0  0  0  0  0  0  0  0
   12.5779   13.3212   21.7324 H   0  0  0  0  0  0  0  0  0  0  0  0
   11.1820   14.4003   21.4223 H   0  0  0  0  0  0  0  0  0  0  0  0
   13.4153   13.5849   24.1240 H   0  0  0  0  0  0  0  0  0  0  0  0
   13.8494   15.1944   24.5795 H   0  0  0  0  0  0  0  0  0  0  0  0
  1  2  2  0  0  0  0
  1  3  1  0  0  0  0
  2  4  1  0  0  0  0
  3 10  2  0  0  0  0
  4  5  2  0  0  0  0
  4  6  1  0  0  0  0
  5 10  1  0  0  0  0
  5 15  1  0  0  0  0
  6 12  2  0  0  0  0
  6 14  1  0  0  0  0
  7  9  1  0  0  0  0
  7 11  1  0  0  0  0
  7 13  2  0  0  0  0
  8 15  1  0  0  0  0
  9 14  1  0  0  0  0
  1 16  1  0  0  0  0
  2 17  1  0  0  0  0
  3 18  1  0  0  0  0
  8 19  1  0  0  0  0
  8 20  1  0  0  0  0
  8 21  1  0  0  0  0
  9 22  1  0  0  0  0
  9 23  1  0  0  0  0
 11 24  1  0  0  0  0
 11 25  1  0  0  0  0
M  END
> <idnumber>
Z18837695

> <heavy_atoms>
15

> <LogS>
-2.02

> <LogP>
0.396

> <rotating_bonds>
5

> <PSA>
82.28

> <hb_acceptors>
3

> <hb_donors>
1

> <Collection>
Functional

> <link>
https://www.enaminestore.com/catalog/Z18837695

> <ROCS_ShapeQuery>
_x1140_x0812_0A_x1140_0A_x1097_0A_x0365_0A_x1097_0A_x0310_0A

> <ROCS_TanimotoCombo>
0.623 

> <ROCS_ShapeTanimoto>
0.225 

> <ROCS_ColorTanimoto>
0.399 

> <ROCS_RefTversky>
0.204 

> <ROCS_RefColorTversky>
0.505 

> <ROCS_RefTverskyCombo>
0.709 

> <ROCS_FitTversky>
1.827 

> <ROCS_FitColorTversky>
0.654 

> <ROCS_FitTverskyCombo>
2.482 

> <ROCS_ColorScore>
-3.991

> <ROCS_Overlap>
2091.680

> <ROCS_Rank>
494                 

$$$$
untitled-dbase-93238_104
  -OEChem-02092421083D

 28 29  0     0  0  0  0  0  0999 V2000
   10.2876   17.1113   23.1943 C   0  0  0  0  0  0  0  0  0  0  0  0
   10.2002   15.7063   23.0470 C   0  0  0  0  0  0  0  0  0  0  0  0
    8.5502   12.4602   24.4508 C   0  0  0  0  0  0  0  0  0  0  0  0
    9.0404   10.2436   23.7418 C   0  0  0  0  0  0  0  0  0  0  0  0
   11.6045   17.4379   22.9685 C   0  0  0  0  0  0  0  0  0  0  0  0
    9.2794   11.6040   23.6332 C   0  0  0  0  0  0  0  0  0  0  0  0
    7.6174   11.9372   25.3394 C   0  0  0  0  0  0  0  0  0  0  0  0
   11.4700   15.2746   22.7414 C   0  0  0  0  0  0  0  0  0  0  0  0
    7.4526   10.5618   25.3714 C   0  0  0  0  0  0  0  0  0  0  0  0
   10.2744   12.1264   22.6833 C   0  0  0  0  0  0  0  0  0  0  0  0
   11.8396   12.5840   24.5312 C   0  0  0  0  0  0  0  0  0  0  0  0
   12.0552   13.9198   22.4653 C   0  0  0  0  0  0  0  0  0  0  0  0
    8.1426    9.6984   24.5928 N   0  0  0  0  0  0  0  0  0  0  0  0
   11.3514   12.8625   23.1879 N   0  0  0  0  0  0  0  0  0  0  0  0
   10.0867   11.8600   21.4967 O   0  0  0  0  0  0  0  0  0  0  0  0
   12.3319   16.3240   22.6917 O   0  0  0  0  0  0  0  0  0  0  0  0
    6.7222   13.0128   26.3421 Cl  0  0  0  0  0  0  0  0  0  0  0  0
    6.3353    9.7738   26.4193 Cl  0  0  0  0  0  0  0  0  0  0  0  0
    9.4905   17.7996   23.4353 H   0  0  0  0  0  0  0  0  0  0  0  0
    9.3199   15.0883   23.1516 H   0  0  0  0  0  0  0  0  0  0  0  0
    8.7129   13.5339   24.3904 H   0  0  0  0  0  0  0  0  0  0  0  0
    9.5781    9.5251   23.1303 H   0  0  0  0  0  0  0  0  0  0  0  0
   12.1543   18.3676   22.9675 H   0  0  0  0  0  0  0  0  0  0  0  0
   12.6224   11.8126   24.4848 H   0  0  0  0  0  0  0  0  0  0  0  0
   12.2566   13.5036   24.9677 H   0  0  0  0  0  0  0  0  0  0  0  0
   11.0084   12.2256   25.1563 H   0  0  0  0  0  0  0  0  0  0  0  0
   12.0051   13.6883   21.3958 H   0  0  0  0  0  0  0  0  0  0  0  0
   13.1098   13.8803   22.7576 H   0  0  0  0  0  0  0  0  0  0  0  0
  1  2  1  0  0  0  0
  1  5  2  0  0  0  0
  2  8  2  0  0  0  0
  3  6  2  0  0  0  0
  3  7  1  0  0  0  0
  4  6  1  0  0  0  0
  4 13  2  0  0  0  0
  5 16  1  0  0  0  0
  6 10  1  0  0  0  0
  7  9  2  0  0  0  0
  7 17  1  0  0  0  0
  8 12  1  0  0  0  0
  8 16  1  0  0  0  0
  9 13  1  0  0  0  0
  9 18  1  0  0  0  0
 10 14  1  0  0  0  0
 10 15  2  0  0  0  0
 11 14  1  0  0  0  0
 12 14  1  0  0  0  0
  1 19  1  0  0  0  0
  2 20  1  0  0  0  0
  3 21  1  0  0  0  0
  4 22  1  0  0  0  0
  5 23  1  0  0  0  0
 11 24  1  0  0  0  0
 11 25  1  0  0  0  0
 11 26  1  0  0  0  0
 12 27  1  0  0  0  0
 12 28  1  0  0  0  0
M  END
> <idnumber>
Z32456441

> <heavy_atoms>
18

> <LogS>
-3.808

> <LogP>
2.226

> <rotating_bonds>
3

> <PSA>
46.34

> <hb_acceptors>
2

> <hb_donors>
0

> <Collection>
Functional

> <link>
https://www.enaminestore.com/catalog/Z32456441

> <ROCS_ShapeQuery>
_x1140_x0812_0A_x1140_0A_x1097_0A_x0365_0A_x1097_0A_x0310_0A

> <ROCS_TanimotoCombo>
0.623 

> <ROCS_ShapeTanimoto>
0.240 

> <ROCS_ColorTanimoto>
0.383 

> <ROCS_RefTversky>
0.218 

> <ROCS_RefColorTversky>
0.459 

> <ROCS_RefTverskyCombo>
0.677 

> <ROCS_FitTversky>
1.731 

> <ROCS_FitColorTversky>
0.699 

> <ROCS_FitTverskyCombo>
2.431 

> <ROCS_ColorScore>
-3.602

> <ROCS_Overlap>
2236.922

> <ROCS_Rank>
495                 

$$$$
untitled-dbase-388823_72
  -OEChem-02092421083D

 39 40  0     0  0  0  0  0  0999 V2000
    9.4968   15.8484   19.7572 C   0  0  0  0  0  0  0  0  0  0  0  0
    9.8521   17.1204   20.2058 C   0  0  0  0  0  0  0  0  0  0  0  0
   10.0846   14.7187   20.3264 C   0  0  0  0  0  0  0  0  0  0  0  0
   10.7953   17.2628   21.2235 C   0  0  0  0  0  0  0  0  0  0  0  0
    9.0336   11.3362   23.4522 C   0  0  0  0  0  0  0  0  0  0  0  0
   11.0278   14.8611   21.3441 C   0  0  0  0  0  0  0  0  0  0  0  0
    8.0330   11.9718   24.2256 C   0  0  0  0  0  0  0  0  0  0  0  0
   11.3832   16.1331   21.7927 C   0  0  0  0  0  0  0  0  0  0  0  0
    9.0453   10.0197   23.8503 C   0  0  0  0  0  0  0  0  0  0  0  0
    7.5045   10.9982   25.0410 C   0  0  0  0  0  0  0  0  0  0  0  0
    9.9195   11.9239   22.4144 C   0  0  0  0  0  0  0  0  0  0  0  0
    7.6333   13.3909   24.1731 C   0  0  0  0  0  0  0  0  0  0  0  0
    9.8375    8.8471   23.4489 C   0  0  0  0  0  0  0  0  0  0  0  0
    6.4493   11.0016   26.0653 C   0  0  0  0  0  0  0  0  0  0  0  0
   12.6072   17.6254   23.1821 C   0  0  0  0  0  0  0  0  0  0  0  0
   11.6469   13.6409   21.9414 C   0  0  0  0  0  0  0  0  0  0  0  0
   10.7495   12.9545   22.8347 N   0  0  0  0  0  0  0  0  0  0  0  0
    9.8619   11.4966   21.2644 O   0  0  0  0  0  0  0  0  0  0  0  0
    8.1161    9.8054   24.8184 O   0  0  0  0  0  0  0  0  0  0  0  0
   12.3033   16.2898   22.7852 O   0  0  0  0  0  0  0  0  0  0  0  0
    8.7627   15.7370   18.9643 H   0  0  0  0  0  0  0  0  0  0  0  0
    9.3949   17.9997   19.7618 H   0  0  0  0  0  0  0  0  0  0  0  0
    9.8021   13.7320   19.9688 H   0  0  0  0  0  0  0  0  0  0  0  0
   11.0681   18.2564   21.5687 H   0  0  0  0  0  0  0  0  0  0  0  0
    6.8266   13.5503   23.4386 H   0  0  0  0  0  0  0  0  0  0  0  0
    7.2730   13.7566   25.1502 H   0  0  0  0  0  0  0  0  0  0  0  0
    8.4747   14.0485   23.8940 H   0  0  0  0  0  0  0  0  0  0  0  0
   10.7518    8.7506   24.0605 H   0  0  0  0  0  0  0  0  0  0  0  0
    9.2705    7.9037   23.5506 H   0  0  0  0  0  0  0  0  0  0  0  0
   10.1513    8.8961   22.3901 H   0  0  0  0  0  0  0  0  0  0  0  0
    5.4608   10.7794   25.6260 H   0  0  0  0  0  0  0  0  0  0  0  0
    6.6334   10.2549   26.8594 H   0  0  0  0  0  0  0  0  0  0  0  0
    6.3699   11.9757   26.5822 H   0  0  0  0  0  0  0  0  0  0  0  0
   13.3538   17.6084   23.9798 H   0  0  0  0  0  0  0  0  0  0  0  0
   11.6966   18.1188   23.5313 H   0  0  0  0  0  0  0  0  0  0  0  0
   13.0074   18.1692   22.3232 H   0  0  0  0  0  0  0  0  0  0  0  0
   11.9465   12.9282   21.1610 H   0  0  0  0  0  0  0  0  0  0  0  0
   12.5524   13.8881   22.5113 H   0  0  0  0  0  0  0  0  0  0  0  0
   10.6935   13.2943   23.7917 H   0  0  0  0  0  0  0  0  0  0  0  0
  1  2  1  0  0  0  0
  1  3  2  0  0  0  0
  2  4  2  0  0  0  0
  3  6  1  0  0  0  0
  4  8  1  0  0  0  0
  5  7  1  0  0  0  0
  5  9  2  0  0  0  0
  5 11  1  0  0  0  0
  6  8  2  0  0  0  0
  6 16  1  0  0  0  0
  7 10  2  0  0  0  0
  7 12  1  0  0  0  0
  8 20  1  0  0  0  0
  9 13  1  0  0  0  0
  9 19  1  0  0  0  0
 10 14  1  0  0  0  0
 10 19  1  0  0  0  0
 11 17  1  0  0  0  0
 11 18  2  0  0  0  0
 15 20  1  0  0  0  0
 16 17  1  0  0  0  0
  1 21  1  0  0  0  0
  2 22  1  0  0  0  0
  3 23  1  0  0  0  0
  4 24  1  0  0  0  0
 12 25  1  0  0  0  0
 12 26  1  0  0  0  0
 12 27  1  0  0  0  0
 13 28  1  0  0  0  0
 13 29  1  0  0  0  0
 13 30  1  0  0  0  0
 14 31  1  0  0  0  0
 14 32  1  0  0  0  0
 14 33  1  0  0  0  0
 15 34  1  0  0  0  0
 15 35  1  0  0  0  0
 15 36  1  0  0  0  0
 16 37  1  0  0  0  0
 16 38  1  0  0  0  0
 17 39  1  0  0  0  0
M  END
> <idnumber>
Z131221354

> <heavy_atoms>
20

> <LogS>
-2.99

> <LogP>
2.691

> <rotating_bonds>
4

> <PSA>
51.47

> <hb_acceptors>
2

> <hb_donors>
1

> <Collection>
Legacy

> <link>
https://www.enaminestore.com/catalog/Z131221354

> <ROCS_ShapeQuery>
_x1140_x0812_0A_x1140_0A_x1097_0A_x0365_0A_x1097_0A_x0310_0A

> <ROCS_TanimotoCombo>
0.623 

> <ROCS_ShapeTanimoto>
0.242 

> <ROCS_ColorTanimoto>
0.381 

> <ROCS_RefTversky>
0.221 

> <ROCS_RefColorTversky>
0.489 

> <ROCS_RefTverskyCombo>
0.710 

> <ROCS_FitTversky>
1.639 

> <ROCS_FitColorTversky>
0.633 

> <ROCS_FitTverskyCombo>
2.272 

> <ROCS_ColorScore>
-3.862

> <ROCS_Overlap>
2273.656

> <ROCS_Rank>
496                 

$$$$
untitled-dbase-852053_98
  -OEChem-02092421083D

 36 37  0     0  0  0  0  0  0999 V2000
    5.9326   12.6682   27.0480 C   0  0  0  0  0  0  0  0  0  0  0  0
    5.8683   11.3156   27.3695 C   0  0  0  0  0  0  0  0  0  0  0  0
    6.7953   13.1071   26.0433 C   0  0  0  0  0  0  0  0  0  0  0  0
    6.6664   10.3968   26.6874 C   0  0  0  0  0  0  0  0  0  0  0  0
    8.4798   12.6205   24.3322 C   0  0  0  0  0  0  0  0  0  0  0  0
    8.3511    9.9101   24.9763 C   0  0  0  0  0  0  0  0  0  0  0  0
    7.6058   12.1964   25.3463 C   0  0  0  0  0  0  0  0  0  0  0  0
    7.5405   10.8209   25.6732 C   0  0  0  0  0  0  0  0  0  0  0  0
    9.2780   11.7017   23.6501 C   0  0  0  0  0  0  0  0  0  0  0  0
    9.2137   10.3491   23.9715 C   0  0  0  0  0  0  0  0  0  0  0  0
   10.1720   12.1793   22.6042 C   0  0  0  0  0  0  0  0  0  0  0  0
   11.4208   15.4845   22.4909 C   0  0  0  0  0  0  0  0  0  0  0  0
    9.5390   16.9678   23.1786 C   0  0  0  0  0  0  0  0  0  0  0  0
   11.7663   13.1694   24.2640 C   0  0  0  0  0  0  0  0  0  0  0  0
   11.6719   14.0907   21.9746 C   0  0  0  0  0  0  0  0  0  0  0  0
   10.0666   15.7156   22.6864 N   0  0  0  0  0  0  0  0  0  0  0  0
   11.1687   13.1133   22.9373 N   0  0  0  0  0  0  0  0  0  0  0  0
   10.0041   11.7152   21.4697 O   0  0  0  0  0  0  0  0  0  0  0  0
   12.3164   16.2966   22.7071 O   0  0  0  0  0  0  0  0  0  0  0  0
    9.9863    9.4370   23.3163 O   0  0  0  0  0  0  0  0  0  0  0  0
    5.3106   13.3829   27.5791 H   0  0  0  0  0  0  0  0  0  0  0  0
    5.1966   10.9748   28.1522 H   0  0  0  0  0  0  0  0  0  0  0  0
    6.8287   14.1690   25.8083 H   0  0  0  0  0  0  0  0  0  0  0  0
    6.5993    9.3445   26.9553 H   0  0  0  0  0  0  0  0  0  0  0  0
    8.5381   13.6765   24.0727 H   0  0  0  0  0  0  0  0  0  0  0  0
    8.3125    8.8488   25.2160 H   0  0  0  0  0  0  0  0  0  0  0  0
    9.4860   16.9375   24.2769 H   0  0  0  0  0  0  0  0  0  0  0  0
   10.1979   17.7913   22.8660 H   0  0  0  0  0  0  0  0  0  0  0  0
    8.5315   17.1280   22.7672 H   0  0  0  0  0  0  0  0  0  0  0  0
   12.6473   12.5115   24.2979 H   0  0  0  0  0  0  0  0  0  0  0  0
   12.0718   14.2027   24.4850 H   0  0  0  0  0  0  0  0  0  0  0  0
   11.0313   12.8365   25.0115 H   0  0  0  0  0  0  0  0  0  0  0  0
   11.1569   13.9533   21.0193 H   0  0  0  0  0  0  0  0  0  0  0  0
   12.7454   13.9355   21.8330 H   0  0  0  0  0  0  0  0  0  0  0  0
    9.4136   14.9673   22.4728 H   0  0  0  0  0  0  0  0  0  0  0  0
   10.5329    9.8799   22.6488 H   0  0  0  0  0  0  0  0  0  0  0  0
  1  2  1  0  0  0  0
  1  3  2  0  0  0  0
  2  4  2  0  0  0  0
  3  7  1  0  0  0  0
  4  8  1  0  0  0  0
  5  7  2  0  0  0  0
  5  9  1  0  0  0  0
  6  8  2  0  0  0  0
  6 10  1  0  0  0  0
  7  8  1  0  0  0  0
  9 10  2  0  0  0  0
  9 11  1  0  0  0  0
 10 20  1  0  0  0  0
 11 17  1  0  0  0  0
 11 18  2  0  0  0  0
 12 15  1  0  0  0  0
 12 16  1  0  0  0  0
 12 19  2  0  0  0  0
 13 16  1  0  0  0  0
 14 17  1  0  0  0  0
 15 17  1  0  0  0  0
  1 21  1  0  0  0  0
  2 22  1  0  0  0  0
  3 23  1  0  0  0  0
  4 24  1  0  0  0  0
  5 25  1  0  0  0  0
  6 26  1  0  0  0  0
 13 27  1  0  0  0  0
 13 28  1  0  0  0  0
 13 29  1  0  0  0  0
 14 30  1  0  0  0  0
 14 31  1  0  0  0  0
 14 32  1  0  0  0  0
 15 33  1  0  0  0  0
 15 34  1  0  0  0  0
 16 35  1  0  0  0  0
 20 36  1  0  0  0  0
M  END
> <idnumber>
Z236917794

> <heavy_atoms>
20

> <LogS>
-3.308

> <LogP>
1.123

> <rotating_bonds>
3

> <PSA>
69.64

> <hb_acceptors>
3

> <hb_donors>
2

> <Collection>
HTS

> <link>
https://www.enaminestore.com/catalog/Z236917794

> <ROCS_ShapeQuery>
_x1140_x0812_0A_x1140_0A_x1097_0A_x0365_0A_x1097_0A_x0310_0A

> <ROCS_TanimotoCombo>
0.623 

> <ROCS_ShapeTanimoto>
0.283 

> <ROCS_ColorTanimoto>
0.341 

> <ROCS_RefTversky>
0.250 

> <ROCS_RefColorTversky>
0.480 

> <ROCS_RefTverskyCombo>
0.730 

> <ROCS_FitTversky>
1.847 

> <ROCS_FitColorTversky>
0.540 

> <ROCS_FitTverskyCombo>
2.388 

> <ROCS_ColorScore>
-3.812

> <ROCS_Overlap>
2569.395

> <ROCS_Rank>
497                 

$$$$
untitled-dbase-417192_99
  -OEChem-02092421083D

 41 42  0     0  0  0  0  0  0999 V2000
    8.1162   11.8482   25.5674 C   0  0  0  0  0  0  0  0  0  0  0  0
    8.8052   12.4039   24.4952 C   0  0  0  0  0  0  0  0  0  0  0  0
    7.8537   10.4881   25.5347 C   0  0  0  0  0  0  0  0  0  0  0  0
    9.2050   11.5941   23.4380 C   0  0  0  0  0  0  0  0  0  0  0  0
    8.8940   10.2454   23.5007 C   0  0  0  0  0  0  0  0  0  0  0  0
    9.9402   12.2141   22.3056 C   0  0  0  0  0  0  0  0  0  0  0  0
   10.9868   17.5564   20.5965 C   0  0  0  0  0  0  0  0  0  0  0  0
   12.3499   17.4924   21.2894 C   0  0  0  0  0  0  0  0  0  0  0  0
    9.8498   16.8780   21.3613 C   0  0  0  0  0  0  0  0  0  0  0  0
   13.0170   16.1176   21.3749 C   0  0  0  0  0  0  0  0  0  0  0  0
    9.4423   15.5018   20.8355 C   0  0  0  0  0  0  0  0  0  0  0  0
   12.3191   15.1321   22.3152 C   0  0  0  0  0  0  0  0  0  0  0  0
   10.5597   14.5214   20.4800 C   0  0  0  0  0  0  0  0  0  0  0  0
   11.4815   14.0528   21.6134 C   0  0  0  0  0  0  0  0  0  0  0  0
   10.9899    8.6236   22.8006 C   0  0  0  0  0  0  0  0  0  0  0  0
    8.2261    9.6694   24.5254 N   0  0  0  0  0  0  0  0  0  0  0  0
   10.7160   13.3156   22.6235 N   0  0  0  0  0  0  0  0  0  0  0  0
    9.8103   11.7458   21.1776 O   0  0  0  0  0  0  0  0  0  0  0  0
    9.3678    9.1254   22.1881 S   0  0  0  0  0  0  0  0  0  0  0  0
    7.7945   12.4600   26.4021 H   0  0  0  0  0  0  0  0  0  0  0  0
    9.0239   13.4687   24.4966 H   0  0  0  0  0  0  0  0  0  0  0  0
    7.3186   10.0064   26.3464 H   0  0  0  0  0  0  0  0  0  0  0  0
   10.7320   18.6213   20.5107 H   0  0  0  0  0  0  0  0  0  0  0  0
   11.0579   17.1887   19.5672 H   0  0  0  0  0  0  0  0  0  0  0  0
   13.0301   18.1537   20.7368 H   0  0  0  0  0  0  0  0  0  0  0  0
   12.2683   17.9219   22.2959 H   0  0  0  0  0  0  0  0  0  0  0  0
   10.0642   16.8345   22.4335 H   0  0  0  0  0  0  0  0  0  0  0  0
    8.9603   17.5181   21.2820 H   0  0  0  0  0  0  0  0  0  0  0  0
   13.1612   15.6932   20.3754 H   0  0  0  0  0  0  0  0  0  0  0  0
   14.0275   16.2870   21.7706 H   0  0  0  0  0  0  0  0  0  0  0  0
    8.7600   15.0382   21.5584 H   0  0  0  0  0  0  0  0  0  0  0  0
    8.8469   15.6559   19.9254 H   0  0  0  0  0  0  0  0  0  0  0  0
   13.1023   14.6079   22.8817 H   0  0  0  0  0  0  0  0  0  0  0  0
   11.7342   15.6638   23.0730 H   0  0  0  0  0  0  0  0  0  0  0  0
   10.0837   13.6302   20.0460 H   0  0  0  0  0  0  0  0  0  0  0  0
   11.1613   14.9283   19.6600 H   0  0  0  0  0  0  0  0  0  0  0  0
   12.1673   13.3185   21.1937 H   0  0  0  0  0  0  0  0  0  0  0  0
   11.4471    7.9155   22.1051 H   0  0  0  0  0  0  0  0  0  0  0  0
   10.8860    8.1463   23.7782 H   0  0  0  0  0  0  0  0  0  0  0  0
   11.6371    9.4986   22.8970 H   0  0  0  0  0  0  0  0  0  0  0  0
   10.7263   13.6855   23.5670 H   0  0  0  0  0  0  0  0  0  0  0  0
  1  2  2  0  0  0  0
  1  3  1  0  0  0  0
  2  4  1  0  0  0  0
  3 16  2  0  0  0  0
  4  5  2  0  0  0  0
  4  6  1  0  0  0  0
  5 16  1  0  0  0  0
  5 19  1  0  0  0  0
  6 17  1  0  0  0  0
  6 18  2  0  0  0  0
  7  8  1  0  0  0  0
  7  9  1  0  0  0  0
  8 10  1  0  0  0  0
  9 11  1  0  0  0  0
 10 12  1  0  0  0  0
 11 13  1  0  0  0  0
 12 14  1  0  0  0  0
 13 14  1  0  0  0  0
 14 17  1  0  0  0  0
 15 19  1  0  0  0  0
  1 20  1  0  0  0  0
  2 21  1  0  0  0  0
  3 22  1  0  0  0  0
  7 23  1  0  0  0  0
  7 24  1  0  0  0  0
  8 25  1  0  0  0  0
  8 26  1  0  0  0  0
  9 27  1  0  0  0  0
  9 28  1  0  0  0  0
 10 29  1  0  0  0  0
 10 30  1  0  0  0  0
 11 31  1  0  0  0  0
 11 32  1  0  0  0  0
 12 33  1  0  0  0  0
 12 34  1  0  0  0  0
 13 35  1  0  0  0  0
 13 36  1  0  0  0  0
 14 37  1  0  0  0  0
 15 38  1  0  0  0  0
 15 39  1  0  0  0  0
 15 40  1  0  0  0  0
 17 41  1  0  0  0  0
M  END
> <idnumber>
Z54128427

> <heavy_atoms>
19

> <LogS>
-4.61

> <LogP>
3.703

> <rotating_bonds>
3

> <PSA>
41.99

> <hb_acceptors>
2

> <hb_donors>
1

> <Collection>
Functional

> <link>
https://www.enaminestore.com/catalog/Z54128427

> <ROCS_ShapeQuery>
_x1140_x0812_0A_x1140_0A_x1097_0A_x0365_0A_x1097_0A_x0310_0A

> <ROCS_TanimotoCombo>
0.623 

> <ROCS_ShapeTanimoto>
0.219 

> <ROCS_ColorTanimoto>
0.405 

> <ROCS_RefTversky>
0.202 

> <ROCS_RefColorTversky>
0.477 

> <ROCS_RefTverskyCombo>
0.679 

> <ROCS_FitTversky>
1.602 

> <ROCS_FitColorTversky>
0.727 

> <ROCS_FitTverskyCombo>
2.330 

> <ROCS_ColorScore>
-3.746

> <ROCS_Overlap>
2072.946

> <ROCS_Rank>
498                 

$$$$
untitled-dbase-735736_67
  -OEChem-02092421083D

 32 33  0     0  0  0  0  0  0999 V2000
    8.9813   12.5374   24.8085 C   0  0  0  0  0  0  0  0  0  0  0  0
    7.9405   12.0127   25.5747 C   0  0  0  0  0  0  0  0  0  0  0  0
    7.8549   10.0763   24.1323 C   0  0  0  0  0  0  0  0  0  0  0  0
   12.2800   14.1525   21.9753 C   0  0  0  0  0  0  0  0  0  0  0  0
    9.4589   11.8316   23.7042 C   0  0  0  0  0  0  0  0  0  0  0  0
    7.3773   10.7822   25.2367 C   0  0  0  0  0  0  0  0  0  0  0  0
    8.8957   10.6011   23.3661 C   0  0  0  0  0  0  0  0  0  0  0  0
   11.6449   15.4058   21.9365 C   0  0  0  0  0  0  0  0  0  0  0  0
   13.2227   14.2954   22.9586 C   0  0  0  0  0  0  0  0  0  0  0  0
   10.7492   12.1790   21.5689 C   0  0  0  0  0  0  0  0  0  0  0  0
   10.5413   15.8378   21.0622 C   0  0  0  0  0  0  0  0  0  0  0  0
   14.2381   13.4043   23.5351 C   0  0  0  0  0  0  0  0  0  0  0  0
   11.9956   12.9347   21.1356 C   0  0  0  0  0  0  0  0  0  0  0  0
   12.1547   16.2607   22.8277 N   0  0  0  0  0  0  0  0  0  0  0  0
   10.5001   12.3592   22.9397 N   0  0  0  0  0  0  0  0  0  0  0  0
   10.0824   11.5105   20.7856 O   0  0  0  0  0  0  0  0  0  0  0  0
   13.1578   15.5493   23.4750 O   0  0  0  0  0  0  0  0  0  0  0  0
    6.3626   10.2697   25.9850 O   0  0  0  0  0  0  0  0  0  0  0  0
    9.3465    9.9144   22.3066 F   0  0  0  0  0  0  0  0  0  0  0  0
    9.4125   13.4974   25.0809 H   0  0  0  0  0  0  0  0  0  0  0  0
    7.5726   12.5680   26.4331 H   0  0  0  0  0  0  0  0  0  0  0  0
    7.4207    9.1169   23.8642 H   0  0  0  0  0  0  0  0  0  0  0  0
    9.5604   15.6321   21.5239 H   0  0  0  0  0  0  0  0  0  0  0  0
   10.5838   16.9191   20.8402 H   0  0  0  0  0  0  0  0  0  0  0  0
   10.5611   15.3276   20.0825 H   0  0  0  0  0  0  0  0  0  0  0  0
   15.1985   13.4821   22.9943 H   0  0  0  0  0  0  0  0  0  0  0  0
   14.4405   13.6292   24.5990 H   0  0  0  0  0  0  0  0  0  0  0  0
   13.9303   12.3421   23.5080 H   0  0  0  0  0  0  0  0  0  0  0  0
   11.8798   13.2306   20.0851 H   0  0  0  0  0  0  0  0  0  0  0  0
   12.8541   12.2524   21.1762 H   0  0  0  0  0  0  0  0  0  0  0  0
   11.1686   12.9543   23.4425 H   0  0  0  0  0  0  0  0  0  0  0  0
    6.0792    9.4136   25.6262 H   0  0  0  0  0  0  0  0  0  0  0  0
  1  2  2  0  0  0  0
  1  5  1  0  0  0  0
  2  6  1  0  0  0  0
  3  6  2  0  0  0  0
  3  7  1  0  0  0  0
  4  8  1  0  0  0  0
  4  9  2  0  0  0  0
  4 13  1  0  0  0  0
  5  7  2  0  0  0  0
  5 15  1  0  0  0  0
  6 18  1  0  0  0  0
  7 19  1  0  0  0  0
  8 11  1  0  0  0  0
  8 14  2  0  0  0  0
  9 12  1  0  0  0  0
  9 17  1  0  0  0  0
 10 13  1  0  0  0  0
 10 15  1  0  0  0  0
 10 16  2  0  0  0  0
 14 17  1  0  0  0  0
  1 20  1  0  0  0  0
  2 21  1  0  0  0  0
  3 22  1  0  0  0  0
 11 23  1  0  0  0  0
 11 24  1  0  0  0  0
 11 25  1  0  0  0  0
 12 26  1  0  0  0  0
 12 27  1  0  0  0  0
 12 28  1  0  0  0  0
 13 29  1  0  0  0  0
 13 30  1  0  0  0  0
 15 31  1  0  0  0  0
 18 32  1  0  0  0  0
M  END
> <idnumber>
Z1645594352

> <heavy_atoms>
19

> <LogS>
-1.64

> <LogP>
0.366

> <rotating_bonds>
3

> <PSA>
75.36

> <hb_acceptors>
3

> <hb_donors>
2

> <Collection>
HTS

> <link>
https://www.enaminestore.com/catalog/Z1645594352

> <ROCS_ShapeQuery>
_x1140_x0812_0A_x1140_0A_x1097_0A_x0365_0A_x1097_0A_x0310_0A

> <ROCS_TanimotoCombo>
0.623 

> <ROCS_ShapeTanimoto>
0.236 

> <ROCS_ColorTanimoto>
0.387 

> <ROCS_RefTversky>
0.216 

> <ROCS_RefColorTversky>
0.526 

> <ROCS_RefTverskyCombo>
0.743 

> <ROCS_FitTversky>
1.645 

> <ROCS_FitColorTversky>
0.594 

> <ROCS_FitTverskyCombo>
2.239 

> <ROCS_ColorScore>
-4.185

> <ROCS_Overlap>
2220.667

> <ROCS_Rank>
499                 

$$$$
untitled-dbase-158185_58
  -OEChem-02092421083D

 39 40  0     0  0  0  0  0  0999 V2000
    8.5684   12.0635   24.6480 C   0  0  0  0  0  0  0  0  0  0  0  0
    9.3279   11.6241   23.5913 C   0  0  0  0  0  0  0  0  0  0  0  0
    9.0574   10.2448   23.5130 C   0  0  0  0  0  0  0  0  0  0  0  0
   10.4246   13.7818   22.8957 C   0  0  0  0  0  0  0  0  0  0  0  0
   13.9804   12.9714   23.1377 C   0  0  0  0  0  0  0  0  0  0  0  0
   14.4399   13.3732   21.7348 C   0  0  0  0  0  0  0  0  0  0  0  0
   13.1663   14.1467   23.6685 C   0  0  0  0  0  0  0  0  0  0  0  0
   13.8695   14.7659   21.4846 C   0  0  0  0  0  0  0  0  0  0  0  0
   12.6663   14.8709   22.4195 C   0  0  0  0  0  0  0  0  0  0  0  0
   11.1381    9.1947   22.5885 C   0  0  0  0  0  0  0  0  0  0  0  0
    6.9956   10.9260   26.2322 C   0  0  0  0  0  0  0  0  0  0  0  0
    9.6071    9.2685   22.5550 C   0  0  0  0  0  0  0  0  0  0  0  0
   11.4094   14.2333   21.8288 C   0  0  0  0  0  0  0  0  0  0  0  0
    8.1937    9.8349   24.4457 N   0  0  0  0  0  0  0  0  0  0  0  0
    7.9149   10.9634   25.1202 N   0  0  0  0  0  0  0  0  0  0  0  0
   10.1811   12.4156   22.7861 N   0  0  0  0  0  0  0  0  0  0  0  0
    9.9456   14.5613   23.7127 O   0  0  0  0  0  0  0  0  0  0  0  0
   12.3966   16.2354   22.7070 O   0  0  0  0  0  0  0  0  0  0  0  0
    8.4395   13.0402   25.0949 H   0  0  0  0  0  0  0  0  0  0  0  0
   13.3893   12.0502   23.1236 H   0  0  0  0  0  0  0  0  0  0  0  0
   14.8534   12.7903   23.7755 H   0  0  0  0  0  0  0  0  0  0  0  0
   15.5349   13.3928   21.6946 H   0  0  0  0  0  0  0  0  0  0  0  0
   14.0974   12.6617   20.9769 H   0  0  0  0  0  0  0  0  0  0  0  0
   12.3240   13.7681   24.2655 H   0  0  0  0  0  0  0  0  0  0  0  0
   13.7810   14.7878   24.3139 H   0  0  0  0  0  0  0  0  0  0  0  0
   14.6261   15.5377   21.6751 H   0  0  0  0  0  0  0  0  0  0  0  0
   13.5559   14.8481   20.4342 H   0  0  0  0  0  0  0  0  0  0  0  0
   11.5776   10.1814   22.4068 H   0  0  0  0  0  0  0  0  0  0  0  0
   11.5204    8.5078   21.8269 H   0  0  0  0  0  0  0  0  0  0  0  0
   11.4878    8.8460   23.5661 H   0  0  0  0  0  0  0  0  0  0  0  0
    5.9899   11.1092   25.8447 H   0  0  0  0  0  0  0  0  0  0  0  0
    7.0469    9.9458   26.7142 H   0  0  0  0  0  0  0  0  0  0  0  0
    7.2735   11.6964   26.9569 H   0  0  0  0  0  0  0  0  0  0  0  0
    9.2064    8.2527   22.7428 H   0  0  0  0  0  0  0  0  0  0  0  0
    9.2933    9.5029   21.5185 H   0  0  0  0  0  0  0  0  0  0  0  0
   11.6925   13.3645   21.2249 H   0  0  0  0  0  0  0  0  0  0  0  0
   10.9089   14.9553   21.1746 H   0  0  0  0  0  0  0  0  0  0  0  0
   10.6671   11.9152   22.0448 H   0  0  0  0  0  0  0  0  0  0  0  0
   12.0859   16.6340   21.8799 H   0  0  0  0  0  0  0  0  0  0  0  0
  1  2  2  0  0  0  0
  1 15  1  0  0  0  0
  2  3  1  0  0  0  0
  2 16  1  0  0  0  0
  3 12  1  0  0  0  0
  3 14  2  0  0  0  0
  4 13  1  0  0  0  0
  4 16  1  0  0  0  0
  4 17  2  0  0  0  0
  5  6  1  0  0  0  0
  5  7  1  0  0  0  0
  6  8  1  0  0  0  0
  7  9  1  0  0  0  0
  8  9  1  0  0  0  0
  9 13  1  0  0  0  0
  9 18  1  0  0  0  0
 10 12  1  0  0  0  0
 11 15  1  0  0  0  0
 14 15  1  0  0  0  0
  1 19  1  0  0  0  0
  5 20  1  0  0  0  0
  5 21  1  0  0  0  0
  6 22  1  0  0  0  0
  6 23  1  0  0  0  0
  7 24  1  0  0  0  0
  7 25  1  0  0  0  0
  8 26  1  0  0  0  0
  8 27  1  0  0  0  0
 10 28  1  0  0  0  0
 10 29  1  0  0  0  0
 10 30  1  0  0  0  0
 11 31  1  0  0  0  0
 11 32  1  0  0  0  0
 11 33  1  0  0  0  0
 12 34  1  0  0  0  0
 12 35  1  0  0  0  0
 13 36  1  0  0  0  0
 13 37  1  0  0  0  0
 16 38  1  0  0  0  0
 18 39  1  0  0  0  0
M  END
> <idnumber>
Z1585153719

> <heavy_atoms>
18

> <LogS>
-1.213

> <LogP>
0.434

> <rotating_bonds>
4

> <PSA>
67.15

> <hb_acceptors>
3

> <hb_donors>
2

> <Collection>
HTS

> <link>
https://www.enaminestore.com/catalog/Z1585153719

> <ROCS_ShapeQuery>
_x1140_x0812_0A_x1140_0A_x1097_0A_x0365_0A_x1097_0A_x0310_0A

> <ROCS_TanimotoCombo>
0.623 

> <ROCS_ShapeTanimoto>
0.232 

> <ROCS_ColorTanimoto>
0.391 

> <ROCS_RefTversky>
0.212 

> <ROCS_RefColorTversky>
0.563 

> <ROCS_RefTverskyCombo>
0.775 

> <ROCS_FitTversky>
1.686 

> <ROCS_FitColorTversky>
0.563 

> <ROCS_FitTverskyCombo>
2.248 

> <ROCS_ColorScore>
-4.501

> <ROCS_Overlap>
2173.966

> <ROCS_Rank>
500                 

$$$$
