untitled-dbase-255466_3
  -OEChem-02082415563D

 50 53  0     1  0  0  0  0  0999 V2000
    6.1971   13.9154   24.5682 C   0  0  0  0  0  0  0  0  0  0  0  0
    8.4493   10.2090   25.2364 C   0  0  0  0  0  0  0  0  0  0  0  0
    5.6514   12.9201   25.5860 C   0  0  0  0  0  0  0  0  0  0  0  0
    9.3980    9.7187   24.1368 C   0  0  0  0  0  0  0  0  0  0  0  0
    6.7084   13.1946   23.3115 C   0  0  1  0  0  0  0  0  0  0  0  0
    7.3191   11.1648   24.7860 C   0  0  1  0  0  0  0  0  0  0  0  0
    6.7001   11.8891   26.0137 C   0  0  2  0  0  0  0  0  0  0  0  0
    7.2195   14.1373   22.1731 C   0  0  2  0  0  0  0  0  0  0  0  0
    9.1025   12.8733   24.0814 C   0  0  2  0  0  0  0  0  0  0  0  0
    8.7638   14.2206   22.1108 C   0  0  2  0  0  0  0  0  0  0  0  0
    7.7902   12.1479   23.6732 C   0  0  2  0  0  0  0  0  0  0  0  0
   10.0486   10.8402   23.2988 C   0  0  2  0  0  0  0  0  0  0  0  0
    6.0646   10.9092   27.0077 C   0  0  0  0  0  0  0  0  0  0  0  0
    6.5370   15.5111   22.1605 C   0  0  0  0  0  0  0  0  0  0  0  0
   11.4247   10.3837   22.8131 C   0  0  0  0  0  0  0  0  0  0  0  0
   10.8957   16.6571   20.3616 C   0  0  0  0  0  0  0  0  0  0  0  0
   10.5136   15.3435   21.0097 C   0  0  0  0  0  0  0  0  0  0  0  0
    9.3340   14.1149   23.4041 O   0  0  0  0  0  0  0  0  0  0  0  0
   10.2544   12.0242   24.0623 O   0  0  0  0  0  0  0  0  0  0  0  0
    7.9080   11.3104   22.4974 O   0  0  0  0  0  0  0  0  0  0  0  0
    9.3020   11.1344   22.1234 O   0  0  0  0  0  0  0  0  0  0  0  0
    9.1791   15.4344   21.4880 O   0  0  0  0  0  0  0  0  0  0  0  0
    5.4019   14.6047   24.3055 H   0  0  0  0  0  0  0  0  0  0  0  0
    6.9804   14.4868   25.0469 H   0  0  0  0  0  0  0  0  0  0  0  0
    7.9713    9.3180   25.6501 H   0  0  0  0  0  0  0  0  0  0  0  0
    9.0278   10.6224   26.0554 H   0  0  0  0  0  0  0  0  0  0  0  0
    5.2831   13.4656   26.4566 H   0  0  0  0  0  0  0  0  0  0  0  0
    4.7932   12.4089   25.1427 H   0  0  0  0  0  0  0  0  0  0  0  0
   10.1789    9.1139   24.6026 H   0  0  0  0  0  0  0  0  0  0  0  0
    8.8142    9.0626   23.4875 H   0  0  0  0  0  0  0  0  0  0  0  0
    5.8432   12.6473   22.8757 H   0  0  0  0  0  0  0  0  0  0  0  0
    6.5987   10.5054   24.4183 H   0  0  0  0  0  0  0  0  0  0  0  0
    7.5095   12.3985   26.5789 H   0  0  0  0  0  0  0  0  0  0  0  0
    6.9119   13.6318   21.2285 H   0  0  0  0  0  0  0  0  0  0  0  0
    9.0473   13.1584   25.1983 H   0  0  0  0  0  0  0  0  0  0  0  0
    9.1366   13.4056   21.5129 H   0  0  0  0  0  0  0  0  0  0  0  0
    5.2555   10.3681   26.5220 H   0  0  0  0  0  0  0  0  0  0  0  0
    5.6689   11.4573   27.8599 H   0  0  0  0  0  0  0  0  0  0  0  0
    6.8140   10.2005   27.3531 H   0  0  0  0  0  0  0  0  0  0  0  0
    6.7990   16.0592   23.0631 H   0  0  0  0  0  0  0  0  0  0  0  0
    5.4573   15.3839   22.1191 H   0  0  0  0  0  0  0  0  0  0  0  0
    6.8652   16.0757   21.2902 H   0  0  0  0  0  0  0  0  0  0  0  0
   11.8823   11.1736   22.2232 H   0  0  0  0  0  0  0  0  0  0  0  0
   11.3166    9.4923   22.2008 H   0  0  0  0  0  0  0  0  0  0  0  0
   12.0563   10.1599   23.6689 H   0  0  0  0  0  0  0  0  0  0  0  0
   10.2372   16.8820   19.5179 H   0  0  0  0  0  0  0  0  0  0  0  0
   10.8355   17.4766   21.0853 H   0  0  0  0  0  0  0  0  0  0  0  0
   11.9300   16.6242   20.0034 H   0  0  0  0  0  0  0  0  0  0  0  0
   11.1759   15.1245   21.8526 H   0  0  0  0  0  0  0  0  0  0  0  0
   10.5735   14.5260   20.2851 H   0  0  0  0  0  0  0  0  0  0  0  0
  1  3  1  0  0  0  0
  1  5  1  1  0  0  0
  2  4  1  0  0  0  0
  2  6  1  1  0  0  0
  3  7  1  0  0  0  0
  4 12  1  0  0  0  0
  5  8  1  0  0  0  0
  5 11  1  0  0  0  0
  6  7  1  0  0  0  0
  6 11  1  0  0  0  0
  7 13  1  6  0  0  0
  8 10  1  0  0  0  0
  8 14  1  1  0  0  0
  9 11  1  0  0  0  0
  9 18  1  6  0  0  0
  9 19  1  0  0  0  0
 10 18  1  0  0  0  0
 10 22  1  1  0  0  0
 11 20  1  6  0  0  0
 12 15  1  1  0  0  0
 12 19  1  0  0  0  0
 12 21  1  0  0  0  0
 16 17  1  0  0  0  0
 17 22  1  0  0  0  0
 20 21  1  0  0  0  0
  1 23  1  0  0  0  0
  1 24  1  0  0  0  0
  2 25  1  0  0  0  0
  2 26  1  0  0  0  0
  3 27  1  0  0  0  0
  3 28  1  0  0  0  0
  4 29  1  0  0  0  0
  4 30  1  0  0  0  0
  5 31  1  0  0  0  0
  6 32  1  0  0  0  0
  7 33  1  0  0  0  0
  8 34  1  0  0  0  0
  9 35  1  0  0  0  0
 10 36  1  0  0  0  0
 13 37  1  0  0  0  0
 13 38  1  0  0  0  0
 13 39  1  0  0  0  0
 14 40  1  0  0  0  0
 14 41  1  0  0  0  0
 14 42  1  0  0  0  0
 15 43  1  0  0  0  0
 15 44  1  0  0  0  0
 15 45  1  0  0  0  0
 16 46  1  0  0  0  0
 16 47  1  0  0  0  0
 16 48  1  0  0  0  0
 17 49  1  0  0  0  0
 17 50  1  0  0  0  0
M  END
> <id>
EN300-19768153

> <smiles>
CCO[C@H]1O[C@@H]2O[C@@]3(C)CC[C@H]4[C@H](C)CC[C@@H]([C@H]1C)[C@@]24OO3

> <MDLNUMBER>
MFCD00869355

> <IUPAC Name>
(1R,4S,5R,8S,9R,10S,12R,13R)-10-ethoxy-1,5,9-trimethyl-11,14,15,16-tetraoxatetracyclo[10.3.1.0^{4,13}.0^{8,13}]hexadecane

> <CAS>
75887-54-6

> <URL>
https://www.enaminestore.com/catalog/EN300-19768153

> <ROCS_ShapeQuery>
x0446_0A_x1080_0A_x0929_0A_x0812_0A_x0719_0A_x1140_0A_x0528_0A_x0310_0A

> <ROCS_TanimotoCombo>
0.492 

> <ROCS_ShapeTanimoto>
0.264 

> <ROCS_ColorTanimoto>
0.228 

> <ROCS_RefTversky>
0.237 

> <ROCS_RefColorTversky>
0.249 

> <ROCS_RefTverskyCombo>
0.485 

> <ROCS_FitTversky>
1.783 

> <ROCS_FitColorTversky>
0.739 

> <ROCS_FitTverskyCombo>
2.522 

> <ROCS_ColorScore>
-8.914

> <ROCS_Overlap>
2794.329

> <ROCS_Rank>
1                   

$$$$
untitled-dbase-25664_3
  -OEChem-02082415563D

 47 50  0     1  0  0  0  0  0999 V2000
    6.1969   13.9148   24.5692 C   0  0  0  0  0  0  0  0  0  0  0  0
    8.4498   10.2086   25.2366 C   0  0  0  0  0  0  0  0  0  0  0  0
    5.6517   12.9194   25.5872 C   0  0  0  0  0  0  0  0  0  0  0  0
    9.3981    9.7184   24.1367 C   0  0  0  0  0  0  0  0  0  0  0  0
    6.7078   13.1941   23.3124 C   0  0  1  0  0  0  0  0  0  0  0  0
    7.3192   11.1643   24.7867 C   0  0  1  0  0  0  0  0  0  0  0  0
    6.7006   11.8885   26.0146 C   0  0  2  0  0  0  0  0  0  0  0  0
    7.2185   14.1368   22.1738 C   0  0  2  0  0  0  0  0  0  0  0  0
    9.1023   12.8730   24.0814 C   0  0  2  0  0  0  0  0  0  0  0  0
    8.7627   14.2202   22.1110 C   0  0  2  0  0  0  0  0  0  0  0  0
    7.7899   12.1475   23.6737 C   0  0  2  0  0  0  0  0  0  0  0  0
   10.0483   10.8400   23.2985 C   0  0  2  0  0  0  0  0  0  0  0  0
    6.0655   10.9086   27.0088 C   0  0  0  0  0  0  0  0  0  0  0  0
    6.5358   15.5105   22.1614 C   0  0  0  0  0  0  0  0  0  0  0  0
   11.4243   10.3837   22.8123 C   0  0  0  0  0  0  0  0  0  0  0  0
   10.5121   15.3433   21.0093 C   0  0  0  0  0  0  0  0  0  0  0  0
    9.3334   14.1146   23.4040 O   0  0  0  0  0  0  0  0  0  0  0  0
   10.2542   12.0240   24.0620 O   0  0  0  0  0  0  0  0  0  0  0  0
    7.9074   11.3100   22.4979 O   0  0  0  0  0  0  0  0  0  0  0  0
    9.3013   11.1341   22.1233 O   0  0  0  0  0  0  0  0  0  0  0  0
    9.1776   15.4340   21.4880 O   0  0  0  0  0  0  0  0  0  0  0  0
    5.4016   14.6040   24.3068 H   0  0  0  0  0  0  0  0  0  0  0  0
    6.9803   14.4862   25.0476 H   0  0  0  0  0  0  0  0  0  0  0  0
    7.9720    9.3176   25.6506 H   0  0  0  0  0  0  0  0  0  0  0  0
    9.0285   10.6221   26.0555 H   0  0  0  0  0  0  0  0  0  0  0  0
    5.2836   13.4649   26.4579 H   0  0  0  0  0  0  0  0  0  0  0  0
    4.7933   12.4081   25.1442 H   0  0  0  0  0  0  0  0  0  0  0  0
   10.1792    9.1137   24.6022 H   0  0  0  0  0  0  0  0  0  0  0  0
    8.8141    9.0622   23.4877 H   0  0  0  0  0  0  0  0  0  0  0  0
    5.8425   12.6467   22.8769 H   0  0  0  0  0  0  0  0  0  0  0  0
    6.5988   10.5048   24.4192 H   0  0  0  0  0  0  0  0  0  0  0  0
    7.5102   12.3980   26.5795 H   0  0  0  0  0  0  0  0  0  0  0  0
    6.9106   13.6312   21.2293 H   0  0  0  0  0  0  0  0  0  0  0  0
    9.0474   13.1581   25.1983 H   0  0  0  0  0  0  0  0  0  0  0  0
    9.1354   13.4053   21.5130 H   0  0  0  0  0  0  0  0  0  0  0  0
    5.2564   10.3673   26.5234 H   0  0  0  0  0  0  0  0  0  0  0  0
    5.6701   11.4566   27.8612 H   0  0  0  0  0  0  0  0  0  0  0  0
    6.8152   10.1999   27.3539 H   0  0  0  0  0  0  0  0  0  0  0  0
    6.7981   16.0586   23.0639 H   0  0  0  0  0  0  0  0  0  0  0  0
    5.4561   15.3832   22.1204 H   0  0  0  0  0  0  0  0  0  0  0  0
    6.8637   16.0751   21.2910 H   0  0  0  0  0  0  0  0  0  0  0  0
   11.8816   11.1736   22.2223 H   0  0  0  0  0  0  0  0  0  0  0  0
   11.3161    9.4922   22.2001 H   0  0  0  0  0  0  0  0  0  0  0  0
   12.0562   10.1599   23.6679 H   0  0  0  0  0  0  0  0  0  0  0  0
   10.7964   16.2880   20.5393 H   0  0  0  0  0  0  0  0  0  0  0  0
   10.5859   14.5274   20.2859 H   0  0  0  0  0  0  0  0  0  0  0  0
   11.1789   15.1426   21.8512 H   0  0  0  0  0  0  0  0  0  0  0  0
  1  3  1  0  0  0  0
  1  5  1  1  0  0  0
  2  4  1  0  0  0  0
  2  6  1  1  0  0  0
  3  7  1  0  0  0  0
  4 12  1  0  0  0  0
  5  8  1  0  0  0  0
  5 11  1  0  0  0  0
  6  7  1  0  0  0  0
  6 11  1  0  0  0  0
  7 13  1  6  0  0  0
  8 10  1  0  0  0  0
  8 14  1  1  0  0  0
  9 11  1  0  0  0  0
  9 17  1  6  0  0  0
  9 18  1  0  0  0  0
 10 17  1  0  0  0  0
 10 21  1  1  0  0  0
 11 19  1  6  0  0  0
 12 15  1  1  0  0  0
 12 18  1  0  0  0  0
 12 20  1  0  0  0  0
 16 21  1  0  0  0  0
 19 20  1  0  0  0  0
  1 22  1  0  0  0  0
  1 23  1  0  0  0  0
  2 24  1  0  0  0  0
  2 25  1  0  0  0  0
  3 26  1  0  0  0  0
  3 27  1  0  0  0  0
  4 28  1  0  0  0  0
  4 29  1  0  0  0  0
  5 30  1  0  0  0  0
  6 31  1  0  0  0  0
  7 32  1  0  0  0  0
  8 33  1  0  0  0  0
  9 34  1  0  0  0  0
 10 35  1  0  0  0  0
 13 36  1  0  0  0  0
 13 37  1  0  0  0  0
 13 38  1  0  0  0  0
 14 39  1  0  0  0  0
 14 40  1  0  0  0  0
 14 41  1  0  0  0  0
 15 42  1  0  0  0  0
 15 43  1  0  0  0  0
 15 44  1  0  0  0  0
 16 45  1  0  0  0  0
 16 46  1  0  0  0  0
 16 47  1  0  0  0  0
M  END
> <id>
EN300-122380

> <smiles>
CO[C@H]1O[C@@H]2O[C@@]3(C)CC[C@H]4[C@H](C)CC[C@@H]([C@H]1C)[C@@]24OO3

> <MDLNUMBER>
MFCD00866205

> <IUPAC Name>
(1R,4S,5R,8S,9R,10S,12R,13R)-10-methoxy-1,5,9-trimethyl-11,14,15,16-tetraoxatetracyclo[10.3.1.0^{4,13}.0^{8,13}]hexadecane

> <CAS>
71963-77-4

> <Purity>
95

> <URL>
https://www.enaminestore.com/catalog/EN300-122380

> <ROCS_ShapeQuery>
x0446_0A_x1080_0A_x0929_0A_x0812_0A_x0719_0A_x1140_0A_x0528_0A_x0310_0A

> <ROCS_TanimotoCombo>
0.490 

> <ROCS_ShapeTanimoto>
0.261 

> <ROCS_ColorTanimoto>
0.228 

> <ROCS_RefTversky>
0.234 

> <ROCS_RefColorTversky>
0.249 

> <ROCS_RefTverskyCombo>
0.482 

> <ROCS_FitTversky>
1.806 

> <ROCS_FitColorTversky>
0.739 

> <ROCS_FitTverskyCombo>
2.544 

> <ROCS_ColorScore>
-8.914

> <ROCS_Overlap>
2762.124

> <ROCS_Rank>
2                   

$$$$
untitled-dbase-257016_3
  -OEChem-02082415563D

 47 50  0     1  0  0  0  0  0999 V2000
    6.1972   13.9152   24.5686 C   0  0  0  0  0  0  0  0  0  0  0  0
    8.4496   10.2090   25.2370 C   0  0  0  0  0  0  0  0  0  0  0  0
    5.6518   12.9203   25.5869 C   0  0  0  0  0  0  0  0  0  0  0  0
    9.3980    9.7184   24.1374 C   0  0  0  0  0  0  0  0  0  0  0  0
    6.7080   13.1940   23.3120 C   0  0  1  0  0  0  0  0  0  0  0  0
    7.3191   11.1646   24.7868 C   0  0  1  0  0  0  0  0  0  0  0  0
    6.7003   11.8891   26.0144 C   0  0  2  0  0  0  0  0  0  0  0  0
    7.2187   14.1363   22.1731 C   0  0  2  0  0  0  0  0  0  0  0  0
    9.1023   12.8729   24.0813 C   0  0  2  0  0  0  0  0  0  0  0  0
    8.7630   14.2201   22.1107 C   0  0  2  0  0  0  0  0  0  0  0  0
    7.7900   12.1475   23.6736 C   0  0  2  0  0  0  0  0  0  0  0  0
   10.0483   10.8398   23.2988 C   0  0  2  0  0  0  0  0  0  0  0  0
    6.0648   10.9094   27.0086 C   0  0  0  0  0  0  0  0  0  0  0  0
    6.5357   15.5097   22.1599 C   0  0  0  0  0  0  0  0  0  0  0  0
   11.4243   10.3833   22.8127 C   0  0  0  0  0  0  0  0  0  0  0  0
   10.5122   15.3442   21.0096 C   0  0  0  0  0  0  0  0  0  0  0  0
    9.3335   14.1145   23.4038 O   0  0  0  0  0  0  0  0  0  0  0  0
   10.2543   12.0240   24.0619 O   0  0  0  0  0  0  0  0  0  0  0  0
    7.9074   11.3096   22.4980 O   0  0  0  0  0  0  0  0  0  0  0  0
    9.3013   11.1336   22.1235 O   0  0  0  0  0  0  0  0  0  0  0  0
    9.1776   15.4342   21.4881 O   0  0  0  0  0  0  0  0  0  0  0  0
    5.4019   14.6044   24.3057 H   0  0  0  0  0  0  0  0  0  0  0  0
    6.9807   14.4868   25.0467 H   0  0  0  0  0  0  0  0  0  0  0  0
    7.9718    9.3181   25.6510 H   0  0  0  0  0  0  0  0  0  0  0  0
    9.0281   10.6226   26.0560 H   0  0  0  0  0  0  0  0  0  0  0  0
    5.2843   13.4663   26.4576 H   0  0  0  0  0  0  0  0  0  0  0  0
    4.7931   12.4091   25.1442 H   0  0  0  0  0  0  0  0  0  0  0  0
   10.1789    9.1137   24.6033 H   0  0  0  0  0  0  0  0  0  0  0  0
    8.8145    9.0618   23.4884 H   0  0  0  0  0  0  0  0  0  0  0  0
    5.8427   12.6467   22.8767 H   0  0  0  0  0  0  0  0  0  0  0  0
    6.5988   10.5050   24.4195 H   0  0  0  0  0  0  0  0  0  0  0  0
    7.5099   12.3984   26.5797 H   0  0  0  0  0  0  0  0  0  0  0  0
    6.9112   13.6303   21.2288 H   0  0  0  0  0  0  0  0  0  0  0  0
    9.0474   13.1581   25.1982 H   0  0  0  0  0  0  0  0  0  0  0  0
    9.1362   13.4055   21.5125 H   0  0  0  0  0  0  0  0  0  0  0  0
    5.2557   10.3683   26.5230 H   0  0  0  0  0  0  0  0  0  0  0  0
    5.6694   11.4576   27.8608 H   0  0  0  0  0  0  0  0  0  0  0  0
    6.8143   10.2006   27.3540 H   0  0  0  0  0  0  0  0  0  0  0  0
    6.7975   16.0584   23.0622 H   0  0  0  0  0  0  0  0  0  0  0  0
    5.4560   15.3820   22.1186 H   0  0  0  0  0  0  0  0  0  0  0  0
    6.8636   16.0740   21.2893 H   0  0  0  0  0  0  0  0  0  0  0  0
   11.8816   11.1730   22.2225 H   0  0  0  0  0  0  0  0  0  0  0  0
   11.3160    9.4917   22.2008 H   0  0  0  0  0  0  0  0  0  0  0  0
   12.0561   10.1597   23.6683 H   0  0  0  0  0  0  0  0  0  0  0  0
   10.7962   16.2890   20.5399 H   0  0  0  0  0  0  0  0  0  0  0  0
   10.5864   14.5285   20.2860 H   0  0  0  0  0  0  0  0  0  0  0  0
   11.1789   15.1435   21.8515 H   0  0  0  0  0  0  0  0  0  0  0  0
  1  3  1  0  0  0  0
  1  5  1  1  0  0  0
  2  4  1  0  0  0  0
  2  6  1  1  0  0  0
  3  7  1  0  0  0  0
  4 12  1  0  0  0  0
  5  8  1  0  0  0  0
  5 11  1  0  0  0  0
  6  7  1  0  0  0  0
  6 11  1  0  0  0  0
  7 13  1  6  0  0  0
  8 10  1  0  0  0  0
  8 14  1  1  0  0  0
  9 11  1  0  0  0  0
  9 17  1  6  0  0  0
  9 18  1  0  0  0  0
 10 17  1  0  0  0  0
 10 21  1  1  0  0  0
 11 19  1  0  0  0  0
 12 15  1  1  0  0  0
 12 18  1  0  0  0  0
 12 20  1  0  0  0  0
 16 21  1  0  0  0  0
 19 20  1  0  0  0  0
  1 22  1  0  0  0  0
  1 23  1  0  0  0  0
  2 24  1  0  0  0  0
  2 25  1  0  0  0  0
  3 26  1  0  0  0  0
  3 27  1  0  0  0  0
  4 28  1  0  0  0  0
  4 29  1  0  0  0  0
  5 30  1  0  0  0  0
  6 31  1  0  0  0  0
  7 32  1  0  0  0  0
  8 33  1  0  0  0  0
  9 34  1  0  0  0  0
 10 35  1  0  0  0  0
 13 36  1  0  0  0  0
 13 37  1  0  0  0  0
 13 38  1  0  0  0  0
 14 39  1  0  0  0  0
 14 40  1  0  0  0  0
 14 41  1  0  0  0  0
 15 42  1  0  0  0  0
 15 43  1  0  0  0  0
 15 44  1  0  0  0  0
 16 45  1  0  0  0  0
 16 46  1  0  0  0  0
 16 47  1  0  0  0  0
M  END
> <id>
EN300-20600179

> <smiles>
CO[C@H]1O[C@@H]2O[C@@]3(C)CC[C@H]4[C@H](C)CC[C@@H]([C@H]1C)C24OO3

> <MDLNUMBER>
MFCD29048535

> <IUPAC Name>
(1R,4S,5R,8S,9R,10S,12R)-10-methoxy-1,5,9-trimethyl-11,14,15,16-tetraoxatetracyclo[10.3.1.0^{4,13}.0^{8,13}]hexadecane

> <URL>
https://www.enaminestore.com/catalog/EN300-20600179

> <ROCS_ShapeQuery>
x0446_0A_x1080_0A_x0929_0A_x0812_0A_x0719_0A_x1140_0A_x0528_0A_x0310_0A

> <ROCS_TanimotoCombo>
0.490 

> <ROCS_ShapeTanimoto>
0.261 

> <ROCS_ColorTanimoto>
0.228 

> <ROCS_RefTversky>
0.234 

> <ROCS_RefColorTversky>
0.249 

> <ROCS_RefTverskyCombo>
0.482 

> <ROCS_FitTversky>
1.806 

> <ROCS_FitColorTversky>
0.739 

> <ROCS_FitTverskyCombo>
2.544 

> <ROCS_ColorScore>
-8.914

> <ROCS_Overlap>
2762.122

> <ROCS_Rank>
3                   

$$$$
untitled-dbase-274481_1
  -OEChem-02082415563D

 47 50  0     1  0  0  0  0  0999 V2000
    6.0513   13.8551   24.3187 C   0  0  0  0  0  0  0  0  0  0  0  0
    8.3370   10.2596   25.2509 C   0  0  0  0  0  0  0  0  0  0  0  0
    6.2340   13.1763   25.6719 C   0  0  0  0  0  0  0  0  0  0  0  0
    9.4251    9.7503   24.2995 C   0  0  0  0  0  0  0  0  0  0  0  0
    6.7105   13.1305   23.1234 C   0  0  1  0  0  0  0  0  0  0  0  0
    7.2499   11.1001   24.5595 C   0  0  1  0  0  0  0  0  0  0  0  0
    6.2454   11.6533   25.6056 C   0  0  2  0  0  0  0  0  0  0  0  0
    7.2598   14.1189   22.0619 C   0  0  2  0  0  0  0  0  0  0  0  0
    9.0800   12.9373   23.9871 C   0  0  2  0  0  0  0  0  0  0  0  0
    8.5401   14.8011   22.5730 C   0  0  1  0  0  0  0  0  0  0  0  0
    7.8230   12.1429   23.5523 C   0  0  2  0  0  0  0  0  0  0  0  0
   10.1388   10.8806   23.5343 C   0  0  2  0  0  0  0  0  0  0  0  0
    4.8309   11.1192   25.3354 C   0  0  0  0  0  0  0  0  0  0  0  0
    6.2103   15.1307   21.5909 C   0  0  0  0  0  0  0  0  0  0  0  0
   11.5935   10.4899   23.2737 C   0  0  0  0  0  0  0  0  0  0  0  0
    9.9488   16.6069   22.0467 C   0  0  0  0  0  0  0  0  0  0  0  0
    9.5081   13.8212   22.9394 O   0  0  0  0  0  0  0  0  0  0  0  0
   10.1626   12.0664   24.3290 O   0  0  0  0  0  0  0  0  0  0  0  0
    8.1252   11.3316   22.3825 O   0  0  0  0  0  0  0  0  0  0  0  0
    9.5673   11.1276   22.2460 O   0  0  0  0  0  0  0  0  0  0  0  0
    9.0673   15.6211   21.5316 O   0  0  0  0  0  0  0  0  0  0  0  0
    4.9694   13.9568   24.1342 H   0  0  0  0  0  0  0  0  0  0  0  0
    6.4245   14.8876   24.4005 H   0  0  0  0  0  0  0  0  0  0  0  0
    7.8558    9.3807   25.6648 H   0  0  0  0  0  0  0  0  0  0  0  0
    8.7900   10.7731   26.0786 H   0  0  0  0  0  0  0  0  0  0  0  0
    7.1638   13.5426   26.1281 H   0  0  0  0  0  0  0  0  0  0  0  0
    5.4204   13.5098   26.3327 H   0  0  0  0  0  0  0  0  0  0  0  0
   10.1498    9.1868   24.8783 H   0  0  0  0  0  0  0  0  0  0  0  0
    8.9407    9.0756   23.6003 H   0  0  0  0  0  0  0  0  0  0  0  0
    5.9125   12.5533   22.6063 H   0  0  0  0  0  0  0  0  0  0  0  0
    6.7166   10.3365   24.0204 H   0  0  0  0  0  0  0  0  0  0  0  0
    6.5163   11.2354   26.6083 H   0  0  0  0  0  0  0  0  0  0  0  0
    7.5333   13.5226   21.1808 H   0  0  0  0  0  0  0  0  0  0  0  0
    8.9140   13.5439   24.8787 H   0  0  0  0  0  0  0  0  0  0  0  0
    8.3326   15.4483   23.4308 H   0  0  0  0  0  0  0  0  0  0  0  0
    4.4821   11.4790   24.3700 H   0  0  0  0  0  0  0  0  0  0  0  0
    4.1543   11.4653   26.1135 H   0  0  0  0  0  0  0  0  0  0  0  0
    4.8454   10.0316   25.3295 H   0  0  0  0  0  0  0  0  0  0  0  0
    5.9009   15.7522   22.4279 H   0  0  0  0  0  0  0  0  0  0  0  0
    5.3456   14.6027   21.1961 H   0  0  0  0  0  0  0  0  0  0  0  0
    6.6340   15.7605   20.8122 H   0  0  0  0  0  0  0  0  0  0  0  0
   12.0934   11.2898   22.7338 H   0  0  0  0  0  0  0  0  0  0  0  0
   11.6245    9.5796   22.6808 H   0  0  0  0  0  0  0  0  0  0  0  0
   12.0998   10.3218   24.2206 H   0  0  0  0  0  0  0  0  0  0  0  0
   10.3343   17.2167   21.2260 H   0  0  0  0  0  0  0  0  0  0  0  0
   10.7743   16.1200   22.5720 H   0  0  0  0  0  0  0  0  0  0  0  0
    9.4006   17.2441   22.7447 H   0  0  0  0  0  0  0  0  0  0  0  0
  1  3  1  0  0  0  0
  1  5  1  1  0  0  0
  2  4  1  0  0  0  0
  2  6  1  1  0  0  0
  3  7  1  0  0  0  0
  4 12  1  0  0  0  0
  5  8  1  0  0  0  0
  5 11  1  0  0  0  0
  6  7  1  0  0  0  0
  6 11  1  0  0  0  0
  7 13  1  6  0  0  0
  8 10  1  0  0  0  0
  8 14  1  1  0  0  0
  9 11  1  0  0  0  0
  9 17  1  6  0  0  0
  9 18  1  0  0  0  0
 10 17  1  0  0  0  0
 10 21  1  6  0  0  0
 11 19  1  6  0  0  0
 12 15  1  1  0  0  0
 12 18  1  0  0  0  0
 12 20  1  0  0  0  0
 16 21  1  0  0  0  0
 19 20  1  0  0  0  0
  1 22  1  0  0  0  0
  1 23  1  0  0  0  0
  2 24  1  0  0  0  0
  2 25  1  0  0  0  0
  3 26  1  0  0  0  0
  3 27  1  0  0  0  0
  4 28  1  0  0  0  0
  4 29  1  0  0  0  0
  5 30  1  0  0  0  0
  6 31  1  0  0  0  0
  7 32  1  0  0  0  0
  8 33  1  0  0  0  0
  9 34  1  0  0  0  0
 10 35  1  0  0  0  0
 13 36  1  0  0  0  0
 13 37  1  0  0  0  0
 13 38  1  0  0  0  0
 14 39  1  0  0  0  0
 14 40  1  0  0  0  0
 14 41  1  0  0  0  0
 15 42  1  0  0  0  0
 15 43  1  0  0  0  0
 15 44  1  0  0  0  0
 16 45  1  0  0  0  0
 16 46  1  0  0  0  0
 16 47  1  0  0  0  0
M  END
> <id>
EN300-25047224

> <smiles>
CO[C@@H]1O[C@@H]2O[C@@]3(C)CC[C@H]4[C@H](C)CC[C@@H]([C@H]1C)[C@@]24OO3

> <MDLNUMBER>
MFCD28657024

> <IUPAC Name>
(1R,4S,5R,8S,9R,10R,12R,13R)-10-methoxy-1,5,9-trimethyl-11,14,15,16-tetraoxatetracyclo[10.3.1.0^{4,13}.0^{8,13}]hexadecane

> <CAS>
71939-51-0

> <URL>
https://www.enaminestore.com/catalog/EN300-25047224

> <ROCS_ShapeQuery>
x0446_0A_x1080_0A_x0929_0A_x0812_0A_x0719_0A_x1140_0A_x0528_0A_x0310_0A

> <ROCS_TanimotoCombo>
0.481 

> <ROCS_ShapeTanimoto>
0.257 

> <ROCS_ColorTanimoto>
0.224 

> <ROCS_RefTversky>
0.231 

> <ROCS_RefColorTversky>
0.245 

> <ROCS_RefTverskyCombo>
0.476 

> <ROCS_FitTversky>
1.786 

> <ROCS_FitColorTversky>
0.727 

> <ROCS_FitTverskyCombo>
2.513 

> <ROCS_ColorScore>
-8.773

> <ROCS_Overlap>
2729.709

> <ROCS_Rank>
4                   

$$$$
untitled-dbase-272836_0
  -OEChem-02082415563D

 47 50  0     1  0  0  0  0  0999 V2000
    5.9544   13.7037   24.7467 C   0  0  0  0  0  0  0  0  0  0  0  0
    7.9171    9.4842   24.4980 C   0  0  0  0  0  0  0  0  0  0  0  0
    5.2589   12.4552   25.2641 C   0  0  0  0  0  0  0  0  0  0  0  0
    9.5368    9.4638   24.4642 C   0  0  0  0  0  0  0  0  0  0  0  0
    6.7989   13.4618   23.4851 C   0  0  1  0  0  0  0  0  0  0  0  0
    7.1327   10.9956   24.4214 C   0  0  1  0  0  0  0  0  0  0  0  0
    6.2522   11.3508   25.6507 C   0  0  2  0  0  0  0  0  0  0  0  0
    7.3728   14.7979   22.8951 C   0  0  2  0  0  0  0  0  0  0  0  0
    9.3205   13.0831   24.0220 C   0  0  2  0  0  0  0  0  0  0  0  0
    8.6897   14.5236   22.1574 C   0  0  2  0  0  0  0  0  0  0  0  0
    7.8682   12.3574   23.7245 C   0  0  2  0  0  0  0  0  0  0  0  0
    9.7392   10.9339   24.3020 C   0  0  1  0  0  0  0  0  0  0  0  0
    5.4573   10.1635   26.2060 C   0  0  0  0  0  0  0  0  0  0  0  0
    7.5474   15.9446   23.9091 C   0  0  0  0  0  0  0  0  0  0  0  0
    9.4256   11.2148   25.8806 C   0  0  0  0  0  0  0  0  0  0  0  0
   10.0455   15.4427   20.4722 C   0  0  0  0  0  0  0  0  0  0  0  0
    9.7069   14.0534   23.0313 O   0  0  0  0  0  0  0  0  0  0  0  0
   10.4418   12.0971   24.1139 O   0  0  0  0  0  0  0  0  0  0  0  0
    8.2546   11.7521   22.5071 O   0  0  0  0  0  0  0  0  0  0  0  0
    9.2252   10.7653   22.9225 O   0  0  0  0  0  0  0  0  0  0  0  0
    9.1232   15.7227   21.5129 O   0  0  0  0  0  0  0  0  0  0  0  0
    5.1823   14.4518   24.5296 H   0  0  0  0  0  0  0  0  0  0  0  0
    6.5808   14.1047   25.5524 H   0  0  0  0  0  0  0  0  0  0  0  0
    7.5704    8.9127   23.6249 H   0  0  0  0  0  0  0  0  0  0  0  0
    7.5845    8.9128   25.3675 H   0  0  0  0  0  0  0  0  0  0  0  0
    4.6562   12.7312   26.1387 H   0  0  0  0  0  0  0  0  0  0  0  0
    4.5567   12.0861   24.5055 H   0  0  0  0  0  0  0  0  0  0  0  0
    9.9644    9.0041   25.3643 H   0  0  0  0  0  0  0  0  0  0  0  0
    9.8947    8.8342   23.6364 H   0  0  0  0  0  0  0  0  0  0  0  0
    6.1240   13.0721   22.7079 H   0  0  0  0  0  0  0  0  0  0  0  0
    6.3820   10.7403   23.6499 H   0  0  0  0  0  0  0  0  0  0  0  0
    6.8722   11.7335   26.4661 H   0  0  0  0  0  0  0  0  0  0  0  0
    6.6460   15.1710   22.1596 H   0  0  0  0  0  0  0  0  0  0  0  0
    9.2851   13.6418   24.9623 H   0  0  0  0  0  0  0  0  0  0  0  0
    8.5289   13.7937   21.3570 H   0  0  0  0  0  0  0  0  0  0  0  0
    4.8251    9.7517   25.4238 H   0  0  0  0  0  0  0  0  0  0  0  0
    4.8368   10.4969   27.0337 H   0  0  0  0  0  0  0  0  0  0  0  0
    6.1448    9.3976   26.5555 H   0  0  0  0  0  0  0  0  0  0  0  0
    8.2580   15.6416   24.6700 H   0  0  0  0  0  0  0  0  0  0  0  0
    6.5894   16.1628   24.3676 H   0  0  0  0  0  0  0  0  0  0  0  0
    7.9157   16.8237   23.3919 H   0  0  0  0  0  0  0  0  0  0  0  0
    9.5218   12.2627   25.9850 H   0  0  0  0  0  0  0  0  0  0  0  0
   10.1633   10.6610   26.3974 H   0  0  0  0  0  0  0  0  0  0  0  0
    8.4407   10.8564   26.0205 H   0  0  0  0  0  0  0  0  0  0  0  0
   10.3577   16.3772   19.9998 H   0  0  0  0  0  0  0  0  0  0  0  0
    9.5754   14.7881   19.7340 H   0  0  0  0  0  0  0  0  0  0  0  0
   10.9190   14.9419   20.8965 H   0  0  0  0  0  0  0  0  0  0  0  0
  1  3  1  0  0  0  0
  1  5  1  1  0  0  0
  2  4  1  0  0  0  0
  2  6  1  1  0  0  0
  3  7  1  0  0  0  0
  4 12  1  0  0  0  0
  5  8  1  0  0  0  0
  5 11  1  0  0  0  0
  6  7  1  0  0  0  0
  6 11  1  0  0  0  0
  7 13  1  6  0  0  0
  8 10  1  0  0  0  0
  8 14  1  1  0  0  0
  9 11  1  0  0  0  0
  9 17  1  6  0  0  0
  9 18  1  0  0  0  0
 10 17  1  0  0  0  0
 10 21  1  1  0  0  0
 11 19  1  6  0  0  0
 12 15  1  6  0  0  0
 12 18  1  0  0  0  0
 12 20  1  0  0  0  0
 16 21  1  0  0  0  0
 19 20  1  0  0  0  0
  1 22  1  0  0  0  0
  1 23  1  0  0  0  0
  2 24  1  0  0  0  0
  2 25  1  0  0  0  0
  3 26  1  0  0  0  0
  3 27  1  0  0  0  0
  4 28  1  0  0  0  0
  4 29  1  0  0  0  0
  5 30  1  0  0  0  0
  6 31  1  0  0  0  0
  7 32  1  0  0  0  0
  8 33  1  0  0  0  0
  9 34  1  0  0  0  0
 10 35  1  0  0  0  0
 13 36  1  0  0  0  0
 13 37  1  0  0  0  0
 13 38  1  0  0  0  0
 14 39  1  0  0  0  0
 14 40  1  0  0  0  0
 14 41  1  0  0  0  0
 15 42  1  0  0  0  0
 15 43  1  0  0  0  0
 15 44  1  0  0  0  0
 16 45  1  0  0  0  0
 16 46  1  0  0  0  0
 16 47  1  0  0  0  0
M  END
> <id>
EN300-19651964

> <smiles>
CO[C@H]1O[C@@H]2O[C@]3(C)CC[C@H]4[C@H](C)CC[C@@H]([C@H]1C)[C@@]24OO3

> <IUPAC Name>
(1S,4S,5R,8S,9R,10S,12R,13R)-10-methoxy-1,5,9-trimethyl-11,14,15,16-tetraoxatetracyclo[10.3.1.0^{4,13}.0^{8,13}]hexadecane

> <URL>
https://www.enaminestore.com/catalog/EN300-19651964

> <ROCS_ShapeQuery>
x0446_0A_x1080_0A_x0929_0A_x0812_0A_x0719_0A_x1140_0A_x0528_0A_x0310_0A

> <ROCS_TanimotoCombo>
0.472 

> <ROCS_ShapeTanimoto>
0.246 

> <ROCS_ColorTanimoto>
0.226 

> <ROCS_RefTversky>
0.223 

> <ROCS_RefColorTversky>
0.246 

> <ROCS_RefTverskyCombo>
0.469 

> <ROCS_FitTversky>
1.721 

> <ROCS_FitColorTversky>
0.734 

> <ROCS_FitTverskyCombo>
2.455 

> <ROCS_ColorScore>
-8.823

> <ROCS_Overlap>
2631.483

> <ROCS_Rank>
5                   

$$$$
untitled-dbase-490422_1
  -OEChem-02082415563D

 44 47  0     1  0  0  0  0  0999 V2000
    6.0506   13.8537   24.3178 C   0  0  0  0  0  0  0  0  0  0  0  0
    8.3375   10.2591   25.2504 C   0  0  0  0  0  0  0  0  0  0  0  0
    6.2332   13.1749   25.6711 C   0  0  0  0  0  0  0  0  0  0  0  0
    9.4261    9.7504   24.2993 C   0  0  0  0  0  0  0  0  0  0  0  0
    6.7104   13.1294   23.1227 C   0  0  1  0  0  0  0  0  0  0  0  0
    7.2503   11.0992   24.5588 C   0  0  1  0  0  0  0  0  0  0  0  0
    6.2453   11.6519   25.6047 C   0  0  2  0  0  0  0  0  0  0  0  0
    7.2595   14.1182   22.0614 C   0  0  2  0  0  0  0  0  0  0  0  0
    9.0798   12.9372   23.9870 C   0  0  2  0  0  0  0  0  0  0  0  0
    8.5394   14.8008   22.5728 C   0  0  1  0  0  0  0  0  0  0  0  0
    7.8232   12.1424   23.5519 C   0  0  2  0  0  0  0  0  0  0  0  0
   10.1395   10.8810   23.5344 C   0  0  2  0  0  0  0  0  0  0  0  0
    4.8310   11.1172   25.3341 C   0  0  0  0  0  0  0  0  0  0  0  0
    6.2097   15.1295   21.5902 C   0  0  0  0  0  0  0  0  0  0  0  0
   11.5945   10.4909   23.2740 C   0  0  0  0  0  0  0  0  0  0  0  0
    9.5077   13.8213   22.9394 O   0  0  0  0  0  0  0  0  0  0  0  0
   10.1626   12.0667   24.3291 O   0  0  0  0  0  0  0  0  0  0  0  0
    8.1260   11.3312   22.3820 O   0  0  0  0  0  0  0  0  0  0  0  0
    9.5683   11.1278   22.2459 O   0  0  0  0  0  0  0  0  0  0  0  0
    9.0665   15.6212   21.5316 O   0  0  0  0  0  0  0  0  0  0  0  0
    4.9686   13.9549   24.1331 H   0  0  0  0  0  0  0  0  0  0  0  0
    6.4233   14.8864   24.3998 H   0  0  0  0  0  0  0  0  0  0  0  0
    7.8566    9.3800   25.6641 H   0  0  0  0  0  0  0  0  0  0  0  0
    8.7901   10.7728   26.0783 H   0  0  0  0  0  0  0  0  0  0  0  0
    7.1627   13.5415   26.1276 H   0  0  0  0  0  0  0  0  0  0  0  0
    5.4193   13.5080   26.3317 H   0  0  0  0  0  0  0  0  0  0  0  0
   10.1509    9.1871   24.8783 H   0  0  0  0  0  0  0  0  0  0  0  0
    8.9422    9.0755   23.5999 H   0  0  0  0  0  0  0  0  0  0  0  0
    5.9127   12.5520   22.6053 H   0  0  0  0  0  0  0  0  0  0  0  0
    6.7174   10.3354   24.0195 H   0  0  0  0  0  0  0  0  0  0  0  0
    6.5161   11.2341   26.6074 H   0  0  0  0  0  0  0  0  0  0  0  0
    7.5335   13.5220   21.1804 H   0  0  0  0  0  0  0  0  0  0  0  0
    8.9133   13.5437   24.8785 H   0  0  0  0  0  0  0  0  0  0  0  0
    8.3314   15.4480   23.4306 H   0  0  0  0  0  0  0  0  0  0  0  0
    4.4823   11.4770   24.3686 H   0  0  0  0  0  0  0  0  0  0  0  0
    4.1541   11.4630   26.1120 H   0  0  0  0  0  0  0  0  0  0  0  0
    4.8460   10.0296   25.3281 H   0  0  0  0  0  0  0  0  0  0  0  0
    5.8999   15.7509   22.4271 H   0  0  0  0  0  0  0  0  0  0  0  0
    5.3453   14.6012   21.1951 H   0  0  0  0  0  0  0  0  0  0  0  0
    6.6333   15.7596   20.8117 H   0  0  0  0  0  0  0  0  0  0  0  0
   12.0941   11.2911   22.7343 H   0  0  0  0  0  0  0  0  0  0  0  0
   11.6260    9.5807   22.6811 H   0  0  0  0  0  0  0  0  0  0  0  0
   12.1005   10.3230   24.2211 H   0  0  0  0  0  0  0  0  0  0  0  0
    9.8685   16.0341   21.8865 H   0  0  0  0  0  0  0  0  0  0  0  0
  1  3  1  0  0  0  0
  1  5  1  1  0  0  0
  2  4  1  0  0  0  0
  2  6  1  1  0  0  0
  3  7  1  0  0  0  0
  4 12  1  0  0  0  0
  5  8  1  0  0  0  0
  5 11  1  0  0  0  0
  6  7  1  0  0  0  0
  6 11  1  0  0  0  0
  7 13  1  6  0  0  0
  8 10  1  0  0  0  0
  8 14  1  1  0  0  0
  9 11  1  0  0  0  0
  9 16  1  6  0  0  0
  9 17  1  0  0  0  0
 10 16  1  0  0  0  0
 10 20  1  6  0  0  0
 11 18  1  6  0  0  0
 12 15  1  1  0  0  0
 12 17  1  0  0  0  0
 12 19  1  0  0  0  0
 18 19  1  0  0  0  0
  1 21  1  0  0  0  0
  1 22  1  0  0  0  0
  2 23  1  0  0  0  0
  2 24  1  0  0  0  0
  3 25  1  0  0  0  0
  3 26  1  0  0  0  0
  4 27  1  0  0  0  0
  4 28  1  0  0  0  0
  5 29  1  0  0  0  0
  6 30  1  0  0  0  0
  7 31  1  0  0  0  0
  8 32  1  0  0  0  0
  9 33  1  0  0  0  0
 10 34  1  0  0  0  0
 13 35  1  0  0  0  0
 13 36  1  0  0  0  0
 13 37  1  0  0  0  0
 14 38  1  0  0  0  0
 14 39  1  0  0  0  0
 14 40  1  0  0  0  0
 15 41  1  0  0  0  0
 15 42  1  0  0  0  0
 15 43  1  0  0  0  0
 20 44  1  0  0  0  0
M  END
> <id>
EN300-7407671

> <smiles>
C[C@@H]1CC[C@H]2[C@@H](C)[C@H](O)O[C@@H]3O[C@@]4(C)CC[C@@H]1[C@@]23OO4

> <MDLNUMBER>
MFCD00236467

> <IUPAC Name>
(1R,4S,5R,8S,9R,10R,12R,13R)-1,5,9-trimethyl-11,14,15,16-tetraoxatetracyclo[10.3.1.0^{4,13}.0^{8,13}]hexadecan-10-ol

> <CAS>
81496-81-3

> <URL>
https://www.enaminestore.com/catalog/EN300-7407671

> <ROCS_ShapeQuery>
x0446_0A_x1080_0A_x0929_0A_x0812_0A_x0719_0A_x1140_0A_x0528_0A_x0310_0A

> <ROCS_TanimotoCombo>
0.471 

> <ROCS_ShapeTanimoto>
0.253 

> <ROCS_ColorTanimoto>
0.218 

> <ROCS_RefTversky>
0.227 

> <ROCS_RefColorTversky>
0.244 

> <ROCS_RefTverskyCombo>
0.472 

> <ROCS_FitTversky>
1.803 

> <ROCS_FitColorTversky>
0.674 

> <ROCS_FitTverskyCombo>
2.477 

> <ROCS_ColorScore>
-8.774

> <ROCS_Overlap>
2683.607

> <ROCS_Rank>
6                   

$$$$
untitled-dbase-287052_8
  -OEChem-02082415563D

 35 38  0     0  0  0  0  0  0999 V2000
   12.1207   18.7593   21.1440 C   0  0  0  0  0  0  0  0  0  0  0  0
   13.4283   18.3912   21.5247 C   0  0  0  0  0  0  0  0  0  0  0  0
   11.0788   17.8271   21.1496 C   0  0  0  0  0  0  0  0  0  0  0  0
   13.7228   17.0828   21.9195 C   0  0  0  0  0  0  0  0  0  0  0  0
   11.3893   16.5431   21.5452 C   0  0  0  0  0  0  0  0  0  0  0  0
   12.6808   16.1795   21.9212 C   0  0  0  0  0  0  0  0  0  0  0  0
    9.4362   11.9588   23.8448 C   0  0  0  0  0  0  0  0  0  0  0  0
    9.4791   10.6227   23.5223 C   0  0  0  0  0  0  0  0  0  0  0  0
    7.5032   10.9533   24.2676 C   0  0  0  0  0  0  0  0  0  0  0  0
    6.1513   10.9316   24.7207 C   0  0  0  0  0  0  0  0  0  0  0  0
    5.5820   12.0644   25.1757 C   0  0  0  0  0  0  0  0  0  0  0  0
    6.3139   13.3204   25.2179 C   0  0  0  0  0  0  0  0  0  0  0  0
    7.5874   13.3490   24.7925 C   0  0  0  0  0  0  0  0  0  0  0  0
   10.5358   15.3551   21.6474 C   0  0  0  0  0  0  0  0  0  0  0  0
   12.6681   14.7547   22.2679 C   0  0  0  0  0  0  0  0  0  0  0  0
   10.5058   12.9811   23.7183 C   0  0  0  0  0  0  0  0  0  0  0  0
   10.6008    9.8493   22.9643 C   0  0  0  0  0  0  0  0  0  0  0  0
    8.2819   10.0064   23.7852 N   0  0  0  0  0  0  0  0  0  0  0  0
    8.1695   12.1746   24.3237 N   0  0  0  0  0  0  0  0  0  0  0  0
   11.3677   14.3872   22.1167 N   0  0  0  0  0  0  0  0  0  0  0  0
    9.3522   15.3216   21.3737 O   0  0  0  0  0  0  0  0  0  0  0  0
   13.6391   14.1148   22.6206 O   0  0  0  0  0  0  0  0  0  0  0  0
   10.9485   13.6070   24.6693 O   0  0  0  0  0  0  0  0  0  0  0  0
   10.9220   13.1171   22.4194 O   0  0  0  0  0  0  0  0  0  0  0  0
   11.7419   10.5827   22.7469 F   0  0  0  0  0  0  0  0  0  0  0  0
   11.0154    8.8041   23.7533 F   0  0  0  0  0  0  0  0  0  0  0  0
   10.3168    9.2780   21.7493 F   0  0  0  0  0  0  0  0  0  0  0  0
   11.9230   19.7842   20.8406 H   0  0  0  0  0  0  0  0  0  0  0  0
   14.2178   19.1381   21.5088 H   0  0  0  0  0  0  0  0  0  0  0  0
   10.0754   18.1103   20.8546 H   0  0  0  0  0  0  0  0  0  0  0  0
   14.7280   16.8005   22.2090 H   0  0  0  0  0  0  0  0  0  0  0  0
    5.5957   10.0009   24.6942 H   0  0  0  0  0  0  0  0  0  0  0  0
    4.5551   12.0676   25.5249 H   0  0  0  0  0  0  0  0  0  0  0  0
    5.8155   14.2063   25.5921 H   0  0  0  0  0  0  0  0  0  0  0  0
    8.1835   14.2533   24.7996 H   0  0  0  0  0  0  0  0  0  0  0  0
  1  2  1  0  0  0  0
  1  3  2  0  0  0  0
  2  4  2  0  0  0  0
  3  5  1  0  0  0  0
  4  6  1  0  0  0  0
  5  6  2  0  0  0  0
  5 14  1  0  0  0  0
  6 15  1  0  0  0  0
  7  8  2  0  0  0  0
  7 16  1  0  0  0  0
  7 19  1  0  0  0  0
  8 17  1  0  0  0  0
  8 18  1  0  0  0  0
  9 10  1  0  0  0  0
  9 18  2  0  0  0  0
  9 19  1  0  0  0  0
 10 11  2  0  0  0  0
 11 12  1  0  0  0  0
 12 13  2  0  0  0  0
 13 19  1  0  0  0  0
 14 20  1  0  0  0  0
 14 21  2  0  0  0  0
 15 20  1  0  0  0  0
 15 22  2  0  0  0  0
 16 23  2  0  0  0  0
 16 24  1  0  0  0  0
 17 25  1  0  0  0  0
 17 26  1  0  0  0  0
 17 27  1  0  0  0  0
 20 24  1  0  0  0  0
  1 28  1  0  0  0  0
  2 29  1  0  0  0  0
  3 30  1  0  0  0  0
  4 31  1  0  0  0  0
 10 32  1  0  0  0  0
 11 33  1  0  0  0  0
 12 34  1  0  0  0  0
 13 35  1  0  0  0  0
M  END
> <id>
EN300-6521224

> <smiles>
FC(F)(F)C=1N=C2C=CC=CN2C1C(=O)ON3C(=O)C=4C=CC=CC4C3=O

> <IUPAC Name>
1,3-dioxo-2,3-dihydro-1H-isoindol-2-yl 2-(trifluoromethyl)imidazo[1,2-a]pyridine-3-carboxylate

> <CAS>
2248308-92-9

> <URL>
https://www.enaminestore.com/catalog/EN300-6521224

> <ROCS_ShapeQuery>
x0446_0A_x1080_0A_x0929_0A_x0812_0A_x0719_0A_x1140_0A_x0528_0A_x0310_0A

> <ROCS_TanimotoCombo>
0.463 

> <ROCS_ShapeTanimoto>
0.285 

> <ROCS_ColorTanimoto>
0.179 

> <ROCS_RefTversky>
0.256 

> <ROCS_RefColorTversky>
0.196 

> <ROCS_RefTverskyCombo>
0.452 

> <ROCS_FitTversky>
1.632 

> <ROCS_FitColorTversky>
0.671 

> <ROCS_FitTverskyCombo>
2.302 

> <ROCS_ColorScore>
-7.007

> <ROCS_Overlap>
3032.459

> <ROCS_Rank>
7                   

$$$$
untitled-dbase-551721_6
  -OEChem-02082415563D

 39 42  0     0  0  0  0  0  0999 V2000
   12.1342   18.7686   21.1574 C   0  0  0  0  0  0  0  0  0  0  0  0
   13.4378   18.3979   21.5494 C   0  0  0  0  0  0  0  0  0  0  0  0
   11.0907   17.8382   21.1533 C   0  0  0  0  0  0  0  0  0  0  0  0
   13.7265   17.0887   21.9457 C   0  0  0  0  0  0  0  0  0  0  0  0
   11.3955   16.5534   21.5507 C   0  0  0  0  0  0  0  0  0  0  0  0
   12.6830   16.1872   21.9376 C   0  0  0  0  0  0  0  0  0  0  0  0
    9.4401   11.9545   23.8396 C   0  0  0  0  0  0  0  0  0  0  0  0
    9.4719   10.6180   23.5147 C   0  0  0  0  0  0  0  0  0  0  0  0
    7.5066   10.9632   24.2799 C   0  0  0  0  0  0  0  0  0  0  0  0
   10.5390   15.3668   21.6445 C   0  0  0  0  0  0  0  0  0  0  0  0
   12.6647   14.7622   22.2831 C   0  0  0  0  0  0  0  0  0  0  0  0
   10.4685   12.9386   23.7238 C   0  0  0  0  0  0  0  0  0  0  0  0
    6.0844   10.8520   24.7086 C   0  0  0  0  0  0  0  0  0  0  0  0
    5.6585   12.0323   25.5854 C   0  0  0  0  0  0  0  0  0  0  0  0
    6.1234   13.3587   24.9804 C   0  0  0  0  0  0  0  0  0  0  0  0
    7.6465   13.3931   24.8538 C   0  0  0  0  0  0  0  0  0  0  0  0
   10.5842    9.8376   22.9478 C   0  0  0  0  0  0  0  0  0  0  0  0
    8.2711   10.0090   23.7884 N   0  0  0  0  0  0  0  0  0  0  0  0
    8.1827   12.1569   24.3224 N   0  0  0  0  0  0  0  0  0  0  0  0
   11.3650   14.3972   22.1204 N   0  0  0  0  0  0  0  0  0  0  0  0
    9.3578   15.3356   21.3604 O   0  0  0  0  0  0  0  0  0  0  0  0
   13.6315   14.1203   22.6439 O   0  0  0  0  0  0  0  0  0  0  0  0
   10.9506   13.5995   24.6737 O   0  0  0  0  0  0  0  0  0  0  0  0
   10.9039   13.0977   22.4252 O   0  0  0  0  0  0  0  0  0  0  0  0
   11.7289   10.5632   22.7233 F   0  0  0  0  0  0  0  0  0  0  0  0
   10.9971    8.7884   23.7324 F   0  0  0  0  0  0  0  0  0  0  0  0
   10.2877    9.2699   21.7340 F   0  0  0  0  0  0  0  0  0  0  0  0
   11.9410   19.7941   20.8531 H   0  0  0  0  0  0  0  0  0  0  0  0
   14.2287   19.1435   21.5409 H   0  0  0  0  0  0  0  0  0  0  0  0
   10.0904   18.1234   20.8497 H   0  0  0  0  0  0  0  0  0  0  0  0
   14.7287   16.8044   22.2438 H   0  0  0  0  0  0  0  0  0  0  0  0
    5.4537   10.8159   23.8122 H   0  0  0  0  0  0  0  0  0  0  0  0
    5.9294    9.9138   25.2526 H   0  0  0  0  0  0  0  0  0  0  0  0
    4.5689   12.0312   25.7010 H   0  0  0  0  0  0  0  0  0  0  0  0
    6.0886   11.9221   26.5890 H   0  0  0  0  0  0  0  0  0  0  0  0
    5.6680   13.4822   23.9895 H   0  0  0  0  0  0  0  0  0  0  0  0
    5.7843   14.1978   25.5975 H   0  0  0  0  0  0  0  0  0  0  0  0
    7.9526   14.2139   24.1968 H   0  0  0  0  0  0  0  0  0  0  0  0
    8.1084   13.5362   25.8375 H   0  0  0  0  0  0  0  0  0  0  0  0
  1  2  1  0  0  0  0
  1  3  2  0  0  0  0
  2  4  2  0  0  0  0
  3  5  1  0  0  0  0
  4  6  1  0  0  0  0
  5  6  2  0  0  0  0
  5 10  1  0  0  0  0
  6 11  1  0  0  0  0
  7  8  2  0  0  0  0
  7 12  1  0  0  0  0
  7 19  1  0  0  0  0
  8 17  1  0  0  0  0
  8 18  1  0  0  0  0
  9 13  1  0  0  0  0
  9 18  2  0  0  0  0
  9 19  1  0  0  0  0
 10 20  1  0  0  0  0
 10 21  2  0  0  0  0
 11 20  1  0  0  0  0
 11 22  2  0  0  0  0
 12 23  2  0  0  0  0
 12 24  1  0  0  0  0
 13 14  1  0  0  0  0
 14 15  1  0  0  0  0
 15 16  1  0  0  0  0
 16 19  1  0  0  0  0
 17 25  1  0  0  0  0
 17 26  1  0  0  0  0
 17 27  1  0  0  0  0
 20 24  1  0  0  0  0
  1 28  1  0  0  0  0
  2 29  1  0  0  0  0
  3 30  1  0  0  0  0
  4 31  1  0  0  0  0
 13 32  1  0  0  0  0
 13 33  1  0  0  0  0
 14 34  1  0  0  0  0
 14 35  1  0  0  0  0
 15 36  1  0  0  0  0
 15 37  1  0  0  0  0
 16 38  1  0  0  0  0
 16 39  1  0  0  0  0
M  END
> <id>
EN300-6525325

> <smiles>
FC(F)(F)C=1N=C2CCCCN2C1C(=O)ON3C(=O)C=4C=CC=CC4C3=O

> <IUPAC Name>
1,3-dioxo-2,3-dihydro-1H-isoindol-2-yl 2-(trifluoromethyl)-5H,6H,7H,8H-imidazo[1,2-a]pyridine-3-carboxylate

> <CAS>
2248277-38-3

> <URL>
https://www.enaminestore.com/catalog/EN300-6525325

> <ROCS_ShapeQuery>
x0446_0A_x1080_0A_x0929_0A_x0812_0A_x0719_0A_x1140_0A_x0528_0A_x0310_0A

> <ROCS_TanimotoCombo>
0.461 

> <ROCS_ShapeTanimoto>
0.283 

> <ROCS_ColorTanimoto>
0.178 

> <ROCS_RefTversky>
0.255 

> <ROCS_RefColorTversky>
0.195 

> <ROCS_RefTverskyCombo>
0.451 

> <ROCS_FitTversky>
1.634 

> <ROCS_FitColorTversky>
0.669 

> <ROCS_FitTverskyCombo>
2.303 

> <ROCS_ColorScore>
-6.992

> <ROCS_Overlap>
3018.476

> <ROCS_Rank>
8                   

$$$$
untitled-dbase-270476_0
  -OEChem-02082415563D

 44 47  0     1  0  0  0  0  0999 V2000
    5.9551   13.7065   24.7489 C   0  0  0  0  0  0  0  0  0  0  0  0
    7.9166    9.4864   24.4994 C   0  0  0  0  0  0  0  0  0  0  0  0
    5.2599   12.4581   25.2674 C   0  0  0  0  0  0  0  0  0  0  0  0
    9.5363    9.4656   24.4641 C   0  0  0  0  0  0  0  0  0  0  0  0
    6.7984   13.4640   23.4866 C   0  0  1  0  0  0  0  0  0  0  0  0
    7.1325   10.9980   24.4231 C   0  0  1  0  0  0  0  0  0  0  0  0
    6.2533   11.3537   25.6532 C   0  0  2  0  0  0  0  0  0  0  0  0
    7.3720   14.7998   22.8958 C   0  0  2  0  0  0  0  0  0  0  0  0
    9.3204   13.0849   24.0212 C   0  0  2  0  0  0  0  0  0  0  0  0
    8.6881   14.5250   22.1569 C   0  0  2  0  0  0  0  0  0  0  0  0
    7.8676   12.3594   23.7252 C   0  0  2  0  0  0  0  0  0  0  0  0
    9.7389   10.9356   24.3013 C   0  0  1  0  0  0  0  0  0  0  0  0
    5.4586   10.1666   26.2096 C   0  0  0  0  0  0  0  0  0  0  0  0
    7.5478   15.9468   23.9093 C   0  0  0  0  0  0  0  0  0  0  0  0
    9.4269   11.2170   25.8801 C   0  0  0  0  0  0  0  0  0  0  0  0
    9.7061   14.0548   23.0299 O   0  0  0  0  0  0  0  0  0  0  0  0
   10.4415   12.0987   24.1123 O   0  0  0  0  0  0  0  0  0  0  0  0
    8.2527   11.7537   22.5076 O   0  0  0  0  0  0  0  0  0  0  0  0
    9.2235   10.7668   22.9224 O   0  0  0  0  0  0  0  0  0  0  0  0
    9.1214   15.7239   21.5117 O   0  0  0  0  0  0  0  0  0  0  0  0
    5.1829   14.4546   24.5324 H   0  0  0  0  0  0  0  0  0  0  0  0
    6.5824   14.1074   25.5540 H   0  0  0  0  0  0  0  0  0  0  0  0
    7.5689    8.9147   23.6267 H   0  0  0  0  0  0  0  0  0  0  0  0
    7.5846    8.9153   25.3694 H   0  0  0  0  0  0  0  0  0  0  0  0
    4.6581   12.7345   26.1424 H   0  0  0  0  0  0  0  0  0  0  0  0
    4.5568   12.0891   24.5094 H   0  0  0  0  0  0  0  0  0  0  0  0
    9.9646    9.0060   25.3638 H   0  0  0  0  0  0  0  0  0  0  0  0
    9.8932    8.8357   23.6360 H   0  0  0  0  0  0  0  0  0  0  0  0
    6.1226   13.0743   22.7101 H   0  0  0  0  0  0  0  0  0  0  0  0
    6.3810   10.7426   23.6524 H   0  0  0  0  0  0  0  0  0  0  0  0
    6.8740   11.7365   26.4680 H   0  0  0  0  0  0  0  0  0  0  0  0
    6.6446   15.1729   22.1609 H   0  0  0  0  0  0  0  0  0  0  0  0
    9.2860   13.6438   24.9614 H   0  0  0  0  0  0  0  0  0  0  0  0
    8.5264   13.7950   21.3568 H   0  0  0  0  0  0  0  0  0  0  0  0
    4.8255    9.7548   25.4280 H   0  0  0  0  0  0  0  0  0  0  0  0
    4.8390   10.5004   27.0377 H   0  0  0  0  0  0  0  0  0  0  0  0
    6.1462    9.4007   26.5586 H   0  0  0  0  0  0  0  0  0  0  0  0
    8.2591   15.6438   24.6696 H   0  0  0  0  0  0  0  0  0  0  0  0
    6.5903   16.1653   24.3687 H   0  0  0  0  0  0  0  0  0  0  0  0
    7.9159   16.8256   23.3916 H   0  0  0  0  0  0  0  0  0  0  0  0
    9.5233   12.2649   25.9842 H   0  0  0  0  0  0  0  0  0  0  0  0
   10.1649   10.6631   26.3964 H   0  0  0  0  0  0  0  0  0  0  0  0
    8.4419   10.8588   26.0210 H   0  0  0  0  0  0  0  0  0  0  0  0
    9.9504   15.5063   21.0602 H   0  0  0  0  0  0  0  0  0  0  0  0
  1  3  1  0  0  0  0
  1  5  1  1  0  0  0
  2  4  1  0  0  0  0
  2  6  1  1  0  0  0
  3  7  1  0  0  0  0
  4 12  1  0  0  0  0
  5  8  1  0  0  0  0
  5 11  1  0  0  0  0
  6  7  1  0  0  0  0
  6 11  1  0  0  0  0
  7 13  1  6  0  0  0
  8 10  1  0  0  0  0
  8 14  1  1  0  0  0
  9 11  1  0  0  0  0
  9 16  1  6  0  0  0
  9 17  1  0  0  0  0
 10 16  1  0  0  0  0
 10 20  1  1  0  0  0
 11 18  1  6  0  0  0
 12 15  1  6  0  0  0
 12 17  1  0  0  0  0
 12 19  1  0  0  0  0
 18 19  1  0  0  0  0
  1 21  1  0  0  0  0
  1 22  1  0  0  0  0
  2 23  1  0  0  0  0
  2 24  1  0  0  0  0
  3 25  1  0  0  0  0
  3 26  1  0  0  0  0
  4 27  1  0  0  0  0
  4 28  1  0  0  0  0
  5 29  1  0  0  0  0
  6 30  1  0  0  0  0
  7 31  1  0  0  0  0
  8 32  1  0  0  0  0
  9 33  1  0  0  0  0
 10 34  1  0  0  0  0
 13 35  1  0  0  0  0
 13 36  1  0  0  0  0
 13 37  1  0  0  0  0
 14 38  1  0  0  0  0
 14 39  1  0  0  0  0
 14 40  1  0  0  0  0
 15 41  1  0  0  0  0
 15 42  1  0  0  0  0
 15 43  1  0  0  0  0
 20 44  1  0  0  0  0
M  END
> <id>
EN300-19873907

> <smiles>
C[C@@H]1CC[C@H]2[C@@H](C)[C@@H](O)O[C@@H]3O[C@]4(C)CC[C@@H]1[C@@]23OO4

> <IUPAC Name>
(1S,4S,5R,8S,9R,10S,12R,13R)-1,5,9-trimethyl-11,14,15,16-tetraoxatetracyclo[10.3.1.0^{4,13}.0^{8,13}]hexadecan-10-ol

> <CAS>
1279039-00-7

> <URL>
https://www.enaminestore.com/catalog/EN300-19873907

> <ROCS_ShapeQuery>
x0446_0A_x1080_0A_x0929_0A_x0812_0A_x0719_0A_x1140_0A_x0528_0A_x0310_0A

> <ROCS_TanimotoCombo>
0.461 

> <ROCS_ShapeTanimoto>
0.241 

> <ROCS_ColorTanimoto>
0.220 

> <ROCS_RefTversky>
0.219 

> <ROCS_RefColorTversky>
0.246 

> <ROCS_RefTverskyCombo>
0.464 

> <ROCS_FitTversky>
1.734 

> <ROCS_FitColorTversky>
0.680 

> <ROCS_FitTverskyCombo>
2.414 

> <ROCS_ColorScore>
-8.824

> <ROCS_Overlap>
2580.567

> <ROCS_Rank>
9                   

$$$$
untitled-dbase-493081_4
  -OEChem-02082415563D

 34 37  0     0  0  0  0  0  0999 V2000
   14.3841   17.2120   21.1017 C   0  0  0  0  0  0  0  0  0  0  0  0
   13.3363   17.6862   20.2845 C   0  0  0  0  0  0  0  0  0  0  0  0
   14.1550   16.2302   22.0702 C   0  0  0  0  0  0  0  0  0  0  0  0
   12.0366   17.1890   20.4178 C   0  0  0  0  0  0  0  0  0  0  0  0
   12.8671   15.7506   22.1836 C   0  0  0  0  0  0  0  0  0  0  0  0
   11.8323   16.2190   21.3766 C   0  0  0  0  0  0  0  0  0  0  0  0
    9.1583   11.6013   23.3277 C   0  0  0  0  0  0  0  0  0  0  0  0
    9.1982   10.2230   23.3892 C   0  0  0  0  0  0  0  0  0  0  0  0
    7.4607   10.7792   24.4634 C   0  0  0  0  0  0  0  0  0  0  0  0
    6.2499   10.8456   25.2328 C   0  0  0  0  0  0  0  0  0  0  0  0
    6.3070   13.1389   25.0523 C   0  0  0  0  0  0  0  0  0  0  0  0
    7.4419   13.1569   24.3261 C   0  0  0  0  0  0  0  0  0  0  0  0
   12.3122   14.7436   23.0937 C   0  0  0  0  0  0  0  0  0  0  0  0
   10.6037   15.5171   21.7614 C   0  0  0  0  0  0  0  0  0  0  0  0
   10.0988   12.5426   22.6682 C   0  0  0  0  0  0  0  0  0  0  0  0
   10.1979    9.3109   22.8082 C   0  0  0  0  0  0  0  0  0  0  0  0
    8.1341    9.7152   24.1006 N   0  0  0  0  0  0  0  0  0  0  0  0
    5.6851   11.9874   25.5218 N   0  0  0  0  0  0  0  0  0  0  0  0
    8.0346   11.9450   24.0237 N   0  0  0  0  0  0  0  0  0  0  0  0
   11.0040   14.6547   22.7336 N   0  0  0  0  0  0  0  0  0  0  0  0
   12.9446   14.1485   23.9438 O   0  0  0  0  0  0  0  0  0  0  0  0
    9.5101   15.7039   21.2656 O   0  0  0  0  0  0  0  0  0  0  0  0
   10.7409   12.2562   21.6693 O   0  0  0  0  0  0  0  0  0  0  0  0
   10.1403   13.7499   23.3158 O   0  0  0  0  0  0  0  0  0  0  0  0
   11.4513    9.5704   23.2845 F   0  0  0  0  0  0  0  0  0  0  0  0
   10.2804    9.4549   21.4526 F   0  0  0  0  0  0  0  0  0  0  0  0
   15.3840   17.6191   20.9752 H   0  0  0  0  0  0  0  0  0  0  0  0
   13.5453   18.4512   19.5411 H   0  0  0  0  0  0  0  0  0  0  0  0
   14.9599   15.8686   22.6990 H   0  0  0  0  0  0  0  0  0  0  0  0
   11.2321   17.5558   19.7916 H   0  0  0  0  0  0  0  0  0  0  0  0
    5.7881    9.9100   25.5861 H   0  0  0  0  0  0  0  0  0  0  0  0
    5.8136   14.0703   25.3089 H   0  0  0  0  0  0  0  0  0  0  0  0
    7.9066   14.0681   23.9723 H   0  0  0  0  0  0  0  0  0  0  0  0
    9.9910    8.2501   23.0073 H   0  0  0  0  0  0  0  0  0  0  0  0
  1  2  1  0  0  0  0
  1  3  2  0  0  0  0
  2  4  2  0  0  0  0
  3  5  1  0  0  0  0
  4  6  1  0  0  0  0
  5  6  2  0  0  0  0
  5 13  1  0  0  0  0
  6 14  1  0  0  0  0
  7  8  2  0  0  0  0
  7 15  1  0  0  0  0
  7 19  1  0  0  0  0
  8 16  1  0  0  0  0
  8 17  1  0  0  0  0
  9 10  1  0  0  0  0
  9 17  2  0  0  0  0
  9 19  1  0  0  0  0
 10 18  2  0  0  0  0
 11 12  2  0  0  0  0
 11 18  1  0  0  0  0
 12 19  1  0  0  0  0
 13 20  1  0  0  0  0
 13 21  2  0  0  0  0
 14 20  1  0  0  0  0
 14 22  2  0  0  0  0
 15 23  2  0  0  0  0
 15 24  1  0  0  0  0
 16 25  1  0  0  0  0
 16 26  1  0  0  0  0
 20 24  1  0  0  0  0
  1 27  1  0  0  0  0
  2 28  1  0  0  0  0
  3 29  1  0  0  0  0
  4 30  1  0  0  0  0
 10 31  1  0  0  0  0
 11 32  1  0  0  0  0
 12 33  1  0  0  0  0
 16 34  1  0  0  0  0
M  END
> <id>
EN300-6525677

> <smiles>
FC(F)C=1N=C2C=NC=CN2C1C(=O)ON3C(=O)C=4C=CC=CC4C3=O

> <IUPAC Name>
1,3-dioxo-2,3-dihydro-1H-isoindol-2-yl 2-(difluoromethyl)imidazo[1,2-a]pyrazine-3-carboxylate

> <CAS>
2248299-72-9

> <URL>
https://www.enaminestore.com/catalog/EN300-6525677

> <ROCS_ShapeQuery>
x0446_0A_x1080_0A_x0929_0A_x0812_0A_x0719_0A_x1140_0A_x0528_0A_x0310_0A

> <ROCS_TanimotoCombo>
0.458 

> <ROCS_ShapeTanimoto>
0.282 

> <ROCS_ColorTanimoto>
0.176 

> <ROCS_RefTversky>
0.254 

> <ROCS_RefColorTversky>
0.198 

> <ROCS_RefTverskyCombo>
0.451 

> <ROCS_FitTversky>
1.654 

> <ROCS_FitColorTversky>
0.621 

> <ROCS_FitTverskyCombo>
2.275 

> <ROCS_ColorScore>
-7.080

> <ROCS_Overlap>
2999.867

> <ROCS_Rank>
10                  

$$$$
untitled-dbase-264563_1
  -OEChem-02082415563D

 44 47  0     1  0  0  0  0  0999 V2000
    6.4355   13.6155   25.4739 C   0  0  0  0  0  0  0  0  0  0  0  0
    7.9109    9.8144   24.3522 C   0  0  0  0  0  0  0  0  0  0  0  0
    6.0737   12.2165   25.9816 C   0  0  0  0  0  0  0  0  0  0  0  0
    9.2198    9.5462   23.6261 C   0  0  0  0  0  0  0  0  0  0  0  0
    7.0126   13.5717   24.0629 C   0  0  1  0  0  0  0  0  0  0  0  0
    7.1108   11.0610   23.8956 C   0  0  1  0  0  0  0  0  0  0  0  0
    5.8785   11.1593   24.8793 C   0  0  2  0  0  0  0  0  0  0  0  0
    7.5448   14.9042   23.5020 C   0  0  2  0  0  0  0  0  0  0  0  0
    8.8017   12.6541   22.5914 C   0  0  2  0  0  0  0  0  0  0  0  0
    7.8095   14.7024   21.9731 C   0  0  2  0  0  0  0  0  0  0  0  0
    7.9819   12.3780   23.8612 C   0  0  1  0  0  0  0  0  0  0  0  0
   10.0102   10.8068   23.2895 C   0  0  1  0  0  0  0  0  0  0  0  0
    4.5438   11.3314   24.1418 C   0  0  0  0  0  0  0  0  0  0  0  0
    8.7197   15.4966   24.2880 C   0  0  0  0  0  0  0  0  0  0  0  0
   11.4098   10.4144   22.8096 C   0  0  0  0  0  0  0  0  0  0  0  0
    8.0159   13.3188   21.6122 O   0  0  0  0  0  0  0  0  0  0  0  0
    9.3781   11.4368   22.1615 O   0  0  0  0  0  0  0  0  0  0  0  0
    8.9310   12.2449   24.9344 O   0  0  0  0  0  0  0  0  0  0  0  0
   10.2088   11.6612   24.4379 O   0  0  0  0  0  0  0  0  0  0  0  0
    8.8751   15.5282   21.5182 O   0  0  0  0  0  0  0  0  0  0  0  0
    5.5262   14.2487   25.4928 H   0  0  0  0  0  0  0  0  0  0  0  0
    7.1387   14.0990   26.1806 H   0  0  0  0  0  0  0  0  0  0  0  0
    7.2567    8.9369   24.2176 H   0  0  0  0  0  0  0  0  0  0  0  0
    8.0963    9.8311   25.4331 H   0  0  0  0  0  0  0  0  0  0  0  0
    6.8476   11.8843   26.6857 H   0  0  0  0  0  0  0  0  0  0  0  0
    5.1460   12.2996   26.5654 H   0  0  0  0  0  0  0  0  0  0  0  0
    9.8394    8.8392   24.2093 H   0  0  0  0  0  0  0  0  0  0  0  0
    8.9538    9.0077   22.6968 H   0  0  0  0  0  0  0  0  0  0  0  0
    6.1287   13.3991   23.4038 H   0  0  0  0  0  0  0  0  0  0  0  0
    6.7435   10.8026   22.9272 H   0  0  0  0  0  0  0  0  0  0  0  0
    5.8085   10.1575   25.3962 H   0  0  0  0  0  0  0  0  0  0  0  0
    6.7472   15.6526   23.5800 H   0  0  0  0  0  0  0  0  0  0  0  0
    9.6576   13.2917   22.7840 H   0  0  0  0  0  0  0  0  0  0  0  0
    6.9065   15.0101   21.4340 H   0  0  0  0  0  0  0  0  0  0  0  0
    4.5404   12.2827   23.6173 H   0  0  0  0  0  0  0  0  0  0  0  0
    3.7287   11.3104   24.8595 H   0  0  0  0  0  0  0  0  0  0  0  0
    4.4186   10.5229   23.4271 H   0  0  0  0  0  0  0  0  0  0  0  0
    9.5609   14.8085   24.2595 H   0  0  0  0  0  0  0  0  0  0  0  0
    8.4219   15.6591   25.3208 H   0  0  0  0  0  0  0  0  0  0  0  0
    9.0140   16.4443   23.8441 H   0  0  0  0  0  0  0  0  0  0  0  0
   11.9806   11.3090   22.5673 H   0  0  0  0  0  0  0  0  0  0  0  0
   11.3330    9.7885   21.9223 H   0  0  0  0  0  0  0  0  0  0  0  0
   11.9264    9.8622   23.5927 H   0  0  0  0  0  0  0  0  0  0  0  0
    8.9799   15.3499   20.5702 H   0  0  0  0  0  0  0  0  0  0  0  0
  1  3  1  0  0  0  0
  1  5  1  1  0  0  0
  2  4  1  0  0  0  0
  2  6  1  1  0  0  0
  3  7  1  0  0  0  0
  4 12  1  0  0  0  0
  5  8  1  0  0  0  0
  5 11  1  0  0  0  0
  6  7  1  0  0  0  0
  6 11  1  0  0  0  0
  7 13  1  6  0  0  0
  8 10  1  0  0  0  0
  8 14  1  1  0  0  0
  9 11  1  0  0  0  0
  9 16  1  6  0  0  0
  9 17  1  0  0  0  0
 10 16  1  0  0  0  0
 10 20  1  1  0  0  0
 11 18  1  1  0  0  0
 12 15  1  0  0  0  0
 12 17  1  0  0  0  0
 12 19  1  0  0  0  0
 18 19  1  0  0  0  0
  1 21  1  0  0  0  0
  1 22  1  0  0  0  0
  2 23  1  0  0  0  0
  2 24  1  0  0  0  0
  3 25  1  0  0  0  0
  3 26  1  0  0  0  0
  4 27  1  0  0  0  0
  4 28  1  0  0  0  0
  5 29  1  0  0  0  0
  6 30  1  0  0  0  0
  7 31  1  0  0  0  0
  8 32  1  0  0  0  0
  9 33  1  0  0  0  0
 10 34  1  0  0  0  0
 13 35  1  0  0  0  0
 13 36  1  0  0  0  0
 13 37  1  0  0  0  0
 14 38  1  0  0  0  0
 14 39  1  0  0  0  0
 14 40  1  0  0  0  0
 15 41  1  0  0  0  0
 15 42  1  0  0  0  0
 15 43  1  0  0  0  0
 20 44  1  0  0  0  0
M  END
> <id>
EN300-27122031

> <smiles>
C[C@@H]1CC[C@H]2[C@@H](C)[C@@H](O)O[C@@H]3OC4(C)CC[C@@H]1[C@]23OO4

> <IUPAC Name>
(4S,5R,8S,9R,10S,12R,13S)-1,5,9-trimethyl-11,14,15,16-tetraoxatetracyclo[10.3.1.0?,.0?,]hexadecan-10-ol

> <URL>
https://www.enaminestore.com/catalog/EN300-27122031

> <ROCS_ShapeQuery>
x0446_0A_x1080_0A_x0929_0A_x0812_0A_x0719_0A_x1140_0A_x0528_0A_x0310_0A

> <ROCS_TanimotoCombo>
0.455 

> <ROCS_ShapeTanimoto>
0.248 

> <ROCS_ColorTanimoto>
0.208 

> <ROCS_RefTversky>
0.224 

> <ROCS_RefColorTversky>
0.234 

> <ROCS_RefTverskyCombo>
0.458 

> <ROCS_FitTversky>
1.776 

> <ROCS_FitColorTversky>
0.646 

> <ROCS_FitTverskyCombo>
2.422 

> <ROCS_ColorScore>
-8.412

> <ROCS_Overlap>
2640.004

> <ROCS_Rank>
11                  

$$$$
untitled-dbase-401882_5
  -OEChem-02082415563D

 44 48  0     1  0  0  0  0  0999 V2000
   14.2885   18.4068   21.2079 C   0  0  0  0  0  0  0  0  0  0  0  0
   13.0348   18.7040   20.6735 C   0  0  0  0  0  0  0  0  0  0  0  0
   14.4727   17.2377   21.9461 C   0  0  0  0  0  0  0  0  0  0  0  0
   11.9653   17.8321   20.8773 C   0  0  0  0  0  0  0  0  0  0  0  0
   13.4031   16.3658   22.1500 C   0  0  0  0  0  0  0  0  0  0  0  0
   12.1494   16.6630   21.6156 C   0  0  0  0  0  0  0  0  0  0  0  0
   11.0509   15.7672   21.8253 C   0  0  0  0  0  0  0  0  0  0  0  0
    5.9444   11.8152   24.3345 C   0  0  0  0  0  0  0  0  0  0  0  0
    9.8789   10.0995   23.9102 C   0  0  0  0  0  0  0  0  0  0  0  0
    7.6034   10.5755   22.9726 C   0  0  0  0  0  0  0  0  0  0  0  0
    8.2037   11.3660   25.2780 C   0  0  0  0  0  0  0  0  0  0  0  0
    9.6161   11.7448   22.0356 C   0  0  0  0  0  0  0  0  0  0  0  0
   10.2021   12.5474   24.3369 C   0  0  0  0  0  0  0  0  0  0  0  0
    7.9207   13.0283   23.4151 C   0  0  0  0  0  0  0  0  0  0  0  0
    9.0953   10.4255   22.6319 C   0  0  1  0  0  0  0  0  0  0  0  0
    9.6931   11.2255   24.9360 C   0  0  2  0  0  0  0  0  0  0  0  0
    7.4062   11.7002   24.0063 C   0  0  0  0  0  0  0  0  0  0  0  0
    9.4284   12.9281   23.0325 C   0  0  0  0  0  0  0  0  0  0  0  0
    9.8054   16.0085   21.3262 N   0  0  0  0  0  0  0  0  0  0  0  0
   11.1490   14.6309   22.5199 N   0  0  0  0  0  0  0  0  0  0  0  0
    9.0529   14.9850   21.7106 N   0  0  0  0  0  0  0  0  0  0  0  0
    9.8843   14.2003   22.4102 N   0  0  0  0  0  0  0  0  0  0  0  0
    5.4614   11.6692   25.4475 O   0  0  0  0  0  0  0  0  0  0  0  0
    5.2252   12.1023   23.2221 O   0  0  0  0  0  0  0  0  0  0  0  0
   15.1217   19.0850   21.0484 H   0  0  0  0  0  0  0  0  0  0  0  0
   12.8915   19.6136   20.0977 H   0  0  0  0  0  0  0  0  0  0  0  0
   15.4491   17.0059   22.3610 H   0  0  0  0  0  0  0  0  0  0  0  0
   10.9940   18.0778   20.4542 H   0  0  0  0  0  0  0  0  0  0  0  0
   13.5631   15.4584   22.7278 H   0  0  0  0  0  0  0  0  0  0  0  0
    9.5330    9.1469   24.3303 H   0  0  0  0  0  0  0  0  0  0  0  0
   10.9436    9.9757   23.6770 H   0  0  0  0  0  0  0  0  0  0  0  0
    7.0307   10.7893   22.0605 H   0  0  0  0  0  0  0  0  0  0  0  0
    7.2131    9.6261   23.3626 H   0  0  0  0  0  0  0  0  0  0  0  0
    7.8360   10.4355   25.7305 H   0  0  0  0  0  0  0  0  0  0  0  0
    8.0637   12.1494   26.0345 H   0  0  0  0  0  0  0  0  0  0  0  0
   10.6765   11.6413   21.7696 H   0  0  0  0  0  0  0  0  0  0  0  0
    9.0843   11.9615   21.0995 H   0  0  0  0  0  0  0  0  0  0  0  0
   10.1011   13.3526   25.0771 H   0  0  0  0  0  0  0  0  0  0  0  0
   11.2761   12.4663   24.1211 H   0  0  0  0  0  0  0  0  0  0  0  0
    7.3337   13.3000   22.5263 H   0  0  0  0  0  0  0  0  0  0  0  0
    7.7674   13.8476   24.1316 H   0  0  0  0  0  0  0  0  0  0  0  0
    9.2270    9.6175   21.9034 H   0  0  0  0  0  0  0  0  0  0  0  0
   10.2589   10.9917   25.8448 H   0  0  0  0  0  0  0  0  0  0  0  0
    4.2666   12.1797   23.4154 H   0  0  0  0  0  0  0  0  0  0  0  0
  1  2  1  0  0  0  0
  1  3  2  0  0  0  0
  2  4  2  0  0  0  0
  3  5  1  0  0  0  0
  4  6  1  0  0  0  0
  5  6  2  0  0  0  0
  6  7  1  0  0  0  0
  7 19  1  0  0  0  0
  7 20  2  0  0  0  0
  8 17  1  0  0  0  0
  8 23  2  0  0  0  0
  8 24  1  0  0  0  0
  9 15  1  0  0  0  0
  9 16  1  0  0  0  0
 10 15  1  0  0  0  0
 10 17  1  0  0  0  0
 11 16  1  0  0  0  0
 11 17  1  0  0  0  0
 12 15  1  0  0  0  0
 12 18  1  0  0  0  0
 13 16  1  0  0  0  0
 13 18  1  0  0  0  0
 14 17  1  0  0  0  0
 14 18  1  0  0  0  0
 18 22  1  0  0  0  0
 19 21  2  0  0  0  0
 20 22  1  0  0  0  0
 21 22  1  0  0  0  0
  1 25  1  0  0  0  0
  2 26  1  0  0  0  0
  3 27  1  0  0  0  0
  4 28  1  0  0  0  0
  5 29  1  0  0  0  0
  9 30  1  0  0  0  0
  9 31  1  0  0  0  0
 10 32  1  0  0  0  0
 10 33  1  0  0  0  0
 11 34  1  0  0  0  0
 11 35  1  0  0  0  0
 12 36  1  0  0  0  0
 12 37  1  0  0  0  0
 13 38  1  0  0  0  0
 13 39  1  0  0  0  0
 14 40  1  0  0  0  0
 14 41  1  0  0  0  0
 15 42  1  0  0  0  0
 16 43  1  0  0  0  0
 24 44  1  0  0  0  0
M  END
> <id>
EN300-228224

> <smiles>
OC(=O)C1(CC2CC3C1)CC(C2)(C3)N4N=NC(=N4)C=5C=CC=CC5

> <MDLNUMBER>
MFCD03074320

> <IUPAC Name>
3-(5-phenyl-2H-1,2,3,4-tetrazol-2-yl)adamantane-1-carboxylic acid

> <CAS>
438220-74-7

> <Purity>
95

> <URL>
https://www.enaminestore.com/catalog/EN300-228224

> <ROCS_ShapeQuery>
x0446_0A_x1080_0A_x0929_0A_x0812_0A_x0719_0A_x1140_0A_x0528_0A_x0310_0A

> <ROCS_TanimotoCombo>
0.455 

> <ROCS_ShapeTanimoto>
0.246 

> <ROCS_ColorTanimoto>
0.208 

> <ROCS_RefTversky>
0.226 

> <ROCS_RefColorTversky>
0.249 

> <ROCS_RefTverskyCombo>
0.475 

> <ROCS_FitTversky>
1.575 

> <ROCS_FitColorTversky>
0.562 

> <ROCS_FitTverskyCombo>
2.138 

> <ROCS_ColorScore>
-8.971

> <ROCS_Overlap>
2671.137

> <ROCS_Rank>
12                  

$$$$
untitled-dbase-9338_0
  -OEChem-02082415563D

 42 46  0     0  0  0  0  0  0999 V2000
   13.0609   15.8845   21.8282 C   0  0  0  0  0  0  0  0  0  0  0  0
   13.1575   14.6676   22.5070 C   0  0  0  0  0  0  0  0  0  0  0  0
   11.8197   16.3808   21.4102 C   0  0  0  0  0  0  0  0  0  0  0  0
   12.0212   13.9037   22.7928 C   0  0  0  0  0  0  0  0  0  0  0  0
   10.6676   15.6263   21.6888 C   0  0  0  0  0  0  0  0  0  0  0  0
   10.7958   14.4175   22.3671 C   0  0  0  0  0  0  0  0  0  0  0  0
    8.6840   14.8587   21.8772 C   0  0  0  0  0  0  0  0  0  0  0  0
    8.9221   10.9442   25.4884 C   0  0  0  0  0  0  0  0  0  0  0  0
    9.2145    9.7288   23.3159 C   0  0  0  0  0  0  0  0  0  0  0  0
    6.9974   10.7449   23.8955 C   0  0  0  0  0  0  0  0  0  0  0  0
   10.3386   11.9423   23.6745 C   0  0  0  0  0  0  0  0  0  0  0  0
    8.0959   12.9699   24.2598 C   0  0  0  0  0  0  0  0  0  0  0  0
    8.4066   11.7577   22.0882 C   0  0  0  0  0  0  0  0  0  0  0  0
    9.9053   10.6290   24.3491 C   0  0  0  0  0  0  0  0  0  0  0  0
    7.6753   11.6511   24.9321 C   0  0  0  0  0  0  0  0  0  0  0  0
    7.9758   10.4390   22.7532 C   0  0  0  0  0  0  0  0  0  0  0  0
    9.1109   12.7153   23.1048 C   0  0  0  0  0  0  0  0  0  0  0  0
    7.2211   14.6640   21.8086 C   0  0  0  0  0  0  0  0  0  0  0  0
    9.3486   15.8837   21.3929 N   0  0  0  0  0  0  0  0  0  0  0  0
    9.5116   13.9485   22.4737 N   0  0  0  0  0  0  0  0  0  0  0  0
    6.3571   15.9946   22.6224 Cl  0  0  0  0  0  0  0  0  0  0  0  0
   13.9619   16.4563   21.6218 H   0  0  0  0  0  0  0  0  0  0  0  0
   14.1344   14.3064   22.8193 H   0  0  0  0  0  0  0  0  0  0  0  0
   11.7555   17.3277   20.8841 H   0  0  0  0  0  0  0  0  0  0  0  0
   12.0970   12.9596   23.3206 H   0  0  0  0  0  0  0  0  0  0  0  0
    8.6296   10.0165   25.9957 H   0  0  0  0  0  0  0  0  0  0  0  0
    9.4089   11.5775   26.2402 H   0  0  0  0  0  0  0  0  0  0  0  0
    9.9104    9.4866   22.5034 H   0  0  0  0  0  0  0  0  0  0  0  0
    8.9237    8.7787   23.7807 H   0  0  0  0  0  0  0  0  0  0  0  0
    6.6700    9.8115   24.3697 H   0  0  0  0  0  0  0  0  0  0  0  0
    6.0984   11.2332   23.4998 H   0  0  0  0  0  0  0  0  0  0  0  0
   10.8688   12.5726   24.4008 H   0  0  0  0  0  0  0  0  0  0  0  0
   11.0562   11.7301   22.8709 H   0  0  0  0  0  0  0  0  0  0  0  0
    7.2104   13.4935   23.8758 H   0  0  0  0  0  0  0  0  0  0  0  0
    8.5461   13.6369   25.0073 H   0  0  0  0  0  0  0  0  0  0  0  0
    9.0817   11.5459   21.2480 H   0  0  0  0  0  0  0  0  0  0  0  0
    7.5297   12.2572   21.6546 H   0  0  0  0  0  0  0  0  0  0  0  0
   10.7857   10.1168   24.7536 H   0  0  0  0  0  0  0  0  0  0  0  0
    6.9765   11.8628   25.7491 H   0  0  0  0  0  0  0  0  0  0  0  0
    7.4873    9.7957   22.0127 H   0  0  0  0  0  0  0  0  0  0  0  0
    6.9033   13.7227   22.2884 H   0  0  0  0  0  0  0  0  0  0  0  0
    6.8549   14.6208   20.7687 H   0  0  0  0  0  0  0  0  0  0  0  0
  1  2  1  0  0  0  0
  1  3  2  0  0  0  0
  2  4  2  0  0  0  0
  3  5  1  0  0  0  0
  4  6  1  0  0  0  0
  5  6  2  0  0  0  0
  5 19  1  0  0  0  0
  6 20  1  0  0  0  0
  7 18  1  0  0  0  0
  7 19  2  0  0  0  0
  7 20  1  0  0  0  0
  8 14  1  0  0  0  0
  8 15  1  0  0  0  0
  9 14  1  0  0  0  0
  9 16  1  0  0  0  0
 10 15  1  0  0  0  0
 10 16  1  0  0  0  0
 11 14  1  0  0  0  0
 11 17  1  0  0  0  0
 12 15  1  0  0  0  0
 12 17  1  0  0  0  0
 13 16  1  0  0  0  0
 13 17  1  0  0  0  0
 17 20  1  0  0  0  0
 18 21  1  0  0  0  0
  1 22  1  0  0  0  0
  2 23  1  0  0  0  0
  3 24  1  0  0  0  0
  4 25  1  0  0  0  0
  8 26  1  0  0  0  0
  8 27  1  0  0  0  0
  9 28  1  0  0  0  0
  9 29  1  0  0  0  0
 10 30  1  0  0  0  0
 10 31  1  0  0  0  0
 11 32  1  0  0  0  0
 11 33  1  0  0  0  0
 12 34  1  0  0  0  0
 12 35  1  0  0  0  0
 13 36  1  0  0  0  0
 13 37  1  0  0  0  0
 14 38  1  0  0  0  0
 15 39  1  0  0  0  0
 16 40  1  0  0  0  0
 18 41  1  0  0  0  0
 18 42  1  0  0  0  0
M  END
> <id>
EN300-41939

> <smiles>
Cl.ClCC1=NC=2C=CC=CC2N1C3(CC4CC5CC(C4)C3)C5

> <IUPAC Name>
1-(adamantan-1-yl)-2-(chloromethyl)-1H-1,3-benzodiazole hydrochloride

> <CAS>
1170217-15-8

> <Purity>
95

> <URL>
https://www.enaminestore.com/catalog/EN300-41939

> <Saltdate>
Cl

> <ROCS_ShapeQuery>
x0446_0A_x1080_0A_x0929_0A_x0812_0A_x0719_0A_x1140_0A_x0528_0A_x0310_0A

> <ROCS_TanimotoCombo>
0.453 

> <ROCS_ShapeTanimoto>
0.263 

> <ROCS_ColorTanimoto>
0.189 

> <ROCS_RefTversky>
0.236 

> <ROCS_RefColorTversky>
0.212 

> <ROCS_RefTverskyCombo>
0.448 

> <ROCS_FitTversky>
1.795 

> <ROCS_FitColorTversky>
0.643 

> <ROCS_FitTverskyCombo>
2.438 

> <ROCS_ColorScore>
-7.593

> <ROCS_Overlap>
2787.056

> <ROCS_Rank>
13                  

$$$$
untitled-dbase-346845_7
  -OEChem-02082415563D

 36 38  0     0  0  0  0  0  0999 V2000
    6.0701   13.4152   25.2435 C   0  0  0  0  0  0  0  0  0  0  0  0
    5.5168   12.1624   25.0032 C   0  0  0  0  0  0  0  0  0  0  0  0
    7.4070   13.6459   24.9346 C   0  0  0  0  0  0  0  0  0  0  0  0
   13.1240   15.1841   22.4612 C   0  0  0  0  0  0  0  0  0  0  0  0
    6.3009   11.1434   24.4545 C   0  0  0  0  0  0  0  0  0  0  0  0
   12.3066   14.6970   23.4810 C   0  0  0  0  0  0  0  0  0  0  0  0
   11.2330   15.2102   20.9578 C   0  0  0  0  0  0  0  0  0  0  0  0
    8.1888   12.6159   24.3831 C   0  0  0  0  0  0  0  0  0  0  0  0
   12.5872   15.4407   21.1995 C   0  0  0  0  0  0  0  0  0  0  0  0
    7.6413   11.3465   24.1356 C   0  0  0  0  0  0  0  0  0  0  0  0
   10.9523   14.4664   23.2393 C   0  0  0  0  0  0  0  0  0  0  0  0
   10.4155   14.7230   21.9776 C   0  0  0  0  0  0  0  0  0  0  0  0
    9.5307   12.7807   24.0515 C   0  0  0  0  0  0  0  0  0  0  0  0
    9.6682   10.6397   23.3305 C   0  0  0  0  0  0  0  0  0  0  0  0
   13.4392   15.9506   20.1369 C   0  0  0  0  0  0  0  0  0  0  0  0
    8.6252   14.7921   20.4137 C   0  0  0  0  0  0  0  0  0  0  0  0
   10.4810    9.5340   22.7470 C   0  0  0  0  0  0  0  0  0  0  0  0
    8.3799   10.3544   23.6083 N   0  0  0  0  0  0  0  0  0  0  0  0
   10.2987   11.8096   23.5226 N   0  0  0  0  0  0  0  0  0  0  0  0
   13.0249   16.1969   19.0007 O   0  0  0  0  0  0  0  0  0  0  0  0
   10.1541   13.9843   24.2568 O   0  0  0  0  0  0  0  0  0  0  0  0
    9.0940   14.5043   21.7296 O   0  0  0  0  0  0  0  0  0  0  0  0
    9.7832    8.3719   22.5775 F   0  0  0  0  0  0  0  0  0  0  0  0
   10.9941    9.8238   21.5147 F   0  0  0  0  0  0  0  0  0  0  0  0
   11.5552    9.2058   23.5227 F   0  0  0  0  0  0  0  0  0  0  0  0
    5.4636   14.2076   25.6711 H   0  0  0  0  0  0  0  0  0  0  0  0
    4.4741   11.9735   25.2414 H   0  0  0  0  0  0  0  0  0  0  0  0
    7.8252   14.6301   25.1284 H   0  0  0  0  0  0  0  0  0  0  0  0
   14.1779   15.3601   22.6609 H   0  0  0  0  0  0  0  0  0  0  0  0
    5.8443   10.1715   24.2769 H   0  0  0  0  0  0  0  0  0  0  0  0
   12.7309   14.4988   24.4615 H   0  0  0  0  0  0  0  0  0  0  0  0
   10.8107   15.4115   19.9759 H   0  0  0  0  0  0  0  0  0  0  0  0
   14.5113   16.1200   20.3777 H   0  0  0  0  0  0  0  0  0  0  0  0
    7.5562   14.5741   20.3512 H   0  0  0  0  0  0  0  0  0  0  0  0
    9.1746   14.1855   19.6894 H   0  0  0  0  0  0  0  0  0  0  0  0
    8.7919   15.8506   20.2006 H   0  0  0  0  0  0  0  0  0  0  0  0
  1  2  1  0  0  0  0
  1  3  2  0  0  0  0
  2  5  2  0  0  0  0
  3  8  1  0  0  0  0
  4  6  2  0  0  0  0
  4  9  1  0  0  0  0
  5 10  1  0  0  0  0
  6 11  1  0  0  0  0
  7  9  2  0  0  0  0
  7 12  1  0  0  0  0
  8 10  1  0  0  0  0
  8 13  2  0  0  0  0
  9 15  1  0  0  0  0
 10 18  2  0  0  0  0
 11 12  2  0  0  0  0
 11 21  1  0  0  0  0
 12 22  1  0  0  0  0
 13 19  1  0  0  0  0
 13 21  1  0  0  0  0
 14 17  1  0  0  0  0
 14 18  1  0  0  0  0
 14 19  2  0  0  0  0
 15 20  2  0  0  0  0
 16 22  1  0  0  0  0
 17 23  1  0  0  0  0
 17 24  1  0  0  0  0
 17 25  1  0  0  0  0
  1 26  1  0  0  0  0
  2 27  1  0  0  0  0
  3 28  1  0  0  0  0
  4 29  1  0  0  0  0
  5 30  1  0  0  0  0
  6 31  1  0  0  0  0
  7 32  1  0  0  0  0
 15 33  1  0  0  0  0
 16 34  1  0  0  0  0
 16 35  1  0  0  0  0
 16 36  1  0  0  0  0
M  END
> <id>
EN300-26592858

> <smiles>
COC=1C=C(C=O)C=CC1OC=2N=C(N=C3C=CC=CC23)C(F)(F)F

> <IUPAC Name>
3-methoxy-4-{[2-(trifluoromethyl)quinazolin-4-yl]oxy}benzaldehyde

> <CAS>
924421-19-2

> <URL>
https://www.enaminestore.com/catalog/EN300-26592858

> <ROCS_ShapeQuery>
x0446_0A_x1080_0A_x0929_0A_x0812_0A_x0719_0A_x1140_0A_x0528_0A_x0310_0A

> <ROCS_TanimotoCombo>
0.452 

> <ROCS_ShapeTanimoto>
0.276 

> <ROCS_ColorTanimoto>
0.177 

> <ROCS_RefTversky>
0.248 

> <ROCS_RefColorTversky>
0.190 

> <ROCS_RefTverskyCombo>
0.438 

> <ROCS_FitTversky>
1.690 

> <ROCS_FitColorTversky>
0.716 

> <ROCS_FitTverskyCombo>
2.406 

> <ROCS_ColorScore>
-6.791

> <ROCS_Overlap>
2928.703

> <ROCS_Rank>
14                  

$$$$
untitled-dbase-165578_0
  -OEChem-02082415563D

 42 45  0     1  0  0  0  0  0999 V2000
    8.5638   14.4612   22.0077 C   0  0  0  0  0  0  0  0  0  0  0  0
    6.1062   13.8999   24.0468 C   0  0  0  0  0  0  0  0  0  0  0  0
    8.3648   10.3383   25.3553 C   0  0  0  0  0  0  0  0  0  0  0  0
    5.5637   13.0728   25.2062 C   0  0  0  0  0  0  0  0  0  0  0  0
    9.3845    9.7328   24.3821 C   0  0  0  0  0  0  0  0  0  0  0  0
    7.2423   13.7663   21.7377 C   0  0  1  0  0  0  0  0  0  0  0  0
    6.6947   12.9973   22.9543 C   0  0  1  0  0  0  0  0  0  0  0  0
    7.2776   11.2463   24.7308 C   0  0  1  0  0  0  0  0  0  0  0  0
    6.6256   12.1490   25.8148 C   0  0  2  0  0  0  0  0  0  0  0  0
    9.0557   12.8805   23.8192 C   0  0  2  0  0  0  0  0  0  0  0  0
    7.7883   12.0610   23.5053 C   0  0  2  0  0  0  0  0  0  0  0  0
   10.0887   10.7808   23.4955 C   0  0  2  0  0  0  0  0  0  0  0  0
    6.2235   14.7474   21.1514 C   0  0  0  0  0  0  0  0  0  0  0  0
    5.9891   11.3352   26.9483 C   0  0  0  0  0  0  0  0  0  0  0  0
   11.5212   10.3439   23.1983 C   0  0  0  0  0  0  0  0  0  0  0  0
    8.8746   15.5276   21.4838 O   0  0  0  0  0  0  0  0  0  0  0  0
    9.4586   13.7609   22.7445 O   0  0  0  0  0  0  0  0  0  0  0  0
   10.1585   12.0347   24.1766 O   0  0  0  0  0  0  0  0  0  0  0  0
    8.0147   11.0710   22.4727 O   0  0  0  0  0  0  0  0  0  0  0  0
    9.4447   10.9293   22.2281 O   0  0  0  0  0  0  0  0  0  0  0  0
    5.2786   14.4956   23.6458 H   0  0  0  0  0  0  0  0  0  0  0  0
    6.8538   14.6114   24.4152 H   0  0  0  0  0  0  0  0  0  0  0  0
    7.8793    9.5135   25.8920 H   0  0  0  0  0  0  0  0  0  0  0  0
    8.9172   10.9032   26.1184 H   0  0  0  0  0  0  0  0  0  0  0  0
    5.1763   13.7519   25.9756 H   0  0  0  0  0  0  0  0  0  0  0  0
    4.7107   12.4774   24.8552 H   0  0  0  0  0  0  0  0  0  0  0  0
   10.1270    9.2125   25.0012 H   0  0  0  0  0  0  0  0  0  0  0  0
    8.9038    8.9659   23.7625 H   0  0  0  0  0  0  0  0  0  0  0  0
    7.4605   13.0387   20.9433 H   0  0  0  0  0  0  0  0  0  0  0  0
    5.8724   12.3706   22.5761 H   0  0  0  0  0  0  0  0  0  0  0  0
    6.4993   10.5644   24.3543 H   0  0  0  0  0  0  0  0  0  0  0  0
    7.4023   12.7803   26.2656 H   0  0  0  0  0  0  0  0  0  0  0  0
    8.8989   13.5346   24.6822 H   0  0  0  0  0  0  0  0  0  0  0  0
    5.9671   15.4967   21.8968 H   0  0  0  0  0  0  0  0  0  0  0  0
    5.3250   14.2094   20.8585 H   0  0  0  0  0  0  0  0  0  0  0  0
    6.6493   15.2385   20.2795 H   0  0  0  0  0  0  0  0  0  0  0  0
    5.2113   10.6942   26.5421 H   0  0  0  0  0  0  0  0  0  0  0  0
    5.5551   12.0108   27.6804 H   0  0  0  0  0  0  0  0  0  0  0  0
    6.7491   10.7233   27.4265 H   0  0  0  0  0  0  0  0  0  0  0  0
   12.0121   11.0877   22.5725 H   0  0  0  0  0  0  0  0  0  0  0  0
   11.5154    9.3878   22.6772 H   0  0  0  0  0  0  0  0  0  0  0  0
   12.0763   10.2391   24.1293 H   0  0  0  0  0  0  0  0  0  0  0  0
  1  6  1  0  0  0  0
  1 16  2  0  0  0  0
  1 17  1  0  0  0  0
  2  4  1  0  0  0  0
  2  7  1  0  0  0  0
  3  5  1  0  0  0  0
  3  8  1  1  0  0  0
  4  9  1  0  0  0  0
  5 12  1  0  0  0  0
  6  7  1  0  0  0  0
  6 13  1  1  0  0  0
  7 11  1  0  0  0  0
  8  9  1  0  0  0  0
  8 11  1  0  0  0  0
  9 14  1  6  0  0  0
 10 11  1  0  0  0  0
 10 17  1  6  0  0  0
 10 18  1  0  0  0  0
 11 19  1  6  0  0  0
 12 15  1  0  0  0  0
 12 18  1  0  0  0  0
 12 20  1  0  0  0  0
 19 20  1  0  0  0  0
  2 21  1  0  0  0  0
  2 22  1  0  0  0  0
  3 23  1  0  0  0  0
  3 24  1  0  0  0  0
  4 25  1  0  0  0  0
  4 26  1  0  0  0  0
  5 27  1  0  0  0  0
  5 28  1  0  0  0  0
  6 29  1  0  0  0  0
  7 30  1  0  0  0  0
  8 31  1  0  0  0  0
  9 32  1  0  0  0  0
 10 33  1  0  0  0  0
 13 34  1  0  0  0  0
 13 35  1  0  0  0  0
 13 36  1  0  0  0  0
 14 37  1  0  0  0  0
 14 38  1  0  0  0  0
 14 39  1  0  0  0  0
 15 40  1  0  0  0  0
 15 41  1  0  0  0  0
 15 42  1  0  0  0  0
M  END
> <id>
EN300-1694131

> <smiles>
C[C@@H]1CCC2[C@@H](C)C(=O)O[C@@H]3OC4(C)CC[C@@H]1[C@@]23OO4

> <MDLNUMBER>
MFCD31665763

> <IUPAC Name>
(4S,5R,9R,12S,13R)-1,5,9-trimethyl-11,14,15,16-tetraoxatetracyclo[10.3.1.0^{4,13}.0^{8,13}]hexadecan-10-one

> <CAS>
63968-64-9

> <Purity>
95

> <URL>
https://www.enaminestore.com/catalog/EN300-1694131

> <MP>
156-157

> <ROCS_ShapeQuery>
x0446_0A_x1080_0A_x0929_0A_x0812_0A_x0719_0A_x1140_0A_x0528_0A_x0310_0A

> <ROCS_TanimotoCombo>
0.452 

> <ROCS_ShapeTanimoto>
0.247 

> <ROCS_ColorTanimoto>
0.205 

> <ROCS_RefTversky>
0.224 

> <ROCS_RefColorTversky>
0.223 

> <ROCS_RefTverskyCombo>
0.446 

> <ROCS_FitTversky>
1.764 

> <ROCS_FitColorTversky>
0.715 

> <ROCS_FitTverskyCombo>
2.479 

> <ROCS_ColorScore>
-7.982

> <ROCS_Overlap>
2639.602

> <ROCS_Rank>
15                  

$$$$
untitled-dbase-267574_0
  -OEChem-02082415563D

 42 45  0     1  0  0  0  0  0999 V2000
    8.5638   14.4613   22.0077 C   0  0  0  0  0  0  0  0  0  0  0  0
    6.1058   13.8997   24.0466 C   0  0  0  0  0  0  0  0  0  0  0  0
    8.3650   10.3388   25.3557 C   0  0  0  0  0  0  0  0  0  0  0  0
    5.5633   13.0724   25.2058 C   0  0  0  0  0  0  0  0  0  0  0  0
    9.3844    9.7329   24.3825 C   0  0  0  0  0  0  0  0  0  0  0  0
    7.2423   13.7664   21.7377 C   0  0  1  0  0  0  0  0  0  0  0  0
    6.6947   12.9972   22.9542 C   0  0  1  0  0  0  0  0  0  0  0  0
    7.2776   11.2464   24.7310 C   0  0  1  0  0  0  0  0  0  0  0  0
    6.6254   12.1493   25.8148 C   0  0  2  0  0  0  0  0  0  0  0  0
    9.0558   12.8805   23.8191 C   0  0  2  0  0  0  0  0  0  0  0  0
    7.7883   12.0610   23.5053 C   0  0  2  0  0  0  0  0  0  0  0  0
   10.0887   10.7806   23.4956 C   0  0  2  0  0  0  0  0  0  0  0  0
    6.2237   14.7477   21.1516 C   0  0  0  0  0  0  0  0  0  0  0  0
    5.9892   11.3358   26.9488 C   0  0  0  0  0  0  0  0  0  0  0  0
   11.5211   10.3437   23.1983 C   0  0  0  0  0  0  0  0  0  0  0  0
    8.8746   15.5277   21.4839 O   0  0  0  0  0  0  0  0  0  0  0  0
    9.4585   13.7612   22.7446 O   0  0  0  0  0  0  0  0  0  0  0  0
   10.1586   12.0347   24.1764 O   0  0  0  0  0  0  0  0  0  0  0  0
    8.0145   11.0708   22.4728 O   0  0  0  0  0  0  0  0  0  0  0  0
    9.4445   10.9288   22.2282 O   0  0  0  0  0  0  0  0  0  0  0  0
    5.2782   14.4952   23.6454 H   0  0  0  0  0  0  0  0  0  0  0  0
    6.8532   14.6113   24.4151 H   0  0  0  0  0  0  0  0  0  0  0  0
    7.8797    9.5141   25.8928 H   0  0  0  0  0  0  0  0  0  0  0  0
    8.9176   10.9041   26.1184 H   0  0  0  0  0  0  0  0  0  0  0  0
    5.1753   13.7515   25.9750 H   0  0  0  0  0  0  0  0  0  0  0  0
    4.7106   12.4766   24.8546 H   0  0  0  0  0  0  0  0  0  0  0  0
   10.1270    9.2127   25.0015 H   0  0  0  0  0  0  0  0  0  0  0  0
    8.9035    8.9660   23.7631 H   0  0  0  0  0  0  0  0  0  0  0  0
    7.4605   13.0389   20.9431 H   0  0  0  0  0  0  0  0  0  0  0  0
    5.8726   12.3704   22.5758 H   0  0  0  0  0  0  0  0  0  0  0  0
    6.4995   10.5643   24.3546 H   0  0  0  0  0  0  0  0  0  0  0  0
    7.4020   12.7810   26.2653 H   0  0  0  0  0  0  0  0  0  0  0  0
    8.8989   13.5345   24.6823 H   0  0  0  0  0  0  0  0  0  0  0  0
    5.9672   15.4968   21.8971 H   0  0  0  0  0  0  0  0  0  0  0  0
    5.3251   14.2098   20.8585 H   0  0  0  0  0  0  0  0  0  0  0  0
    6.6494   15.2389   20.2797 H   0  0  0  0  0  0  0  0  0  0  0  0
    5.2117   10.6944   26.5429 H   0  0  0  0  0  0  0  0  0  0  0  0
    5.5552   12.0117   27.6805 H   0  0  0  0  0  0  0  0  0  0  0  0
    6.7496   10.7244   27.4271 H   0  0  0  0  0  0  0  0  0  0  0  0
   12.0120   11.0874   22.5723 H   0  0  0  0  0  0  0  0  0  0  0  0
   11.5153    9.3875   22.6774 H   0  0  0  0  0  0  0  0  0  0  0  0
   12.0763   10.2391   24.1293 H   0  0  0  0  0  0  0  0  0  0  0  0
  1  6  1  0  0  0  0
  1 16  2  0  0  0  0
  1 17  1  0  0  0  0
  2  4  1  0  0  0  0
  2  7  1  1  0  0  0
  3  5  1  0  0  0  0
  3  8  1  1  0  0  0
  4  9  1  0  0  0  0
  5 12  1  0  0  0  0
  6  7  1  0  0  0  0
  6 13  1  1  0  0  0
  7 11  1  0  0  0  0
  8  9  1  0  0  0  0
  8 11  1  0  0  0  0
  9 14  1  6  0  0  0
 10 11  1  0  0  0  0
 10 17  1  6  0  0  0
 10 18  1  0  0  0  0
 11 19  1  6  0  0  0
 12 15  1  1  0  0  0
 12 18  1  0  0  0  0
 12 20  1  0  0  0  0
 19 20  1  0  0  0  0
  2 21  1  0  0  0  0
  2 22  1  0  0  0  0
  3 23  1  0  0  0  0
  3 24  1  0  0  0  0
  4 25  1  0  0  0  0
  4 26  1  0  0  0  0
  5 27  1  0  0  0  0
  5 28  1  0  0  0  0
  6 29  1  0  0  0  0
  7 30  1  0  0  0  0
  8 31  1  0  0  0  0
  9 32  1  0  0  0  0
 10 33  1  0  0  0  0
 13 34  1  0  0  0  0
 13 35  1  0  0  0  0
 13 36  1  0  0  0  0
 14 37  1  0  0  0  0
 14 38  1  0  0  0  0
 14 39  1  0  0  0  0
 15 40  1  0  0  0  0
 15 41  1  0  0  0  0
 15 42  1  0  0  0  0
M  END
> <id>
EN300-7390753

> <smiles>
C[C@@H]1CC[C@H]2[C@@H](C)C(=O)O[C@@H]3O[C@@]4(C)CC[C@@H]1[C@@]23OO4

> <MDLNUMBER>
MFCD00081057

> <IUPAC Name>
(1R,4S,5R,8S,9R,12S,13R)-1,5,9-trimethyl-11,14,15,16-tetraoxatetracyclo[10.3.1.0^{4,13}.0^{8,13}]hexadecan-10-one

> <CAS>
63968-64-9

> <URL>
https://www.enaminestore.com/catalog/EN300-7390753

> <ROCS_ShapeQuery>
x0446_0A_x1080_0A_x0929_0A_x0812_0A_x0719_0A_x1140_0A_x0528_0A_x0310_0A

> <ROCS_TanimotoCombo>
0.452 

> <ROCS_ShapeTanimoto>
0.247 

> <ROCS_ColorTanimoto>
0.205 

> <ROCS_RefTversky>
0.224 

> <ROCS_RefColorTversky>
0.223 

> <ROCS_RefTverskyCombo>
0.446 

> <ROCS_FitTversky>
1.764 

> <ROCS_FitColorTversky>
0.715 

> <ROCS_FitTverskyCombo>
2.479 

> <ROCS_ColorScore>
-7.982

> <ROCS_Overlap>
2639.518

> <ROCS_Rank>
16                  

$$$$
untitled-dbase-338386_9
  -OEChem-02082415563D

 36 38  0     0  0  0  0  0  0999 V2000
    6.0692   13.4151   25.2432 C   0  0  0  0  0  0  0  0  0  0  0  0
    5.5164   12.1621   25.0034 C   0  0  0  0  0  0  0  0  0  0  0  0
    7.4060   13.6462   24.9342 C   0  0  0  0  0  0  0  0  0  0  0  0
   12.5868   15.4368   21.1972 C   0  0  0  0  0  0  0  0  0  0  0  0
    6.3009   11.1431   24.4551 C   0  0  0  0  0  0  0  0  0  0  0  0
   11.2321   15.2080   20.9562 C   0  0  0  0  0  0  0  0  0  0  0  0
   12.3058   14.6963   23.4797 C   0  0  0  0  0  0  0  0  0  0  0  0
    8.1883   12.6164   24.3832 C   0  0  0  0  0  0  0  0  0  0  0  0
   13.1237   15.1808   22.4590 C   0  0  0  0  0  0  0  0  0  0  0  0
    7.6413   11.3467   24.1362 C   0  0  0  0  0  0  0  0  0  0  0  0
   10.4143   14.7234   21.9770 C   0  0  0  0  0  0  0  0  0  0  0  0
   10.9511   14.4676   23.2387 C   0  0  0  0  0  0  0  0  0  0  0  0
    9.5301   12.7816   24.0516 C   0  0  0  0  0  0  0  0  0  0  0  0
    9.6685   10.6404   23.3315 C   0  0  0  0  0  0  0  0  0  0  0  0
   14.5366   15.4174   22.7095 C   0  0  0  0  0  0  0  0  0  0  0  0
    8.6240   14.7912   20.4130 C   0  0  0  0  0  0  0  0  0  0  0  0
   10.4818    9.5347   22.7485 C   0  0  0  0  0  0  0  0  0  0  0  0
    8.3803   10.3547   23.6093 N   0  0  0  0  0  0  0  0  0  0  0  0
   10.2985   11.8106   23.5231 N   0  0  0  0  0  0  0  0  0  0  0  0
   15.3117   15.8426   21.8484 O   0  0  0  0  0  0  0  0  0  0  0  0
   10.1530   13.9856   24.2565 O   0  0  0  0  0  0  0  0  0  0  0  0
    9.0928   14.5041   21.7290 O   0  0  0  0  0  0  0  0  0  0  0  0
    9.7845    8.3723   22.5794 F   0  0  0  0  0  0  0  0  0  0  0  0
   10.9949    9.8243   21.5161 F   0  0  0  0  0  0  0  0  0  0  0  0
   11.5561    9.2073   23.5243 F   0  0  0  0  0  0  0  0  0  0  0  0
    5.4624   14.2075   25.6704 H   0  0  0  0  0  0  0  0  0  0  0  0
    4.4738   11.9727   25.2415 H   0  0  0  0  0  0  0  0  0  0  0  0
    7.8238   14.6308   25.1277 H   0  0  0  0  0  0  0  0  0  0  0  0
   13.2147   15.8144   20.3943 H   0  0  0  0  0  0  0  0  0  0  0  0
    5.8448   10.1709   24.2779 H   0  0  0  0  0  0  0  0  0  0  0  0
   10.8199   15.4096   19.9713 H   0  0  0  0  0  0  0  0  0  0  0  0
   12.7218   14.4934   24.4640 H   0  0  0  0  0  0  0  0  0  0  0  0
   14.9186   15.1988   23.7305 H   0  0  0  0  0  0  0  0  0  0  0  0
    7.5551   14.5727   20.3504 H   0  0  0  0  0  0  0  0  0  0  0  0
    9.1737   14.1845   19.6889 H   0  0  0  0  0  0  0  0  0  0  0  0
    8.7903   15.8497   20.1994 H   0  0  0  0  0  0  0  0  0  0  0  0
  1  2  1  0  0  0  0
  1  3  2  0  0  0  0
  2  5  2  0  0  0  0
  3  8  1  0  0  0  0
  4  6  2  0  0  0  0
  4  9  1  0  0  0  0
  5 10  1  0  0  0  0
  6 11  1  0  0  0  0
  7  9  2  0  0  0  0
  7 12  1  0  0  0  0
  8 10  1  0  0  0  0
  8 13  2  0  0  0  0
  9 15  1  0  0  0  0
 10 18  2  0  0  0  0
 11 12  2  0  0  0  0
 11 22  1  0  0  0  0
 12 21  1  0  0  0  0
 13 19  1  0  0  0  0
 13 21  1  0  0  0  0
 14 17  1  0  0  0  0
 14 18  1  0  0  0  0
 14 19  2  0  0  0  0
 15 20  2  0  0  0  0
 16 22  1  0  0  0  0
 17 23  1  0  0  0  0
 17 24  1  0  0  0  0
 17 25  1  0  0  0  0
  1 26  1  0  0  0  0
  2 27  1  0  0  0  0
  3 28  1  0  0  0  0
  4 29  1  0  0  0  0
  5 30  1  0  0  0  0
  6 31  1  0  0  0  0
  7 32  1  0  0  0  0
 15 33  1  0  0  0  0
 16 34  1  0  0  0  0
 16 35  1  0  0  0  0
 16 36  1  0  0  0  0
M  END
> <id>
EN300-26593748

> <smiles>
COC=1C=CC(C=O)=CC1OC=2N=C(N=C3C=CC=CC23)C(F)(F)F

> <IUPAC Name>
4-methoxy-3-{[2-(trifluoromethyl)quinazolin-4-yl]oxy}benzaldehyde

> <CAS>
924427-25-8

> <URL>
https://www.enaminestore.com/catalog/EN300-26593748

> <ROCS_ShapeQuery>
x0446_0A_x1080_0A_x0929_0A_x0812_0A_x0719_0A_x1140_0A_x0528_0A_x0310_0A

> <ROCS_TanimotoCombo>
0.452 

> <ROCS_ShapeTanimoto>
0.275 

> <ROCS_ColorTanimoto>
0.177 

> <ROCS_RefTversky>
0.247 

> <ROCS_RefColorTversky>
0.190 

> <ROCS_RefTverskyCombo>
0.438 

> <ROCS_FitTversky>
1.687 

> <ROCS_FitColorTversky>
0.716 

> <ROCS_FitTverskyCombo>
2.404 

> <ROCS_ColorScore>
-6.791

> <ROCS_Overlap>
2925.511

> <ROCS_Rank>
17                  

$$$$
untitled-dbase-398660_0
  -OEChem-02082415563D

 34 37  0     1  0  0  0  0  0999 V2000
   10.9546   15.7443   21.8396 C   0  0  0  0  0  0  0  0  0  0  0  0
    6.5311   12.1460   25.6097 C   0  0  0  0  0  0  0  0  0  0  0  0
    9.3606    9.9131   23.2408 C   0  0  0  0  0  0  0  0  0  0  0  0
    7.1027   10.9696   23.5042 C   0  0  0  0  0  0  0  0  0  0  0  0
    8.7840   11.1167   25.3622 C   0  0  0  0  0  0  0  0  0  0  0  0
    8.7682   11.9511   21.9045 C   0  0  0  0  0  0  0  0  0  0  0  0
   10.4383   12.1132   23.7668 C   0  0  0  0  0  0  0  0  0  0  0  0
    8.1830   13.1720   24.0474 C   0  0  0  0  0  0  0  0  0  0  0  0
    8.2274   10.6431   22.5077 C   0  0  1  0  0  0  0  0  0  0  0  0
    9.9083   10.8001   24.3669 C   0  0  2  0  0  0  0  0  0  0  0  0
    7.6434   11.8556   24.6423 C   0  0  0  0  0  0  0  0  0  0  0  0
    9.3167   12.8999   23.0129 C   0  0  0  0  0  0  0  0  0  0  0  0
    9.7085   16.0024   21.3505 N   0  0  0  0  0  0  0  0  0  0  0  0
   11.0469   14.5982   22.5188 N   0  0  0  0  0  0  0  0  0  0  0  0
    8.9496   14.9802   21.7256 N   0  0  0  0  0  0  0  0  0  0  0  0
    9.7781   14.1796   22.4104 N   0  0  0  0  0  0  0  0  0  0  0  0
    5.3836   11.7396   25.5023 O   0  0  0  0  0  0  0  0  0  0  0  0
    6.9719   12.9277   26.6255 O   0  0  0  0  0  0  0  0  0  0  0  0
   11.8038   16.3955   21.7020 H   0  0  0  0  0  0  0  0  0  0  0  0
    8.9921    8.9658   23.6534 H   0  0  0  0  0  0  0  0  0  0  0  0
   10.1631    9.6618   22.5364 H   0  0  0  0  0  0  0  0  0  0  0  0
    6.2775   11.4748   22.9851 H   0  0  0  0  0  0  0  0  0  0  0  0
    6.6837   10.0396   23.9108 H   0  0  0  0  0  0  0  0  0  0  0  0
    8.4154   10.1872   25.8159 H   0  0  0  0  0  0  0  0  0  0  0  0
    9.1734   11.7262   26.1882 H   0  0  0  0  0  0  0  0  0  0  0  0
    9.5585   11.7274   21.1757 H   0  0  0  0  0  0  0  0  0  0  0  0
    7.9695   12.4573   21.3460 H   0  0  0  0  0  0  0  0  0  0  0  0
   10.8606   12.7405   24.5635 H   0  0  0  0  0  0  0  0  0  0  0  0
   11.2669   11.8975   23.0788 H   0  0  0  0  0  0  0  0  0  0  0  0
    7.3696   13.7301   23.5623 H   0  0  0  0  0  0  0  0  0  0  0  0
    8.5533   13.8271   24.8486 H   0  0  0  0  0  0  0  0  0  0  0  0
    7.8360   10.0053   21.7072 H   0  0  0  0  0  0  0  0  0  0  0  0
   10.7210   10.2776   24.8838 H   0  0  0  0  0  0  0  0  0  0  0  0
    6.2588   13.1304   27.2679 H   0  0  0  0  0  0  0  0  0  0  0  0
  1 13  1  0  0  0  0
  1 14  2  0  0  0  0
  2 11  1  0  0  0  0
  2 17  2  0  0  0  0
  2 18  1  0  0  0  0
  3  9  1  0  0  0  0
  3 10  1  0  0  0  0
  4  9  1  0  0  0  0
  4 11  1  0  0  0  0
  5 10  1  0  0  0  0
  5 11  1  0  0  0  0
  6  9  1  0  0  0  0
  6 12  1  0  0  0  0
  7 10  1  0  0  0  0
  7 12  1  0  0  0  0
  8 11  1  0  0  0  0
  8 12  1  0  0  0  0
 12 16  1  0  0  0  0
 13 15  2  0  0  0  0
 14 16  1  0  0  0  0
 15 16  1  0  0  0  0
  1 19  1  0  0  0  0
  3 20  1  0  0  0  0
  3 21  1  0  0  0  0
  4 22  1  0  0  0  0
  4 23  1  0  0  0  0
  5 24  1  0  0  0  0
  5 25  1  0  0  0  0
  6 26  1  0  0  0  0
  6 27  1  0  0  0  0
  7 28  1  0  0  0  0
  7 29  1  0  0  0  0
  8 30  1  0  0  0  0
  8 31  1  0  0  0  0
  9 32  1  0  0  0  0
 10 33  1  0  0  0  0
 18 34  1  0  0  0  0
M  END
> <id>
EN300-83547

> <smiles>
OC(=O)C1(CC2CC3C1)CC(C2)(C3)N4N=CN=N4

> <IUPAC Name>
3-(2H-1,2,3,4-tetrazol-2-yl)adamantane-1-carboxylic acid

> <CAS>
438218-00-9

> <Purity>
95

> <URL>
https://www.enaminestore.com/catalog/EN300-83547

> <ROCS_ShapeQuery>
x0446_0A_x1080_0A_x0929_0A_x0812_0A_x0719_0A_x1140_0A_x0528_0A_x0310_0A

> <ROCS_TanimotoCombo>
0.452 

> <ROCS_ShapeTanimoto>
0.238 

> <ROCS_ColorTanimoto>
0.213 

> <ROCS_RefTversky>
0.216 

> <ROCS_RefColorTversky>
0.249 

> <ROCS_RefTverskyCombo>
0.465 

> <ROCS_FitTversky>
1.789 

> <ROCS_FitColorTversky>
0.598 

> <ROCS_FitTverskyCombo>
2.387 

> <ROCS_ColorScore>
-8.973

> <ROCS_Overlap>
2544.622

> <ROCS_Rank>
18                  

$$$$
untitled-dbase-128989_0
  -OEChem-02082415563D

 48 52  0     1  0  0  0  0  0999 V2000
   11.3967   14.5814   19.9205 C   0  0  0  0  0  0  0  0  0  0  0  0
    9.4868   15.0455   22.3626 C   0  0  0  0  0  0  0  0  0  0  0  0
   13.0174   15.8016   21.3613 C   0  0  0  0  0  0  0  0  0  0  0  0
    7.0238   10.6676   23.9094 C   0  0  0  0  0  0  0  0  0  0  0  0
   12.8965   13.7779   23.0576 C   0  0  0  0  0  0  0  0  0  0  0  0
    7.7778   12.6502   22.5699 C   0  0  0  0  0  0  0  0  0  0  0  0
    8.2368   12.5500   25.0395 C   0  0  0  0  0  0  0  0  0  0  0  0
    8.9064   10.4317   22.2717 C   0  0  0  0  0  0  0  0  0  0  0  0
    9.3662   10.3331   24.7355 C   0  0  0  0  0  0  0  0  0  0  0  0
   10.1254   12.3162   23.3998 C   0  0  0  0  0  0  0  0  0  0  0  0
   11.5309   15.5842   20.9897 C   0  0  2  0  0  0  0  0  0  0  0  0
   13.1979   15.2156   22.7360 C   0  0  2  0  0  0  0  0  0  0  0  0
    7.5633   11.1262   22.5439 C   0  0  1  0  0  0  0  0  0  0  0  0
    8.0249   11.0258   25.0208 C   0  0  2  0  0  0  0  0  0  0  0  0
   11.8382   14.8304   23.2422 C   0  0  1  0  0  0  0  0  0  0  0  0
    8.7868   13.0375   23.6777 C   0  0  0  0  0  0  0  0  0  0  0  0
    9.9163   10.7915   23.3749 C   0  0  0  0  0  0  0  0  0  0  0  0
    8.9949   14.5540   23.7007 C   0  0  2  0  0  0  0  0  0  0  0  0
   11.2909   13.7910   19.0777 N   0  0  0  0  0  0  0  0  0  0  0  0
   10.8634   15.1226   22.2238 N   0  0  0  0  0  0  0  0  0  0  0  0
    7.7649   15.2457   23.9329 N   0  0  0  0  0  0  0  0  0  0  0  0
    8.6856   15.3517   21.4780 O   0  0  0  0  0  0  0  0  0  0  0  0
   11.1480   10.1377   23.1046 O   0  0  0  0  0  0  0  0  0  0  0  0
   13.7162   15.3475   20.6506 H   0  0  0  0  0  0  0  0  0  0  0  0
   13.2274   16.8766   21.4093 H   0  0  0  0  0  0  0  0  0  0  0  0
    6.0563   11.1442   24.1092 H   0  0  0  0  0  0  0  0  0  0  0  0
    6.8493    9.5846   23.8980 H   0  0  0  0  0  0  0  0  0  0  0  0
   12.7956   13.0743   22.2409 H   0  0  0  0  0  0  0  0  0  0  0  0
   13.3455   13.3576   23.9497 H   0  0  0  0  0  0  0  0  0  0  0  0
    8.1421   12.9872   21.5908 H   0  0  0  0  0  0  0  0  0  0  0  0
    6.8174   13.1539   22.7392 H   0  0  0  0  0  0  0  0  0  0  0  0
    7.2868   13.0510   25.2659 H   0  0  0  0  0  0  0  0  0  0  0  0
    8.9327   12.8149   25.8461 H   0  0  0  0  0  0  0  0  0  0  0  0
    8.7725    9.3433   22.2226 H   0  0  0  0  0  0  0  0  0  0  0  0
    9.2987   10.7266   21.2898 H   0  0  0  0  0  0  0  0  0  0  0  0
   10.0887   10.5564   25.5313 H   0  0  0  0  0  0  0  0  0  0  0  0
    9.2441    9.2422   24.7448 H   0  0  0  0  0  0  0  0  0  0  0  0
   10.5546   12.6476   22.4447 H   0  0  0  0  0  0  0  0  0  0  0  0
   10.8717   12.5782   24.1621 H   0  0  0  0  0  0  0  0  0  0  0  0
   11.0652   16.5227   20.6686 H   0  0  0  0  0  0  0  0  0  0  0  0
   13.8710   15.7663   23.3761 H   0  0  0  0  0  0  0  0  0  0  0  0
    6.8462   10.8671   21.7571 H   0  0  0  0  0  0  0  0  0  0  0  0
    7.6358   10.6947   25.9900 H   0  0  0  0  0  0  0  0  0  0  0  0
   11.5871   15.1568   24.2435 H   0  0  0  0  0  0  0  0  0  0  0  0
    9.7043   14.8289   24.4791 H   0  0  0  0  0  0  0  0  0  0  0  0
    7.5479   15.8285   23.1468 H   0  0  0  0  0  0  0  0  0  0  0  0
    7.0228   14.5850   24.0658 H   0  0  0  0  0  0  0  0  0  0  0  0
   11.7599   10.3854   23.8169 H   0  0  0  0  0  0  0  0  0  0  0  0
  1 11  1  1  0  0  0
  1 19  3  0  0  0  0
  2 18  1  0  0  0  0
  2 20  1  0  0  0  0
  2 22  2  0  0  0  0
  3 11  1  0  0  0  0
  3 12  1  0  0  0  0
  4 13  1  0  0  0  0
  4 14  1  0  0  0  0
  5 12  1  1  0  0  0
  5 15  1  1  0  0  0
  6 13  1  0  0  0  0
  6 16  1  0  0  0  0
  7 14  1  0  0  0  0
  7 16  1  0  0  0  0
  8 13  1  0  0  0  0
  8 17  1  0  0  0  0
  9 14  1  0  0  0  0
  9 17  1  0  0  0  0
 10 16  1  0  0  0  0
 10 17  1  0  0  0  0
 11 20  1  0  0  0  0
 12 15  1  0  0  0  0
 15 20  1  0  0  0  0
 16 18  1  0  0  0  0
 17 23  1  0  0  0  0
 18 21  1  6  0  0  0
  3 24  1  0  0  0  0
  3 25  1  0  0  0  0
  4 26  1  0  0  0  0
  4 27  1  0  0  0  0
  5 28  1  0  0  0  0
  5 29  1  0  0  0  0
  6 30  1  0  0  0  0
  6 31  1  0  0  0  0
  7 32  1  0  0  0  0
  7 33  1  0  0  0  0
  8 34  1  0  0  0  0
  8 35  1  0  0  0  0
  9 36  1  0  0  0  0
  9 37  1  0  0  0  0
 10 38  1  0  0  0  0
 10 39  1  0  0  0  0
 11 40  1  0  0  0  0
 12 41  1  0  0  0  0
 13 42  1  0  0  0  0
 14 43  1  0  0  0  0
 15 44  1  0  0  0  0
 18 45  1  0  0  0  0
 21 46  1  0  0  0  0
 21 47  1  0  0  0  0
 23 48  1  0  0  0  0
M  END
> <id>
EN300-761487

> <smiles>
N[C@H](C(=O)N1[C@H]2C[C@H]2C[C@H]1C#N)C3(CC4CC5CC(O)(C4)C3)C5

> <IUPAC Name>
(1S,3S,5S)-2-[(2S)-2-amino-2-(3-hydroxyadamantan-1-yl)acetyl]-2-azabicyclo[3.1.0]hexane-3-carbonitrile

> <CAS>
361442-04-8

> <URL>
https://www.enaminestore.com/catalog/EN300-761487

> <ROCS_ShapeQuery>
x0446_0A_x1080_0A_x0929_0A_x0812_0A_x0719_0A_x1140_0A_x0528_0A_x0310_0A

> <ROCS_TanimotoCombo>
0.451 

> <ROCS_ShapeTanimoto>
0.261 

> <ROCS_ColorTanimoto>
0.190 

> <ROCS_RefTversky>
0.235 

> <ROCS_RefColorTversky>
0.236 

> <ROCS_RefTverskyCombo>
0.471 

> <ROCS_FitTversky>
1.714 

> <ROCS_FitColorTversky>
0.492 

> <ROCS_FitTverskyCombo>
2.206 

> <ROCS_ColorScore>
-8.518

> <ROCS_Overlap>
2782.309

> <ROCS_Rank>
19                  

$$$$
untitled-dbase-369205_0
  -OEChem-02082415563D

 48 52  0     1  0  0  0  0  0999 V2000
   11.3967   14.5814   19.9205 C   0  0  0  0  0  0  0  0  0  0  0  0
    9.4868   15.0455   22.3626 C   0  0  0  0  0  0  0  0  0  0  0  0
   13.0174   15.8016   21.3613 C   0  0  0  0  0  0  0  0  0  0  0  0
    7.0238   10.6676   23.9094 C   0  0  0  0  0  0  0  0  0  0  0  0
   12.8965   13.7779   23.0576 C   0  0  0  0  0  0  0  0  0  0  0  0
    7.7778   12.6502   22.5699 C   0  0  0  0  0  0  0  0  0  0  0  0
    8.2368   12.5500   25.0395 C   0  0  0  0  0  0  0  0  0  0  0  0
    8.9064   10.4317   22.2717 C   0  0  0  0  0  0  0  0  0  0  0  0
    9.3662   10.3331   24.7355 C   0  0  0  0  0  0  0  0  0  0  0  0
   10.1254   12.3162   23.3998 C   0  0  0  0  0  0  0  0  0  0  0  0
   11.5309   15.5842   20.9897 C   0  0  2  0  0  0  0  0  0  0  0  0
   13.1979   15.2156   22.7360 C   0  0  2  0  0  0  0  0  0  0  0  0
    7.5633   11.1262   22.5439 C   0  0  1  0  0  0  0  0  0  0  0  0
    8.0249   11.0258   25.0208 C   0  0  2  0  0  0  0  0  0  0  0  0
   11.8382   14.8304   23.2422 C   0  0  1  0  0  0  0  0  0  0  0  0
    8.7868   13.0375   23.6777 C   0  0  0  0  0  0  0  0  0  0  0  0
    9.9163   10.7915   23.3749 C   0  0  0  0  0  0  0  0  0  0  0  0
    8.9949   14.5540   23.7007 C   0  0  2  0  0  0  0  0  0  0  0  0
   11.2909   13.7910   19.0777 N   0  0  0  0  0  0  0  0  0  0  0  0
   10.8634   15.1226   22.2238 N   0  0  0  0  0  0  0  0  0  0  0  0
    7.7649   15.2457   23.9329 N   0  0  0  0  0  0  0  0  0  0  0  0
    8.6856   15.3517   21.4780 O   0  0  0  0  0  0  0  0  0  0  0  0
   11.1480   10.1377   23.1046 O   0  0  0  0  0  0  0  0  0  0  0  0
   13.7162   15.3475   20.6506 H   0  0  0  0  0  0  0  0  0  0  0  0
   13.2274   16.8766   21.4093 H   0  0  0  0  0  0  0  0  0  0  0  0
    6.0563   11.1442   24.1092 H   0  0  0  0  0  0  0  0  0  0  0  0
    6.8493    9.5846   23.8980 H   0  0  0  0  0  0  0  0  0  0  0  0
   12.7956   13.0743   22.2409 H   0  0  0  0  0  0  0  0  0  0  0  0
   13.3455   13.3576   23.9497 H   0  0  0  0  0  0  0  0  0  0  0  0
    8.1421   12.9872   21.5908 H   0  0  0  0  0  0  0  0  0  0  0  0
    6.8174   13.1539   22.7392 H   0  0  0  0  0  0  0  0  0  0  0  0
    7.2868   13.0510   25.2659 H   0  0  0  0  0  0  0  0  0  0  0  0
    8.9327   12.8149   25.8461 H   0  0  0  0  0  0  0  0  0  0  0  0
    8.7725    9.3433   22.2226 H   0  0  0  0  0  0  0  0  0  0  0  0
    9.2987   10.7266   21.2898 H   0  0  0  0  0  0  0  0  0  0  0  0
   10.0887   10.5564   25.5313 H   0  0  0  0  0  0  0  0  0  0  0  0
    9.2441    9.2422   24.7448 H   0  0  0  0  0  0  0  0  0  0  0  0
   10.5546   12.6476   22.4447 H   0  0  0  0  0  0  0  0  0  0  0  0
   10.8717   12.5782   24.1621 H   0  0  0  0  0  0  0  0  0  0  0  0
   11.0652   16.5227   20.6686 H   0  0  0  0  0  0  0  0  0  0  0  0
   13.8710   15.7663   23.3761 H   0  0  0  0  0  0  0  0  0  0  0  0
    6.8462   10.8671   21.7571 H   0  0  0  0  0  0  0  0  0  0  0  0
    7.6358   10.6947   25.9900 H   0  0  0  0  0  0  0  0  0  0  0  0
   11.5871   15.1568   24.2435 H   0  0  0  0  0  0  0  0  0  0  0  0
    9.7043   14.8289   24.4791 H   0  0  0  0  0  0  0  0  0  0  0  0
    7.5479   15.8285   23.1468 H   0  0  0  0  0  0  0  0  0  0  0  0
    7.0228   14.5850   24.0658 H   0  0  0  0  0  0  0  0  0  0  0  0
   11.7599   10.3854   23.8169 H   0  0  0  0  0  0  0  0  0  0  0  0
  1 11  1  1  0  0  0
  1 19  3  0  0  0  0
  2 18  1  0  0  0  0
  2 20  1  0  0  0  0
  2 22  2  0  0  0  0
  3 11  1  0  0  0  0
  3 12  1  0  0  0  0
  4 13  1  0  0  0  0
  4 14  1  0  0  0  0
  5 12  1  1  0  0  0
  5 15  1  1  0  0  0
  6 13  1  0  0  0  0
  6 16  1  0  0  0  0
  7 14  1  0  0  0  0
  7 16  1  0  0  0  0
  8 13  1  0  0  0  0
  8 17  1  0  0  0  0
  9 14  1  0  0  0  0
  9 17  1  0  0  0  0
 10 16  1  0  0  0  0
 10 17  1  0  0  0  0
 11 20  1  0  0  0  0
 12 15  1  0  0  0  0
 15 20  1  0  0  0  0
 16 18  1  0  0  0  0
 17 23  1  0  0  0  0
 18 21  1  6  0  0  0
  3 24  1  0  0  0  0
  3 25  1  0  0  0  0
  4 26  1  0  0  0  0
  4 27  1  0  0  0  0
  5 28  1  0  0  0  0
  5 29  1  0  0  0  0
  6 30  1  0  0  0  0
  6 31  1  0  0  0  0
  7 32  1  0  0  0  0
  7 33  1  0  0  0  0
  8 34  1  0  0  0  0
  8 35  1  0  0  0  0
  9 36  1  0  0  0  0
  9 37  1  0  0  0  0
 10 38  1  0  0  0  0
 10 39  1  0  0  0  0
 11 40  1  0  0  0  0
 12 41  1  0  0  0  0
 13 42  1  0  0  0  0
 14 43  1  0  0  0  0
 15 44  1  0  0  0  0
 18 45  1  0  0  0  0
 21 46  1  0  0  0  0
 21 47  1  0  0  0  0
 23 48  1  0  0  0  0
M  END
> <id>
EN300-26976214

> <smiles>
Cl.N[C@H](C(=O)N1[C@H]2C[C@H]2C[C@H]1C#N)C3(CC4CC5CC(O)(C4)C3)C5

> <IUPAC Name>
(1S,3S,5S)-2-[(2S)-2-amino-2-(3-hydroxyadamantan-1-yl)acetyl]-2-azabicyclo[3.1.0]hexane-3-carbonitrile hydrochloride

> <CAS>
709031-78-7

> <Purity>
95

> <URL>
https://www.enaminestore.com/catalog/EN300-26976214

> <Saltdate>
Cl

> <ROCS_ShapeQuery>
x0446_0A_x1080_0A_x0929_0A_x0812_0A_x0719_0A_x1140_0A_x0528_0A_x0310_0A

> <ROCS_TanimotoCombo>
0.451 

> <ROCS_ShapeTanimoto>
0.261 

> <ROCS_ColorTanimoto>
0.190 

> <ROCS_RefTversky>
0.235 

> <ROCS_RefColorTversky>
0.236 

> <ROCS_RefTverskyCombo>
0.471 

> <ROCS_FitTversky>
1.714 

> <ROCS_FitColorTversky>
0.492 

> <ROCS_FitTverskyCombo>
2.206 

> <ROCS_ColorScore>
-8.518

> <ROCS_Overlap>
2782.309

> <ROCS_Rank>
20                  

$$$$
untitled-dbase-259125_0
  -OEChem-02082415563D

 48 52  0     1  0  0  0  0  0999 V2000
   11.3967   14.5809   19.9204 C   0  0  0  0  0  0  0  0  0  0  0  0
    9.4866   15.0454   22.3623 C   0  0  0  0  0  0  0  0  0  0  0  0
   13.0175   15.8009   21.3614 C   0  0  0  0  0  0  0  0  0  0  0  0
    7.0256   10.6665   23.9076 C   0  0  0  0  0  0  0  0  0  0  0  0
   12.8961   13.7773   23.0577 C   0  0  0  0  0  0  0  0  0  0  0  0
    8.2356   12.5503   25.0390 C   0  0  0  0  0  0  0  0  0  0  0  0
    7.7777   12.6504   22.5693 C   0  0  0  0  0  0  0  0  0  0  0  0
    9.3670   10.3339   24.7384 C   0  0  0  0  0  0  0  0  0  0  0  0
    8.9096   10.4339   22.2706 C   0  0  0  0  0  0  0  0  0  0  0  0
   10.1245   12.3158   23.4000 C   0  0  0  0  0  0  0  0  0  0  0  0
   11.5310   15.5838   20.9896 C   0  0  2  0  0  0  0  0  0  0  0  0
   13.1977   15.2149   22.7361 C   0  0  2  0  0  0  0  0  0  0  0  0
    8.0246   11.0260   25.0207 C   0  0  2  0  0  0  0  0  0  0  0  0
    7.5652   11.1263   22.5425 C   0  0  1  0  0  0  0  0  0  0  0  0
   11.8379   14.8299   23.2421 C   0  0  1  0  0  0  0  0  0  0  0  0
    8.7862   13.0376   23.6774 C   0  0  0  0  0  0  0  0  0  0  0  0
    9.9171   10.7916   23.3766 C   0  0  0  0  0  0  0  0  0  0  0  0
    8.9945   14.5540   23.7004 C   0  0  2  0  0  0  0  0  0  0  0  0
   11.2909   13.7906   19.0776 N   0  0  0  0  0  0  0  0  0  0  0  0
   10.8633   15.1223   22.2237 N   0  0  0  0  0  0  0  0  0  0  0  0
    7.7646   15.2459   23.9324 N   0  0  0  0  0  0  0  0  0  0  0  0
    8.6856   15.3517   21.4777 O   0  0  0  0  0  0  0  0  0  0  0  0
   11.1546   10.1375   23.1348 O   0  0  0  0  0  0  0  0  0  0  0  0
   13.7163   15.3467   20.6507 H   0  0  0  0  0  0  0  0  0  0  0  0
   13.2276   16.8758   21.4094 H   0  0  0  0  0  0  0  0  0  0  0  0
    6.8532    9.5833   23.8957 H   0  0  0  0  0  0  0  0  0  0  0  0
    6.0570   11.1414   24.1064 H   0  0  0  0  0  0  0  0  0  0  0  0
   12.7951   13.0737   22.2410 H   0  0  0  0  0  0  0  0  0  0  0  0
   13.3449   13.3570   23.9499 H   0  0  0  0  0  0  0  0  0  0  0  0
    7.2852   13.0507   25.2648 H   0  0  0  0  0  0  0  0  0  0  0  0
    8.9307   12.8158   25.8460 H   0  0  0  0  0  0  0  0  0  0  0  0
    8.1416   12.9885   21.5905 H   0  0  0  0  0  0  0  0  0  0  0  0
    6.8166   13.1530   22.7386 H   0  0  0  0  0  0  0  0  0  0  0  0
   10.0900   10.5588   25.5332 H   0  0  0  0  0  0  0  0  0  0  0  0
    9.2451    9.2430   24.7487 H   0  0  0  0  0  0  0  0  0  0  0  0
    8.7768    9.3454   22.2199 H   0  0  0  0  0  0  0  0  0  0  0  0
    9.3018   10.7304   21.2892 H   0  0  0  0  0  0  0  0  0  0  0  0
   10.5524   12.6486   22.4448 H   0  0  0  0  0  0  0  0  0  0  0  0
   10.8721   12.5773   24.1610 H   0  0  0  0  0  0  0  0  0  0  0  0
   11.0655   16.5223   20.6685 H   0  0  0  0  0  0  0  0  0  0  0  0
   13.8709   15.7655   23.3762 H   0  0  0  0  0  0  0  0  0  0  0  0
    7.6340   10.6951   25.9895 H   0  0  0  0  0  0  0  0  0  0  0  0
    6.8489   10.8667   21.7551 H   0  0  0  0  0  0  0  0  0  0  0  0
   11.5867   15.1564   24.2435 H   0  0  0  0  0  0  0  0  0  0  0  0
    9.7038   14.8288   24.4789 H   0  0  0  0  0  0  0  0  0  0  0  0
    7.5478   15.8287   23.1463 H   0  0  0  0  0  0  0  0  0  0  0  0
    7.0224   14.5854   24.0652 H   0  0  0  0  0  0  0  0  0  0  0  0
   11.4724   10.4478   22.2712 H   0  0  0  0  0  0  0  0  0  0  0  0
  1 11  1  1  0  0  0
  1 19  3  0  0  0  0
  2 18  1  0  0  0  0
  2 20  1  0  0  0  0
  2 22  2  0  0  0  0
  3 11  1  0  0  0  0
  3 12  1  0  0  0  0
  4 13  1  0  0  0  0
  4 14  1  6  0  0  0
  5 12  1  1  0  0  0
  5 15  1  1  0  0  0
  6 13  1  1  0  0  0
  6 16  1  6  0  0  0
  7 14  1  0  0  0  0
  7 16  1  0  0  0  0
  8 13  1  0  0  0  0
  8 17  1  0  0  0  0
  9 14  1  0  0  0  0
  9 17  1  0  0  0  0
 10 16  1  0  0  0  0
 10 17  1  0  0  0  0
 11 20  1  0  0  0  0
 12 15  1  0  0  0  0
 15 20  1  0  0  0  0
 16 18  1  0  0  0  0
 17 23  1  6  0  0  0
 18 21  1  6  0  0  0
  3 24  1  0  0  0  0
  3 25  1  0  0  0  0
  4 26  1  0  0  0  0
  4 27  1  0  0  0  0
  5 28  1  0  0  0  0
  5 29  1  0  0  0  0
  6 30  1  0  0  0  0
  6 31  1  0  0  0  0
  7 32  1  0  0  0  0
  7 33  1  0  0  0  0
  8 34  1  0  0  0  0
  8 35  1  0  0  0  0
  9 36  1  0  0  0  0
  9 37  1  0  0  0  0
 10 38  1  0  0  0  0
 10 39  1  0  0  0  0
 11 40  1  0  0  0  0
 12 41  1  0  0  0  0
 13 42  1  0  0  0  0
 14 43  1  0  0  0  0
 15 44  1  0  0  0  0
 18 45  1  0  0  0  0
 21 46  1  0  0  0  0
 21 47  1  0  0  0  0
 23 48  1  0  0  0  0
M  END
> <id>
EN300-7412304

> <smiles>
N[C@H](C(=O)N1[C@H]2C[C@H]2C[C@H]1C#N)[C@@]3(C[C@H]4C[C@@H]5C[C@](O)(C4)C3)C5

> <MDLNUMBER>
MFCD12756398

> <IUPAC Name>
(1S,3S,5S)-2-[(2S)-2-amino-2-[(1r,3R,5R,7S)-3-hydroxyadamantan-1-yl]acetyl]-2-azabicyclo[3.1.0]hexane-3-carbonitrile

> <CAS>
361442-04-8

> <URL>
https://www.enaminestore.com/catalog/EN300-7412304

> <ROCS_ShapeQuery>
x0446_0A_x1080_0A_x0929_0A_x0812_0A_x0719_0A_x1140_0A_x0528_0A_x0310_0A

> <ROCS_TanimotoCombo>
0.451 

> <ROCS_ShapeTanimoto>
0.261 

> <ROCS_ColorTanimoto>
0.190 

> <ROCS_RefTversky>
0.235 

> <ROCS_RefColorTversky>
0.236 

> <ROCS_RefTverskyCombo>
0.471 

> <ROCS_FitTversky>
1.714 

> <ROCS_FitColorTversky>
0.492 

> <ROCS_FitTverskyCombo>
2.206 

> <ROCS_ColorScore>
-8.518

> <ROCS_Overlap>
2781.945

> <ROCS_Rank>
21                  

$$$$
untitled-dbase-343727_4
  -OEChem-02082415563D

 36 38  0     1  0  0  0  0  0999 V2000
   10.1422   12.7769   24.0401 C   0  0  0  0  0  0  0  0  0  0  0  0
    7.8032   10.4785   23.0659 C   0  0  0  0  0  0  0  0  0  0  0  0
    5.9865   11.8063   24.2182 C   0  0  0  0  0  0  0  0  0  0  0  0
    9.7639   14.0974   21.9181 C   0  0  0  0  0  0  0  0  0  0  0  0
   10.0666   10.3094   24.0343 C   0  0  0  0  0  0  0  0  0  0  0  0
    8.2728   11.6497   25.1917 C   0  0  0  0  0  0  0  0  0  0  0  0
    9.6707   11.6091   21.9120 C   0  0  0  0  0  0  0  0  0  0  0  0
    7.8753   12.9518   23.0683 C   0  0  0  0  0  0  0  0  0  0  0  0
    9.7731   11.5597   24.8754 C   0  0  2  0  0  0  0  0  0  0  0  0
    9.2796   10.3614   22.7173 C   0  0  2  0  0  0  0  0  0  0  0  0
    7.4487   11.7170   23.8892 C   0  0  1  0  0  0  0  0  0  0  0  0
    9.3778   12.8892   22.7215 C   0  0  1  0  0  0  0  0  0  0  0  0
    3.8433   11.9431   23.2325 C   0  0  0  0  0  0  0  0  0  0  0  0
   11.5982   15.1375   20.8515 C   0  0  0  0  0  0  0  0  0  0  0  0
   10.9841   13.5916   24.4074 O   0  0  0  0  0  0  0  0  0  0  0  0
    6.9782    9.6419   22.7097 O   0  0  0  0  0  0  0  0  0  0  0  0
    5.5407   11.8286   25.3574 O   0  0  0  0  0  0  0  0  0  0  0  0
    8.9838   14.9826   21.5938 O   0  0  0  0  0  0  0  0  0  0  0  0
    5.2618   11.8563   23.0644 O   0  0  0  0  0  0  0  0  0  0  0  0
   11.0932   14.0409   21.6200 O   0  0  0  0  0  0  0  0  0  0  0  0
   11.1401   10.2447   23.8189 H   0  0  0  0  0  0  0  0  0  0  0  0
    9.7916    9.4115   24.6016 H   0  0  0  0  0  0  0  0  0  0  0  0
    7.9729   10.7794   25.7902 H   0  0  0  0  0  0  0  0  0  0  0  0
    8.0739   12.5380   25.8059 H   0  0  0  0  0  0  0  0  0  0  0  0
   10.7361   11.5563   21.6518 H   0  0  0  0  0  0  0  0  0  0  0  0
    9.1159   11.6309   20.9645 H   0  0  0  0  0  0  0  0  0  0  0  0
    7.2836   13.0161   22.1439 H   0  0  0  0  0  0  0  0  0  0  0  0
    7.6530   13.8684   23.6329 H   0  0  0  0  0  0  0  0  0  0  0  0
   10.3626   11.5523   25.7978 H   0  0  0  0  0  0  0  0  0  0  0  0
    9.4494    9.4535   22.1295 H   0  0  0  0  0  0  0  0  0  0  0  0
    3.3609   11.9774   22.2526 H   0  0  0  0  0  0  0  0  0  0  0  0
    3.5974   12.8422   23.8031 H   0  0  0  0  0  0  0  0  0  0  0  0
    3.4952   11.0620   23.7767 H   0  0  0  0  0  0  0  0  0  0  0  0
   12.6661   14.9944   20.6693 H   0  0  0  0  0  0  0  0  0  0  0  0
   11.4323   16.0712   21.3948 H   0  0  0  0  0  0  0  0  0  0  0  0
   11.0697   15.1753   19.8961 H   0  0  0  0  0  0  0  0  0  0  0  0
  1  9  1  0  0  0  0
  1 12  1  0  0  0  0
  1 15  2  0  0  0  0
  2 10  1  0  0  0  0
  2 11  1  0  0  0  0
  2 16  2  0  0  0  0
  3 11  1  0  0  0  0
  3 17  2  0  0  0  0
  3 19  1  0  0  0  0
  4 12  1  0  0  0  0
  4 18  2  0  0  0  0
  4 20  1  0  0  0  0
  5  9  1  0  0  0  0
  5 10  1  0  0  0  0
  6  9  1  0  0  0  0
  6 11  1  0  0  0  0
  7 10  1  0  0  0  0
  7 12  1  0  0  0  0
  8 11  1  0  0  0  0
  8 12  1  0  0  0  0
 13 19  1  0  0  0  0
 14 20  1  0  0  0  0
  5 21  1  0  0  0  0
  5 22  1  0  0  0  0
  6 23  1  0  0  0  0
  6 24  1  0  0  0  0
  7 25  1  0  0  0  0
  7 26  1  0  0  0  0
  8 27  1  0  0  0  0
  8 28  1  0  0  0  0
  9 29  1  0  0  0  0
 10 30  1  0  0  0  0
 13 31  1  0  0  0  0
 13 32  1  0  0  0  0
 13 33  1  0  0  0  0
 14 34  1  0  0  0  0
 14 35  1  0  0  0  0
 14 36  1  0  0  0  0
M  END
> <id>
EN300-27115401

> <smiles>
COC(=O)C1(CC2CC3CC(C1)(C(=O)OC)C2=O)C3=O

> <IUPAC Name>
1,3-dimethyl 4,8-dioxoadamantane-1,3-dicarboxylate

> <CAS>
64558-01-6

> <Purity>
95

> <URL>
https://www.enaminestore.com/catalog/EN300-27115401

> <ROCS_ShapeQuery>
x0446_0A_x1080_0A_x0929_0A_x0812_0A_x0719_0A_x1140_0A_x0528_0A_x0310_0A

> <ROCS_TanimotoCombo>
0.450 

> <ROCS_ShapeTanimoto>
0.238 

> <ROCS_ColorTanimoto>
0.212 

> <ROCS_RefTversky>
0.217 

> <ROCS_RefColorTversky>
0.233 

> <ROCS_RefTverskyCombo>
0.449 

> <ROCS_FitTversky>
1.705 

> <ROCS_FitColorTversky>
0.705 

> <ROCS_FitTverskyCombo>
2.410 

> <ROCS_ColorScore>
-8.349

> <ROCS_Overlap>
2556.808

> <ROCS_Rank>
22                  

$$$$
untitled-dbase-289715_8
  -OEChem-02082415563D

 37 40  0     0  0  0  0  0  0999 V2000
   14.0386   17.5643   19.9710 C   0  0  0  0  0  0  0  0  0  0  0  0
   12.7499   17.9091   19.5120 C   0  0  0  0  0  0  0  0  0  0  0  0
   14.2195   16.5536   20.9198 C   0  0  0  0  0  0  0  0  0  0  0  0
   11.6137   17.2508   19.9920 C   0  0  0  0  0  0  0  0  0  0  0  0
    8.2662   12.8528   23.6868 C   0  0  0  0  0  0  0  0  0  0  0  0
    6.1215   10.5735   25.3660 C   0  0  0  0  0  0  0  0  0  0  0  0
   13.0867   15.9146   21.3780 C   0  0  0  0  0  0  0  0  0  0  0  0
   11.8139   16.2552   20.9248 C   0  0  0  0  0  0  0  0  0  0  0  0
    9.2791   12.0309   23.1990 C   0  0  0  0  0  0  0  0  0  0  0  0
    7.2798   10.8394   24.6144 C   0  0  0  0  0  0  0  0  0  0  0  0
    7.2618   12.2109   24.4048 C   0  0  0  0  0  0  0  0  0  0  0  0
    9.2246   10.6645   23.4522 C   0  0  0  0  0  0  0  0  0  0  0  0
   12.9443   14.8383   22.3637 C   0  0  0  0  0  0  0  0  0  0  0  0
   10.8428   15.4008   21.6158 C   0  0  0  0  0  0  0  0  0  0  0  0
   10.3878   12.6399   22.4211 C   0  0  0  0  0  0  0  0  0  0  0  0
    5.6567   14.0159   25.0962 C   0  0  0  0  0  0  0  0  0  0  0  0
   10.3101    9.7760   22.9292 C   0  0  0  0  0  0  0  0  0  0  0  0
    5.4144   11.6784   25.6208 N   0  0  0  0  0  0  0  0  0  0  0  0
    8.2557   10.0237   24.1483 N   0  0  0  0  0  0  0  0  0  0  0  0
    6.1288   12.6526   25.0271 N   0  0  0  0  0  0  0  0  0  0  0  0
   11.6081   14.5880   22.3921 N   0  0  0  0  0  0  0  0  0  0  0  0
   13.8628   14.3209   22.9683 O   0  0  0  0  0  0  0  0  0  0  0  0
    9.6381   15.4522   21.4648 O   0  0  0  0  0  0  0  0  0  0  0  0
   10.6425   12.3324   21.2667 O   0  0  0  0  0  0  0  0  0  0  0  0
   11.0649   13.5768   23.1577 O   0  0  0  0  0  0  0  0  0  0  0  0
   11.2708   10.4473   22.2319 F   0  0  0  0  0  0  0  0  0  0  0  0
   10.9786    9.1040   23.9095 F   0  0  0  0  0  0  0  0  0  0  0  0
    9.8358    8.8204   22.0813 F   0  0  0  0  0  0  0  0  0  0  0  0
   14.9029   18.0952   19.5800 H   0  0  0  0  0  0  0  0  0  0  0  0
   12.6411   18.7003   18.7747 H   0  0  0  0  0  0  0  0  0  0  0  0
   15.2096   16.2914   21.2734 H   0  0  0  0  0  0  0  0  0  0  0  0
   10.6242   17.5183   19.6409 H   0  0  0  0  0  0  0  0  0  0  0  0
    8.2566   13.9240   23.5201 H   0  0  0  0  0  0  0  0  0  0  0  0
    5.7611    9.6255   25.7390 H   0  0  0  0  0  0  0  0  0  0  0  0
    5.0087   14.1926   24.2337 H   0  0  0  0  0  0  0  0  0  0  0  0
    5.1024   14.1625   26.0274 H   0  0  0  0  0  0  0  0  0  0  0  0
    6.5128   14.6962   25.0783 H   0  0  0  0  0  0  0  0  0  0  0  0
  1  2  1  0  0  0  0
  1  3  2  0  0  0  0
  2  4  2  0  0  0  0
  3  7  1  0  0  0  0
  4  8  1  0  0  0  0
  5  9  2  0  0  0  0
  5 11  1  0  0  0  0
  6 10  1  0  0  0  0
  6 18  2  0  0  0  0
  7  8  2  0  0  0  0
  7 13  1  0  0  0  0
  8 14  1  0  0  0  0
  9 12  1  0  0  0  0
  9 15  1  0  0  0  0
 10 11  2  0  0  0  0
 10 19  1  0  0  0  0
 11 20  1  0  0  0  0
 12 17  1  0  0  0  0
 12 19  2  0  0  0  0
 13 21  1  0  0  0  0
 13 22  2  0  0  0  0
 14 21  1  0  0  0  0
 14 23  2  0  0  0  0
 15 24  2  0  0  0  0
 15 25  1  0  0  0  0
 16 20  1  0  0  0  0
 17 26  1  0  0  0  0
 17 27  1  0  0  0  0
 17 28  1  0  0  0  0
 18 20  1  0  0  0  0
 21 25  1  0  0  0  0
  1 29  1  0  0  0  0
  2 30  1  0  0  0  0
  3 31  1  0  0  0  0
  4 32  1  0  0  0  0
  5 33  1  0  0  0  0
  6 34  1  0  0  0  0
 16 35  1  0  0  0  0
 16 36  1  0  0  0  0
 16 37  1  0  0  0  0
M  END
> <id>
EN300-6526577

> <smiles>
CN1N=CC=2N=C(C(=CC12)C(=O)ON3C(=O)C=4C=CC=CC4C3=O)C(F)(F)F

> <IUPAC Name>
1,3-dioxo-2,3-dihydro-1H-isoindol-2-yl 1-methyl-5-(trifluoromethyl)-1H-pyrazolo[4,3-b]pyridine-6-carboxylate

> <CAS>
2248287-33-2

> <URL>
https://www.enaminestore.com/catalog/EN300-6526577

> <ROCS_ShapeQuery>
x0446_0A_x1080_0A_x0929_0A_x0812_0A_x0719_0A_x1140_0A_x0528_0A_x0310_0A

> <ROCS_TanimotoCombo>
0.450 

> <ROCS_ShapeTanimoto>
0.282 

> <ROCS_ColorTanimoto>
0.168 

> <ROCS_RefTversky>
0.256 

> <ROCS_RefColorTversky>
0.186 

> <ROCS_RefTverskyCombo>
0.441 

> <ROCS_FitTversky>
1.580 

> <ROCS_FitColorTversky>
0.636 

> <ROCS_FitTverskyCombo>
2.217 

> <ROCS_ColorScore>
-6.647

> <ROCS_Overlap>
3022.930

> <ROCS_Rank>
23                  

$$$$
untitled-dbase-46145_0
  -OEChem-02082415563D

 37 40  0     1  0  0  0  0  0999 V2000
   10.9583   15.7245   21.8115 C   0  0  0  0  0  0  0  0  0  0  0  0
    6.5601   12.1726   25.6546 C   0  0  0  0  0  0  0  0  0  0  0  0
    9.3157    9.9103   23.2271 C   0  0  0  0  0  0  0  0  0  0  0  0
    7.0770   10.9950   23.5357 C   0  0  0  0  0  0  0  0  0  0  0  0
    8.7946   11.1152   25.3621 C   0  0  0  0  0  0  0  0  0  0  0  0
    8.7248   11.9596   21.9075 C   0  0  0  0  0  0  0  0  0  0  0  0
   10.4314   12.0949   23.7385 C   0  0  0  0  0  0  0  0  0  0  0  0
    8.1956   13.1817   24.0643 C   0  0  0  0  0  0  0  0  0  0  0  0
    8.1785   10.6569   22.5174 C   0  0  1  0  0  0  0  0  0  0  0  0
    9.8958   10.7869   24.3450 C   0  0  2  0  0  0  0  0  0  0  0  0
    7.6504   11.8707   24.6657 C   0  0  0  0  0  0  0  0  0  0  0  0
    9.3061   12.8980   23.0079 C   0  0  0  0  0  0  0  0  0  0  0  0
    9.7067   16.0000   21.3465 N   0  0  0  0  0  0  0  0  0  0  0  0
   11.0485   14.5754   22.4859 N   0  0  0  0  0  0  0  0  0  0  0  0
    8.9418   14.9866   21.7332 N   0  0  0  0  0  0  0  0  0  0  0  0
    9.7727   14.1734   22.4002 N   0  0  0  0  0  0  0  0  0  0  0  0
    6.0991   13.3718   27.6577 N   0  0  0  0  0  0  0  0  0  0  0  0
    6.9971   12.9828   26.6850 N   0  0  0  0  0  0  0  0  0  0  0  0
    5.4175   11.7456   25.5053 O   0  0  0  0  0  0  0  0  0  0  0  0
   11.8131   16.3651   21.6597 H   0  0  0  0  0  0  0  0  0  0  0  0
    8.9428    8.9666   23.6441 H   0  0  0  0  0  0  0  0  0  0  0  0
   10.1016    9.6507   22.5072 H   0  0  0  0  0  0  0  0  0  0  0  0
    6.2488   11.5122   23.0334 H   0  0  0  0  0  0  0  0  0  0  0  0
    6.6538   10.0693   23.9476 H   0  0  0  0  0  0  0  0  0  0  0  0
    8.4226   10.1892   25.8203 H   0  0  0  0  0  0  0  0  0  0  0  0
    9.2073   11.7172   26.1823 H   0  0  0  0  0  0  0  0  0  0  0  0
    9.4983   11.7278   21.1634 H   0  0  0  0  0  0  0  0  0  0  0  0
    7.9223   12.4776   21.3655 H   0  0  0  0  0  0  0  0  0  0  0  0
   10.8766   12.7144   24.5288 H   0  0  0  0  0  0  0  0  0  0  0  0
   11.2441   11.8705   23.0345 H   0  0  0  0  0  0  0  0  0  0  0  0
    7.3806   13.7516   23.5960 H   0  0  0  0  0  0  0  0  0  0  0  0
    8.5894   13.8297   24.8600 H   0  0  0  0  0  0  0  0  0  0  0  0
    7.7640   10.0264   21.7226 H   0  0  0  0  0  0  0  0  0  0  0  0
   10.7113   10.2526   24.8453 H   0  0  0  0  0  0  0  0  0  0  0  0
    6.6197   13.4386   28.5312 H   0  0  0  0  0  0  0  0  0  0  0  0
    5.4431   12.6015   27.7797 H   0  0  0  0  0  0  0  0  0  0  0  0
    7.9646   13.2874   26.7259 H   0  0  0  0  0  0  0  0  0  0  0  0
  1 13  1  0  0  0  0
  1 14  2  0  0  0  0
  2 11  1  0  0  0  0
  2 18  1  0  0  0  0
  2 19  2  0  0  0  0
  3  9  1  0  0  0  0
  3 10  1  0  0  0  0
  4  9  1  0  0  0  0
  4 11  1  0  0  0  0
  5 10  1  0  0  0  0
  5 11  1  0  0  0  0
  6  9  1  0  0  0  0
  6 12  1  0  0  0  0
  7 10  1  0  0  0  0
  7 12  1  0  0  0  0
  8 11  1  0  0  0  0
  8 12  1  0  0  0  0
 12 16  1  0  0  0  0
 13 15  2  0  0  0  0
 14 16  1  0  0  0  0
 15 16  1  0  0  0  0
 17 18  1  0  0  0  0
  1 20  1  0  0  0  0
  3 21  1  0  0  0  0
  3 22  1  0  0  0  0
  4 23  1  0  0  0  0
  4 24  1  0  0  0  0
  5 25  1  0  0  0  0
  5 26  1  0  0  0  0
  6 27  1  0  0  0  0
  6 28  1  0  0  0  0
  7 29  1  0  0  0  0
  7 30  1  0  0  0  0
  8 31  1  0  0  0  0
  8 32  1  0  0  0  0
  9 33  1  0  0  0  0
 10 34  1  0  0  0  0
 17 35  1  0  0  0  0
 17 36  1  0  0  0  0
 18 37  1  0  0  0  0
M  END
> <id>
EN300-228839

> <smiles>
NNC(=O)C1(CC2CC3C1)CC(C2)(C3)N4N=CN=N4

> <MDLNUMBER>
MFCD03423235

> <IUPAC Name>
3-(2H-1,2,3,4-tetrazol-2-yl)adamantane-1-carbohydrazide

> <CAS>
438219-38-6

> <URL>
https://www.enaminestore.com/catalog/EN300-228839

> <ROCS_ShapeQuery>
x0446_0A_x1080_0A_x0929_0A_x0812_0A_x0719_0A_x1140_0A_x0528_0A_x0310_0A

> <ROCS_TanimotoCombo>
0.450 

> <ROCS_ShapeTanimoto>
0.238 

> <ROCS_ColorTanimoto>
0.212 

> <ROCS_RefTversky>
0.216 

> <ROCS_RefColorTversky>
0.249 

> <ROCS_RefTverskyCombo>
0.465 

> <ROCS_FitTversky>
1.742 

> <ROCS_FitColorTversky>
0.587 

> <ROCS_FitTverskyCombo>
2.329 

> <ROCS_ColorScore>
-8.968

> <ROCS_Overlap>
2548.775

> <ROCS_Rank>
24                  

$$$$
untitled-dbase-479856_1
  -OEChem-02082415563D

 26 28  0     1  0  0  0  0  0999 V2000
    9.0756   11.8950   25.3465 C   0  0  0  0  0  0  0  0  0  0  0  0
   10.2504   11.6333   24.3819 C   0  0  0  0  0  0  0  0  0  0  0  0
    7.7858   12.9934   23.5177 C   0  0  0  0  0  0  0  0  0  0  0  0
    7.7377   11.8644   24.5764 C   0  0  1  0  0  0  0  0  0  0  0  0
    9.7251   11.4570   22.9376 C   0  0  1  0  0  0  0  0  0  0  0  0
    7.5796   10.5529   23.8295 C   0  0  1  0  0  0  0  0  0  0  0  0
    8.7289   10.3092   22.8909 C   0  0  2  0  0  0  0  0  0  0  0  0
    8.9328   12.7219   22.5136 C   0  0  2  0  0  0  0  0  0  0  0  0
   11.0865   13.5103   21.1752 N   0  0  0  0  0  0  0  0  0  0  0  0
    9.1907   15.1790   21.6631 O   0  0  0  0  0  0  0  0  0  0  0  0
   10.6603   14.3813   23.5577 O   0  0  0  0  0  0  0  0  0  0  0  0
    8.5406    9.5212   24.0701 O   0  0  0  0  0  0  0  0  0  0  0  0
    9.9724   14.1363   22.3030 S   0  0  0  0  0  0  0  0  0  0  0  0
    9.0759   11.1364   26.1386 H   0  0  0  0  0  0  0  0  0  0  0  0
    9.2086   12.8655   25.8392 H   0  0  0  0  0  0  0  0  0  0  0  0
   10.9751   12.4519   24.4435 H   0  0  0  0  0  0  0  0  0  0  0  0
   10.7873   10.7301   24.6982 H   0  0  0  0  0  0  0  0  0  0  0  0
    6.8344   13.0240   22.9718 H   0  0  0  0  0  0  0  0  0  0  0  0
    7.8966   13.9657   24.0120 H   0  0  0  0  0  0  0  0  0  0  0  0
    6.8988   12.0153   25.2632 H   0  0  0  0  0  0  0  0  0  0  0  0
   10.5586   11.2609   22.2549 H   0  0  0  0  0  0  0  0  0  0  0  0
    6.5779   10.3026   23.5164 H   0  0  0  0  0  0  0  0  0  0  0  0
    8.5369    9.8860   21.9171 H   0  0  0  0  0  0  0  0  0  0  0  0
    8.4958   12.5552   21.5202 H   0  0  0  0  0  0  0  0  0  0  0  0
   11.0410   13.8626   20.2111 H   0  0  0  0  0  0  0  0  0  0  0  0
   12.0417   13.3192   21.5015 H   0  0  0  0  0  0  0  0  0  0  0  0
  1  2  1  0  0  0  0
  1  4  1  0  0  0  0
  2  5  1  6  0  0  0
  3  4  1  1  0  0  0
  3  8  1  0  0  0  0
  4  6  1  0  0  0  0
  5  7  1  0  0  0  0
  5  8  1  0  0  0  0
  6  7  1  0  0  0  0
  6 12  1  6  0  0  0
  7 12  1  6  0  0  0
  8 13  1  6  0  0  0
  9 13  1  0  0  0  0
 10 13  2  0  0  0  0
 11 13  2  0  0  0  0
  1 14  1  0  0  0  0
  1 15  1  0  0  0  0
  2 16  1  0  0  0  0
  2 17  1  0  0  0  0
  3 18  1  0  0  0  0
  3 19  1  0  0  0  0
  4 20  1  0  0  0  0
  5 21  1  0  0  0  0
  6 22  1  0  0  0  0
  7 23  1  0  0  0  0
  8 24  1  0  0  0  0
  9 25  1  0  0  0  0
  9 26  1  0  0  0  0
M  END
> <id>
EN300-27734501

> <smiles>
NS(=O)(=O)[C@@H]1C[C@@H]2CC[C@H]1[C@H]3O[C@H]32 |&1:4,6,9,10,12,r|

> <IUPAC Name>
rac-(1R,2R,4S,5R,6S)-3-oxatricyclo[3.2.2.0,2,4]nonane-6-sulfonamide

> <CAS>
2580095-37-8

> <URL>
https://www.enaminestore.com/catalog/EN300-27734501

> <ROCS_ShapeQuery>
x0446_0A_x1080_0A_x0929_0A_x0812_0A_x0719_0A_x1140_0A_x0528_0A_x0310_0A

> <ROCS_TanimotoCombo>
0.449 

> <ROCS_ShapeTanimoto>
0.195 

> <ROCS_ColorTanimoto>
0.255 

> <ROCS_RefTversky>
0.179 

> <ROCS_RefColorTversky>
0.321 

> <ROCS_RefTverskyCombo>
0.500 

> <ROCS_FitTversky>
1.829 

> <ROCS_FitColorTversky>
0.551 

> <ROCS_FitTverskyCombo>
2.380 

> <ROCS_ColorScore>
-11.678

> <ROCS_Overlap>
2110.258

> <ROCS_Rank>
25                  

$$$$
untitled-dbase-294064_6
  -OEChem-02082415563D

 46 50  0     0  0  0  0  0  0999 V2000
   11.6148   19.1262   21.4825 C   0  0  0  0  0  0  0  0  0  0  0  0
   12.9602   18.8584   21.8119 C   0  0  0  0  0  0  0  0  0  0  0  0
    9.5603    6.1990   22.2098 C   0  0  0  0  0  0  0  0  0  0  0  0
   10.6650   18.1011   21.4410 C   0  0  0  0  0  0  0  0  0  0  0  0
   13.3854   17.5597   22.1071 C   0  0  0  0  0  0  0  0  0  0  0  0
    8.6827    7.1316   22.8127 C   0  0  0  0  0  0  0  0  0  0  0  0
    9.9851   10.6665   23.2631 C   0  0  0  0  0  0  0  0  0  0  0  0
   10.7201    6.8866   21.9377 C   0  0  0  0  0  0  0  0  0  0  0  0
    8.3670   12.0875   24.2894 C   0  0  0  0  0  0  0  0  0  0  0  0
   11.1039   16.8281   21.7385 C   0  0  0  0  0  0  0  0  0  0  0  0
   12.4327   16.5637   22.0637 C   0  0  0  0  0  0  0  0  0  0  0  0
    9.6456   11.9313   23.7416 C   0  0  0  0  0  0  0  0  0  0  0  0
    9.0504    9.6414   23.3533 C   0  0  0  0  0  0  0  0  0  0  0  0
    9.3690    8.3225   22.8663 C   0  0  0  0  0  0  0  0  0  0  0  0
    7.5976   13.1100   24.8719 C   0  0  0  0  0  0  0  0  0  0  0  0
    7.5293   10.9831   24.3196 C   0  0  0  0  0  0  0  0  0  0  0  0
   10.3678   15.5603   21.7716 C   0  0  0  0  0  0  0  0  0  0  0  0
   12.5617   15.1236   22.3084 C   0  0  0  0  0  0  0  0  0  0  0  0
   10.6115   13.0569   23.6685 C   0  0  0  0  0  0  0  0  0  0  0  0
    7.9822   14.9008   26.6036 C   0  0  0  0  0  0  0  0  0  0  0  0
    7.0817   15.5175   24.3311 C   0  0  0  0  0  0  0  0  0  0  0  0
    7.9719   14.5153   25.1047 C   0  0  0  0  0  0  0  0  0  0  0  0
    7.8043    9.7435   23.8736 N   0  0  0  0  0  0  0  0  0  0  0  0
    6.3838   12.6863   25.2356 N   0  0  0  0  0  0  0  0  0  0  0  0
   11.2979   14.6457   22.1555 N   0  0  0  0  0  0  0  0  0  0  0  0
    9.1861   15.4336   21.5181 O   0  0  0  0  0  0  0  0  0  0  0  0
   13.5968   14.5559   22.5968 O   0  0  0  0  0  0  0  0  0  0  0  0
   11.0175   13.6548   24.6534 O   0  0  0  0  0  0  0  0  0  0  0  0
   10.6117    8.1816   22.3350 O   0  0  0  0  0  0  0  0  0  0  0  0
    6.3430   11.3428   24.8859 O   0  0  0  0  0  0  0  0  0  0  0  0
   10.9805   13.3211   22.3752 O   0  0  0  0  0  0  0  0  0  0  0  0
   11.3147   20.1462   21.2565 H   0  0  0  0  0  0  0  0  0  0  0  0
   13.6759   19.6762   21.8346 H   0  0  0  0  0  0  0  0  0  0  0  0
    9.3708    5.1564   21.9998 H   0  0  0  0  0  0  0  0  0  0  0  0
    9.6325   18.3076   21.1854 H   0  0  0  0  0  0  0  0  0  0  0  0
   14.4195   17.3548   22.3572 H   0  0  0  0  0  0  0  0  0  0  0  0
    7.6759    6.9523   23.1630 H   0  0  0  0  0  0  0  0  0  0  0  0
   10.9652   10.4908   22.8268 H   0  0  0  0  0  0  0  0  0  0  0  0
   11.6636    6.6130   21.4886 H   0  0  0  0  0  0  0  0  0  0  0  0
    6.9993   14.7451   27.0616 H   0  0  0  0  0  0  0  0  0  0  0  0
    8.2578   15.9498   26.7572 H   0  0  0  0  0  0  0  0  0  0  0  0
    8.7051   14.2813   27.1460 H   0  0  0  0  0  0  0  0  0  0  0  0
    6.0333   15.3931   24.6245 H   0  0  0  0  0  0  0  0  0  0  0  0
    7.1457   15.3735   23.2471 H   0  0  0  0  0  0  0  0  0  0  0  0
    7.3681   16.5528   24.5460 H   0  0  0  0  0  0  0  0  0  0  0  0
    9.0077   14.7113   24.7473 H   0  0  0  0  0  0  0  0  0  0  0  0
  1  2  1  0  0  0  0
  1  4  2  0  0  0  0
  2  5  2  0  0  0  0
  3  6  1  0  0  0  0
  3  8  2  0  0  0  0
  4 10  1  0  0  0  0
  5 11  1  0  0  0  0
  6 14  2  0  0  0  0
  7 12  2  0  0  0  0
  7 13  1  0  0  0  0
  8 29  1  0  0  0  0
  9 12  1  0  0  0  0
  9 15  1  0  0  0  0
  9 16  2  0  0  0  0
 10 11  2  0  0  0  0
 10 17  1  0  0  0  0
 11 18  1  0  0  0  0
 12 19  1  0  0  0  0
 13 14  1  0  0  0  0
 13 23  2  0  0  0  0
 14 29  1  0  0  0  0
 15 22  1  0  0  0  0
 15 24  2  0  0  0  0
 16 23  1  0  0  0  0
 16 30  1  0  0  0  0
 17 25  1  0  0  0  0
 17 26  2  0  0  0  0
 18 25  1  0  0  0  0
 18 27  2  0  0  0  0
 19 28  2  0  0  0  0
 19 31  1  0  0  0  0
 20 22  1  0  0  0  0
 21 22  1  0  0  0  0
 24 30  1  0  0  0  0
 25 31  1  0  0  0  0
  1 32  1  0  0  0  0
  2 33  1  0  0  0  0
  3 34  1  0  0  0  0
  4 35  1  0  0  0  0
  5 36  1  0  0  0  0
  6 37  1  0  0  0  0
  7 38  1  0  0  0  0
  8 39  1  0  0  0  0
 20 40  1  0  0  0  0
 20 41  1  0  0  0  0
 20 42  1  0  0  0  0
 21 43  1  0  0  0  0
 21 44  1  0  0  0  0
 21 45  1  0  0  0  0
 22 46  1  0  0  0  0
M  END
> <id>
EN300-6524746

> <smiles>
CC(C)C1=NOC=2N=C(C=C(C(=O)ON3C(=O)C=4C=CC=CC4C3=O)C12)C5=CC=CO5

> <IUPAC Name>
1,3-dioxo-2,3-dihydro-1H-isoindol-2-yl 6-(furan-2-yl)-3-(propan-2-yl)-[1,2]oxazolo[5,4-b]pyridine-4-carboxylate

> <CAS>
2248295-43-2

> <URL>
https://www.enaminestore.com/catalog/EN300-6524746

> <ROCS_ShapeQuery>
x0446_0A_x1080_0A_x0929_0A_x0812_0A_x0719_0A_x1140_0A_x0528_0A_x0310_0A

> <ROCS_TanimotoCombo>
0.449 

> <ROCS_ShapeTanimoto>
0.276 

> <ROCS_ColorTanimoto>
0.173 

> <ROCS_RefTversky>
0.253 

> <ROCS_RefColorTversky>
0.202 

> <ROCS_RefTverskyCombo>
0.455 

> <ROCS_FitTversky>
1.475 

> <ROCS_FitColorTversky>
0.545 

> <ROCS_FitTverskyCombo>
2.020 

> <ROCS_ColorScore>
-7.245

> <ROCS_Overlap>
3000.155

> <ROCS_Rank>
26                  

$$$$
untitled-dbase-48271_6
  -OEChem-02082415563D

 41 44  0     1  0  0  0  0  0999 V2000
   13.0555   14.5999   22.3930 C   0  0  0  0  0  0  0  0  0  0  0  0
   12.6949   15.8223   21.6697 C   0  0  0  0  0  0  0  0  0  0  0  0
   11.3988   16.0033   21.4198 C   0  0  0  0  0  0  0  0  0  0  0  0
   10.4034   14.9891   21.8714 C   0  0  0  0  0  0  0  0  0  0  0  0
    6.0982   11.8855   26.0666 C   0  0  0  0  0  0  0  0  0  0  0  0
    9.1337   10.0224   23.0545 C   0  0  0  0  0  0  0  0  0  0  0  0
    7.3031   11.7115   23.3451 C   0  0  0  0  0  0  0  0  0  0  0  0
    8.8865   11.2325   25.2370 C   0  0  0  0  0  0  0  0  0  0  0  0
    9.2483   12.2157   21.8450 C   0  0  0  0  0  0  0  0  0  0  0  0
   10.8303   11.7378   23.7359 C   0  0  0  0  0  0  0  0  0  0  0  0
    9.0017   13.4325   24.0282 C   0  0  0  0  0  0  0  0  0  0  0  0
    8.3072   11.1089   22.3480 C   0  0  1  0  0  0  0  0  0  0  0  0
    9.8943   10.6292   24.2444 C   0  0  2  0  0  0  0  0  0  0  0  0
    8.0459   12.3339   24.5503 C   0  0  0  0  0  0  0  0  0  0  0  0
   10.0185   12.8426   23.0259 C   0  0  0  0  0  0  0  0  0  0  0  0
    7.0422   12.9300   25.5413 C   0  0  0  0  0  0  0  0  0  0  0  0
   12.2380   13.6916   22.8054 N   0  0  0  0  0  0  0  0  0  0  0  0
   10.9073   13.8793   22.5481 N   0  0  0  0  0  0  0  0  0  0  0  0
    9.2043   15.1536   21.6424 O   0  0  0  0  0  0  0  0  0  0  0  0
    5.0233   11.5645   25.5824 O   0  0  0  0  0  0  0  0  0  0  0  0
    6.6172   11.3260   27.1897 O   0  0  0  0  0  0  0  0  0  0  0  0
   13.9645   16.8809   21.2249 Cl  0  0  0  0  0  0  0  0  0  0  0  0
   10.7811   17.3789   20.5816 Cl  0  0  0  0  0  0  0  0  0  0  0  0
   14.1297   14.4567   22.5962 H   0  0  0  0  0  0  0  0  0  0  0  0
    8.4747    9.2173   23.4023 H   0  0  0  0  0  0  0  0  0  0  0  0
    9.8413    9.5713   22.3481 H   0  0  0  0  0  0  0  0  0  0  0  0
    6.6938   12.4723   22.8404 H   0  0  0  0  0  0  0  0  0  0  0  0
    6.6114   10.9311   23.6878 H   0  0  0  0  0  0  0  0  0  0  0  0
    8.2316   10.4409   25.6235 H   0  0  0  0  0  0  0  0  0  0  0  0
    9.4225   11.6468   26.1006 H   0  0  0  0  0  0  0  0  0  0  0  0
    9.9493   11.7933   21.1131 H   0  0  0  0  0  0  0  0  0  0  0  0
    8.6642   12.9832   21.3205 H   0  0  0  0  0  0  0  0  0  0  0  0
   11.3912   12.1595   24.5801 H   0  0  0  0  0  0  0  0  0  0  0  0
   11.5683   11.3058   23.0473 H   0  0  0  0  0  0  0  0  0  0  0  0
    8.4213   14.2310   23.5461 H   0  0  0  0  0  0  0  0  0  0  0  0
    9.5313   13.8938   24.8730 H   0  0  0  0  0  0  0  0  0  0  0  0
    7.7677   10.6701   21.5011 H   0  0  0  0  0  0  0  0  0  0  0  0
   10.4817    9.8500   24.7430 H   0  0  0  0  0  0  0  0  0  0  0  0
    7.5918   13.3657   26.3770 H   0  0  0  0  0  0  0  0  0  0  0  0
    6.4675   13.7058   25.0335 H   0  0  0  0  0  0  0  0  0  0  0  0
    6.0262   10.6370   27.5617 H   0  0  0  0  0  0  0  0  0  0  0  0
  1  2  1  0  0  0  0
  1 17  2  0  0  0  0
  2  3  2  0  0  0  0
  2 22  1  0  0  0  0
  3  4  1  0  0  0  0
  3 23  1  0  0  0  0
  4 18  1  0  0  0  0
  4 19  2  0  0  0  0
  5 16  1  0  0  0  0
  5 20  2  0  0  0  0
  5 21  1  0  0  0  0
  6 12  1  0  0  0  0
  6 13  1  0  0  0  0
  7 12  1  0  0  0  0
  7 14  1  0  0  0  0
  8 13  1  0  0  0  0
  8 14  1  0  0  0  0
  9 12  1  0  0  0  0
  9 15  1  0  0  0  0
 10 13  1  0  0  0  0
 10 15  1  0  0  0  0
 11 14  1  0  0  0  0
 11 15  1  0  0  0  0
 14 16  1  0  0  0  0
 15 18  1  0  0  0  0
 17 18  1  0  0  0  0
  1 24  1  0  0  0  0
  6 25  1  0  0  0  0
  6 26  1  0  0  0  0
  7 27  1  0  0  0  0
  7 28  1  0  0  0  0
  8 29  1  0  0  0  0
  8 30  1  0  0  0  0
  9 31  1  0  0  0  0
  9 32  1  0  0  0  0
 10 33  1  0  0  0  0
 10 34  1  0  0  0  0
 11 35  1  0  0  0  0
 11 36  1  0  0  0  0
 12 37  1  0  0  0  0
 13 38  1  0  0  0  0
 16 39  1  0  0  0  0
 16 40  1  0  0  0  0
 21 41  1  0  0  0  0
M  END
> <id>
EN300-228908

> <smiles>
OC(=O)CC1(CC2CC3C1)CC(C2)(C3)N4N=CC(Cl)=C(Cl)C4=O

> <MDLNUMBER>
MFCD04967175

> <IUPAC Name>
2-[3-(4,5-dichloro-6-oxo-1,6-dihydropyridazin-1-yl)adamantan-1-yl]acetic acid

> <CAS>
832740-18-8

> <URL>
https://www.enaminestore.com/catalog/EN300-228908

> <ROCS_ShapeQuery>
x0446_0A_x1080_0A_x0929_0A_x0812_0A_x0719_0A_x1140_0A_x0528_0A_x0310_0A

> <ROCS_TanimotoCombo>
0.448 

> <ROCS_ShapeTanimoto>
0.262 

> <ROCS_ColorTanimoto>
0.186 

> <ROCS_RefTversky>
0.236 

> <ROCS_RefColorTversky>
0.217 

> <ROCS_RefTverskyCombo>
0.453 

> <ROCS_FitTversky>
1.729 

> <ROCS_FitColorTversky>
0.568 

> <ROCS_FitTverskyCombo>
2.297 

> <ROCS_ColorScore>
-7.792

> <ROCS_Overlap>
2787.501

> <ROCS_Rank>
27                  

$$$$
untitled-dbase-103067_9
  -OEChem-02082415563D

 42 44  0     0  0  0  0  0  0999 V2000
   10.0885   14.6786   22.3426 C   0  0  0  0  0  0  0  0  0  0  0  0
    9.1138   13.7406   22.5730 C   0  0  0  0  0  0  0  0  0  0  0  0
   11.4461   14.6438   22.7891 C   0  0  0  0  0  0  0  0  0  0  0  0
    6.8582   12.8067   24.5245 C   0  0  0  0  0  0  0  0  0  0  0  0
    9.4331   11.0129   25.2632 C   0  0  0  0  0  0  0  0  0  0  0  0
    8.6870   10.0368   23.0978 C   0  0  0  0  0  0  0  0  0  0  0  0
   10.0391   12.2438   24.5352 C   0  0  0  0  0  0  0  0  0  0  0  0
    9.3505   11.2199   22.3651 C   0  0  0  0  0  0  0  0  0  0  0  0
    8.2020   10.6776   24.3989 C   0  0  0  0  0  0  0  0  0  0  0  0
    9.0904   12.4291   23.3162 C   0  0  0  0  0  0  0  0  0  0  0  0
    6.0919   14.7718   26.4560 C   0  0  0  0  0  0  0  0  0  0  0  0
    6.7098   16.4649   24.7064 C   0  0  0  0  0  0  0  0  0  0  0  0
    4.8497   14.8353   24.2680 C   0  0  0  0  0  0  0  0  0  0  0  0
    6.1968   15.0485   24.9569 C   0  0  0  0  0  0  0  0  0  0  0  0
    9.5742   15.7016   21.5953 N   0  0  0  0  0  0  0  0  0  0  0  0
    8.2972   15.4274   21.3519 N   0  0  0  0  0  0  0  0  0  0  0  0
    8.0231   14.2513   21.9392 N   0  0  0  0  0  0  0  0  0  0  0  0
    7.8358   12.0109   23.9510 N   0  0  0  0  0  0  0  0  0  0  0  0
   12.1338   13.6195   22.9901 O   0  0  0  0  0  0  0  0  0  0  0  0
    5.8518   12.3881   25.0903 O   0  0  0  0  0  0  0  0  0  0  0  0
   11.9841   15.8876   22.9961 O   0  0  0  0  0  0  0  0  0  0  0  0
    7.1473   14.1390   24.3911 O   0  0  0  0  0  0  0  0  0  0  0  0
   10.1474   10.1860   25.3266 H   0  0  0  0  0  0  0  0  0  0  0  0
    9.1347   11.2936   26.2797 H   0  0  0  0  0  0  0  0  0  0  0  0
    7.8420    9.6600   22.5104 H   0  0  0  0  0  0  0  0  0  0  0  0
    9.3892    9.2133   23.2610 H   0  0  0  0  0  0  0  0  0  0  0  0
   10.0230   13.1179   25.1977 H   0  0  0  0  0  0  0  0  0  0  0  0
   11.0781   12.0642   24.2382 H   0  0  0  0  0  0  0  0  0  0  0  0
   10.4187   11.0434   22.1960 H   0  0  0  0  0  0  0  0  0  0  0  0
    8.8748   11.3648   21.3875 H   0  0  0  0  0  0  0  0  0  0  0  0
    7.4237   10.1224   24.9255 H   0  0  0  0  0  0  0  0  0  0  0  0
    5.7240   13.7561   26.6400 H   0  0  0  0  0  0  0  0  0  0  0  0
    7.0590   14.8873   26.9561 H   0  0  0  0  0  0  0  0  0  0  0  0
    5.3740   15.4512   26.9297 H   0  0  0  0  0  0  0  0  0  0  0  0
    6.7867   16.6677   23.6321 H   0  0  0  0  0  0  0  0  0  0  0  0
    7.7176   16.5934   25.1177 H   0  0  0  0  0  0  0  0  0  0  0  0
    6.0537   17.2176   25.1553 H   0  0  0  0  0  0  0  0  0  0  0  0
    4.9246   15.0337   23.1927 H   0  0  0  0  0  0  0  0  0  0  0  0
    4.4834   13.8128   24.4060 H   0  0  0  0  0  0  0  0  0  0  0  0
    4.0978   15.5303   24.6589 H   0  0  0  0  0  0  0  0  0  0  0  0
    7.0876   13.8701   21.8640 H   0  0  0  0  0  0  0  0  0  0  0  0
   12.9161   15.8745   23.3020 H   0  0  0  0  0  0  0  0  0  0  0  0
  1  2  2  0  0  0  0
  1  3  1  0  0  0  0
  1 15  1  0  0  0  0
  2 10  1  0  0  0  0
  2 17  1  0  0  0  0
  3 19  2  0  0  0  0
  3 21  1  0  0  0  0
  4 18  1  0  0  0  0
  4 20  2  0  0  0  0
  4 22  1  0  0  0  0
  5  7  1  0  0  0  0
  5  9  1  0  0  0  0
  6  8  1  0  0  0  0
  6  9  1  0  0  0  0
  7 10  1  0  0  0  0
  8 10  1  0  0  0  0
  9 18  1  0  0  0  0
 10 18  1  0  0  0  0
 11 14  1  0  0  0  0
 12 14  1  0  0  0  0
 13 14  1  0  0  0  0
 14 22  1  0  0  0  0
 15 16  2  0  0  0  0
 16 17  1  0  0  0  0
  5 23  1  0  0  0  0
  5 24  1  0  0  0  0
  6 25  1  0  0  0  0
  6 26  1  0  0  0  0
  7 27  1  0  0  0  0
  7 28  1  0  0  0  0
  8 29  1  0  0  0  0
  8 30  1  0  0  0  0
  9 31  1  0  0  0  0
 11 32  1  0  0  0  0
 11 33  1  0  0  0  0
 11 34  1  0  0  0  0
 12 35  1  0  0  0  0
 12 36  1  0  0  0  0
 12 37  1  0  0  0  0
 13 38  1  0  0  0  0
 13 39  1  0  0  0  0
 13 40  1  0  0  0  0
 17 41  1  0  0  0  0
 21 42  1  0  0  0  0
M  END
> <id>
EN300-787748

> <smiles>
CC(C)(C)OC(=O)N1C2CCC1(CC2)C=3NN=NC3C(=O)O

> <IUPAC Name>
5-{7-[(tert-butoxy)carbonyl]-7-azabicyclo[2.2.1]heptan-1-yl}-1H-1,2,3-triazole-4-carboxylic acid

> <CAS>
2137970-52-4

> <URL>
https://www.enaminestore.com/catalog/EN300-787748

> <ROCS_ShapeQuery>
x0446_0A_x1080_0A_x0929_0A_x0812_0A_x0719_0A_x1140_0A_x0528_0A_x0310_0A

> <ROCS_TanimotoCombo>
0.448 

> <ROCS_ShapeTanimoto>
0.258 

> <ROCS_ColorTanimoto>
0.190 

> <ROCS_RefTversky>
0.233 

> <ROCS_RefColorTversky>
0.234 

> <ROCS_RefTverskyCombo>
0.467 

> <ROCS_FitTversky>
1.731 

> <ROCS_FitColorTversky>
0.503 

> <ROCS_FitTverskyCombo>
2.234 

> <ROCS_ColorScore>
-8.446

> <ROCS_Overlap>
2749.474

> <ROCS_Rank>
28                  

$$$$
untitled-dbase-345611_3
  -OEChem-02082415563D

 43 47  0     0  0  0  0  0  0999 V2000
   15.1147   14.6853   20.7075 C   0  0  0  0  0  0  0  0  0  0  0  0
    5.4246   13.2456   25.2068 C   0  0  0  0  0  0  0  0  0  0  0  0
   15.3807   14.4222   22.0500 C   0  0  0  0  0  0  0  0  0  0  0  0
    5.1417   11.8873   25.0559 C   0  0  0  0  0  0  0  0  0  0  0  0
   13.8122   14.9616   20.2949 C   0  0  0  0  0  0  0  0  0  0  0  0
    6.7105   13.7375   24.9576 C   0  0  0  0  0  0  0  0  0  0  0  0
   14.3437   14.4345   22.9846 C   0  0  0  0  0  0  0  0  0  0  0  0
    6.1434   11.0044   24.6600 C   0  0  0  0  0  0  0  0  0  0  0  0
   12.7763   14.9729   21.2349 C   0  0  0  0  0  0  0  0  0  0  0  0
    7.7244   12.8674   24.5478 C   0  0  0  0  0  0  0  0  0  0  0  0
   10.4987   10.0193   23.4711 C   0  0  0  0  0  0  0  0  0  0  0  0
   13.0302   14.7099   22.5878 C   0  0  0  0  0  0  0  0  0  0  0  0
    7.4238   11.5033   24.4146 C   0  0  0  0  0  0  0  0  0  0  0  0
    9.5929    8.9461   23.5273 C   0  0  0  0  0  0  0  0  0  0  0  0
    9.7553   11.1311   23.8043 C   0  0  0  0  0  0  0  0  0  0  0  0
    9.1310   13.2729   24.2516 C   0  0  0  0  0  0  0  0  0  0  0  0
   11.3870   15.2642   20.8142 C   0  0  0  0  0  0  0  0  0  0  0  0
   10.8051   14.9682   23.1769 C   0  0  0  0  0  0  0  0  0  0  0  0
   11.8939   10.0142   23.1442 C   0  0  0  0  0  0  0  0  0  0  0  0
    9.8601    7.5220   23.2590 C   0  0  0  0  0  0  0  0  0  0  0  0
    8.3616    9.3293   23.8698 N   0  0  0  0  0  0  0  0  0  0  0  0
   12.0156   14.7119   23.5606 N   0  0  0  0  0  0  0  0  0  0  0  0
   10.0760   12.4452   23.9135 N   0  0  0  0  0  0  0  0  0  0  0  0
    8.4800   10.6633   24.0351 N   0  0  0  0  0  0  0  0  0  0  0  0
   10.4585   15.2410   21.8560 N   0  0  0  0  0  0  0  0  0  0  0  0
    9.1358   15.5111   21.5009 N   0  0  0  0  0  0  0  0  0  0  0  0
   11.1371   15.4983   19.6357 O   0  0  0  0  0  0  0  0  0  0  0  0
   12.6071   11.0356   23.1250 O   0  0  0  0  0  0  0  0  0  0  0  0
    9.5698   14.9695   24.3685 S   0  0  0  0  0  0  0  0  0  0  0  0
   15.9232   14.6752   19.9822 H   0  0  0  0  0  0  0  0  0  0  0  0
    4.6389   13.9279   25.5199 H   0  0  0  0  0  0  0  0  0  0  0  0
   16.3962   14.2073   22.3698 H   0  0  0  0  0  0  0  0  0  0  0  0
    4.1387   11.5193   25.2521 H   0  0  0  0  0  0  0  0  0  0  0  0
   13.6250   15.1636   19.2440 H   0  0  0  0  0  0  0  0  0  0  0  0
    6.8796   14.8012   25.0891 H   0  0  0  0  0  0  0  0  0  0  0  0
   14.5678   14.2274   24.0283 H   0  0  0  0  0  0  0  0  0  0  0  0
    5.9058    9.9501   24.5560 H   0  0  0  0  0  0  0  0  0  0  0  0
   12.3778    9.0348   22.8894 H   0  0  0  0  0  0  0  0  0  0  0  0
   10.1641    6.9923   24.1777 H   0  0  0  0  0  0  0  0  0  0  0  0
    8.9750    7.0018   22.8521 H   0  0  0  0  0  0  0  0  0  0  0  0
   10.6625    7.3825   22.5130 H   0  0  0  0  0  0  0  0  0  0  0  0
    9.1023   16.1743   20.7168 H   0  0  0  0  0  0  0  0  0  0  0  0
    8.6494   15.9872   22.2703 H   0  0  0  0  0  0  0  0  0  0  0  0
  1  3  1  0  0  0  0
  1  5  2  0  0  0  0
  2  4  1  0  0  0  0
  2  6  2  0  0  0  0
  3  7  2  0  0  0  0
  4  8  2  0  0  0  0
  5  9  1  0  0  0  0
  6 10  1  0  0  0  0
  7 12  1  0  0  0  0
  8 13  1  0  0  0  0
  9 12  2  0  0  0  0
  9 17  1  0  0  0  0
 10 13  2  0  0  0  0
 10 16  1  0  0  0  0
 11 14  1  0  0  0  0
 11 15  2  0  0  0  0
 11 19  1  0  0  0  0
 12 22  1  0  0  0  0
 13 24  1  0  0  0  0
 14 20  1  0  0  0  0
 14 21  2  0  0  0  0
 15 23  1  0  0  0  0
 15 24  1  0  0  0  0
 16 23  2  0  0  0  0
 16 29  1  0  0  0  0
 17 25  1  0  0  0  0
 17 27  2  0  0  0  0
 18 22  2  0  0  0  0
 18 25  1  0  0  0  0
 18 29  1  0  0  0  0
 19 28  2  0  0  0  0
 21 24  1  0  0  0  0
 25 26  1  0  0  0  0
  1 30  1  0  0  0  0
  2 31  1  0  0  0  0
  3 32  1  0  0  0  0
  4 33  1  0  0  0  0
  5 34  1  0  0  0  0
  6 35  1  0  0  0  0
  7 36  1  0  0  0  0
  8 37  1  0  0  0  0
 19 38  1  0  0  0  0
 20 39  1  0  0  0  0
 20 40  1  0  0  0  0
 20 41  1  0  0  0  0
 26 42  1  0  0  0  0
 26 43  1  0  0  0  0
M  END
> <id>
EN300-26615779

> <smiles>
CC1=NN2C(N=C(SC3=NC=4C=CC=CC4C(=O)N3N)C=5C=CC=CC52)=C1C=O

> <IUPAC Name>
5-[(3-amino-4-oxo-3,4-dihydroquinazolin-2-yl)sulfanyl]-2-methylpyrazolo[1,5-a]quinazoline-3-carbaldehyde

> <CAS>
380388-31-8

> <URL>
https://www.enaminestore.com/catalog/EN300-26615779

> <ROCS_ShapeQuery>
x0446_0A_x1080_0A_x0929_0A_x0812_0A_x0719_0A_x1140_0A_x0528_0A_x0310_0A

> <ROCS_TanimotoCombo>
0.445 

> <ROCS_ShapeTanimoto>
0.266 

> <ROCS_ColorTanimoto>
0.179 

> <ROCS_RefTversky>
0.244 

> <ROCS_RefColorTversky>
0.204 

> <ROCS_RefTverskyCombo>
0.449 

> <ROCS_FitTversky>
1.504 

> <ROCS_FitColorTversky>
0.594 

> <ROCS_FitTverskyCombo>
2.098 

> <ROCS_ColorScore>
-7.336

> <ROCS_Overlap>
2890.453

> <ROCS_Rank>
29                  

$$$$
untitled-dbase-529843_3
  -OEChem-02082415563D

 40 43  0     1  0  0  0  0  0999 V2000
   10.7548   16.0374   22.3865 C   0  0  0  0  0  0  0  0  0  0  0  0
    5.8303   11.7710   24.4451 C   0  0  0  0  0  0  0  0  0  0  0  0
    9.7318   10.0688   23.7489 C   0  0  0  0  0  0  0  0  0  0  0  0
    7.4342   10.6443   22.9280 C   0  0  0  0  0  0  0  0  0  0  0  0
    8.1121   11.2219   25.2748 C   0  0  0  0  0  0  0  0  0  0  0  0
    9.4302   11.8763   22.0365 C   0  0  0  0  0  0  0  0  0  0  0  0
   10.0936   12.4665   24.3806 C   0  0  0  0  0  0  0  0  0  0  0  0
    7.7907   13.0454   23.5762 C   0  0  0  0  0  0  0  0  0  0  0  0
    8.9136   10.5134   22.5293 C   0  0  1  0  0  0  0  0  0  0  0  0
    9.5889   11.1006   24.8757 C   0  0  2  0  0  0  0  0  0  0  0  0
    7.2802   11.6741   24.0630 C   0  0  0  0  0  0  0  0  0  0  0  0
    9.2850   12.9678   23.1397 C   0  0  0  0  0  0  0  0  0  0  0  0
   11.7049   17.1406   22.5507 C   0  0  0  0  0  0  0  0  0  0  0  0
    9.8093   16.0104   21.4048 N   0  0  0  0  0  0  0  0  0  0  0  0
   10.7462   14.9642   23.1811 N   0  0  0  0  0  0  0  0  0  0  0  0
    9.1510   14.8688   21.5625 N   0  0  0  0  0  0  0  0  0  0  0  0
    9.7355   14.2866   22.6188 N   0  0  0  0  0  0  0  0  0  0  0  0
    3.6685   12.2429   23.5695 N   0  0  0  0  0  0  0  0  0  0  0  0
    5.0314   12.1409   23.3802 N   0  0  0  0  0  0  0  0  0  0  0  0
    5.4447   11.5137   25.5833 O   0  0  0  0  0  0  0  0  0  0  0  0
    9.3886    9.0855   24.0934 H   0  0  0  0  0  0  0  0  0  0  0  0
   10.7877    9.9579   23.4728 H   0  0  0  0  0  0  0  0  0  0  0  0
    6.8367   10.9428   22.0566 H   0  0  0  0  0  0  0  0  0  0  0  0
    7.0459    9.6670   23.2442 H   0  0  0  0  0  0  0  0  0  0  0  0
    7.7483   10.2578   25.6541 H   0  0  0  0  0  0  0  0  0  0  0  0
    8.0032   11.9360   26.1017 H   0  0  0  0  0  0  0  0  0  0  0  0
   10.4809   11.7886   21.7298 H   0  0  0  0  0  0  0  0  0  0  0  0
    8.8727   12.1796   21.1402 H   0  0  0  0  0  0  0  0  0  0  0  0
   10.0235   13.2034   25.1921 H   0  0  0  0  0  0  0  0  0  0  0  0
   11.1597   12.3964   24.1254 H   0  0  0  0  0  0  0  0  0  0  0  0
    7.1801   13.3997   22.7335 H   0  0  0  0  0  0  0  0  0  0  0  0
    7.6678   13.7990   24.3669 H   0  0  0  0  0  0  0  0  0  0  0  0
    9.0147    9.7724   21.7284 H   0  0  0  0  0  0  0  0  0  0  0  0
   10.1793   10.7824   25.7423 H   0  0  0  0  0  0  0  0  0  0  0  0
   11.3072   17.9254   23.2213 H   0  0  0  0  0  0  0  0  0  0  0  0
   12.6722   16.8084   22.9756 H   0  0  0  0  0  0  0  0  0  0  0  0
   11.9573   17.6302   21.5897 H   0  0  0  0  0  0  0  0  0  0  0  0
    3.3418   12.9970   22.9670 H   0  0  0  0  0  0  0  0  0  0  0  0
    3.5259   12.5654   24.5257 H   0  0  0  0  0  0  0  0  0  0  0  0
    5.4411   12.3349   22.4719 H   0  0  0  0  0  0  0  0  0  0  0  0
  1 13  1  0  0  0  0
  1 14  1  0  0  0  0
  1 15  2  0  0  0  0
  2 11  1  0  0  0  0
  2 19  1  0  0  0  0
  2 20  2  0  0  0  0
  3  9  1  0  0  0  0
  3 10  1  0  0  0  0
  4  9  1  0  0  0  0
  4 11  1  0  0  0  0
  5 10  1  0  0  0  0
  5 11  1  0  0  0  0
  6  9  1  0  0  0  0
  6 12  1  0  0  0  0
  7 10  1  0  0  0  0
  7 12  1  0  0  0  0
  8 11  1  0  0  0  0
  8 12  1  0  0  0  0
 12 17  1  0  0  0  0
 14 16  2  0  0  0  0
 15 17  1  0  0  0  0
 16 17  1  0  0  0  0
 18 19  1  0  0  0  0
  3 21  1  0  0  0  0
  3 22  1  0  0  0  0
  4 23  1  0  0  0  0
  4 24  1  0  0  0  0
  5 25  1  0  0  0  0
  5 26  1  0  0  0  0
  6 27  1  0  0  0  0
  6 28  1  0  0  0  0
  7 29  1  0  0  0  0
  7 30  1  0  0  0  0
  8 31  1  0  0  0  0
  8 32  1  0  0  0  0
  9 33  1  0  0  0  0
 10 34  1  0  0  0  0
 13 35  1  0  0  0  0
 13 36  1  0  0  0  0
 13 37  1  0  0  0  0
 18 38  1  0  0  0  0
 18 39  1  0  0  0  0
 19 40  1  0  0  0  0
M  END
> <id>
EN300-228836

> <smiles>
CC=1N=NN(N1)C2(CC3CC4CC(C3)(C2)C(=O)NN)C4

> <MDLNUMBER>
MFCD03423232

> <IUPAC Name>
3-(5-methyl-2H-1,2,3,4-tetrazol-2-yl)adamantane-1-carbohydrazide

> <CAS>
438219-64-8

> <URL>
https://www.enaminestore.com/catalog/EN300-228836

> <ROCS_ShapeQuery>
x0446_0A_x1080_0A_x0929_0A_x0812_0A_x0719_0A_x1140_0A_x0528_0A_x0310_0A

> <ROCS_TanimotoCombo>
0.443 

> <ROCS_ShapeTanimoto>
0.230 

> <ROCS_ColorTanimoto>
0.213 

> <ROCS_RefTversky>
0.211 

> <ROCS_RefColorTversky>
0.250 

> <ROCS_RefTverskyCombo>
0.461 

> <ROCS_FitTversky>
1.656 

> <ROCS_FitColorTversky>
0.589 

> <ROCS_FitTverskyCombo>
2.246 

> <ROCS_ColorScore>
-8.999

> <ROCS_Overlap>
2491.267

> <ROCS_Rank>
30                  

$$$$
untitled-dbase-587976_1
  -OEChem-02082415563D

 37 40  0     1  0  0  0  0  0999 V2000
   10.3318   16.0344   22.5282 C   0  0  0  0  0  0  0  0  0  0  0  0
    5.9194   11.1351   24.3221 C   0  0  0  0  0  0  0  0  0  0  0  0
   10.0399    9.9681   23.8092 C   0  0  0  0  0  0  0  0  0  0  0  0
    7.7285   10.2461   22.8797 C   0  0  0  0  0  0  0  0  0  0  0  0
    8.2112   10.8810   25.2597 C   0  0  0  0  0  0  0  0  0  0  0  0
    9.5851   11.7396   22.0931 C   0  0  0  0  0  0  0  0  0  0  0  0
   10.0521   12.3851   24.4698 C   0  0  0  0  0  0  0  0  0  0  0  0
    7.7341   12.6657   23.5565 C   0  0  0  0  0  0  0  0  0  0  0  0
    9.2296   10.3152   22.5533 C   0  0  1  0  0  0  0  0  0  0  0  0
    9.7086   10.9593   24.9328 C   0  0  2  0  0  0  0  0  0  0  0  0
    7.3860   11.2339   24.0109 C   0  0  0  0  0  0  0  0  0  0  0  0
    9.2448   12.7900   23.1933 C   0  0  0  0  0  0  0  0  0  0  0  0
   11.1194   17.2509   22.7441 C   0  0  0  0  0  0  0  0  0  0  0  0
    9.4462   15.8947   21.5012 N   0  0  0  0  0  0  0  0  0  0  0  0
   10.4266   14.9604   23.3161 N   0  0  0  0  0  0  0  0  0  0  0  0
    8.9372   14.6748   21.6209 N   0  0  0  0  0  0  0  0  0  0  0  0
    9.5421   14.1624   22.7016 N   0  0  0  0  0  0  0  0  0  0  0  0
    5.1318   10.3874   23.7617 O   0  0  0  0  0  0  0  0  0  0  0  0
    5.5815   11.9949   25.3140 O   0  0  0  0  0  0  0  0  0  0  0  0
    9.8131    8.9443   24.1316 H   0  0  0  0  0  0  0  0  0  0  0  0
   11.1131    9.9999   23.5846 H   0  0  0  0  0  0  0  0  0  0  0  0
    7.1392   10.4735   21.9816 H   0  0  0  0  0  0  0  0  0  0  0  0
    7.4576    9.2228   23.1717 H   0  0  0  0  0  0  0  0  0  0  0  0
    7.9599    9.8732   25.6160 H   0  0  0  0  0  0  0  0  0  0  0  0
    7.9698   11.5652   26.0838 H   0  0  0  0  0  0  0  0  0  0  0  0
   10.6517   11.7942   21.8377 H   0  0  0  0  0  0  0  0  0  0  0  0
    9.0361   11.9772   21.1721 H   0  0  0  0  0  0  0  0  0  0  0  0
    9.8468   13.0972   25.2806 H   0  0  0  0  0  0  0  0  0  0  0  0
   11.1291   12.4586   24.2667 H   0  0  0  0  0  0  0  0  0  0  0  0
    7.1233   12.9463   22.6867 H   0  0  0  0  0  0  0  0  0  0  0  0
    7.4753   13.3876   24.3439 H   0  0  0  0  0  0  0  0  0  0  0  0
    9.4656    9.6030   21.7546 H   0  0  0  0  0  0  0  0  0  0  0  0
   10.2936   10.7116   25.8256 H   0  0  0  0  0  0  0  0  0  0  0  0
   10.5901   17.9690   23.3984 H   0  0  0  0  0  0  0  0  0  0  0  0
   12.1005   17.0438   23.2143 H   0  0  0  0  0  0  0  0  0  0  0  0
   11.3508   17.7803   21.7991 H   0  0  0  0  0  0  0  0  0  0  0  0
    4.6260   11.9468   25.5309 H   0  0  0  0  0  0  0  0  0  0  0  0
  1 13  1  0  0  0  0
  1 14  1  0  0  0  0
  1 15  2  0  0  0  0
  2 11  1  0  0  0  0
  2 18  2  0  0  0  0
  2 19  1  0  0  0  0
  3  9  1  0  0  0  0
  3 10  1  0  0  0  0
  4  9  1  0  0  0  0
  4 11  1  0  0  0  0
  5 10  1  0  0  0  0
  5 11  1  0  0  0  0
  6  9  1  0  0  0  0
  6 12  1  0  0  0  0
  7 10  1  0  0  0  0
  7 12  1  0  0  0  0
  8 11  1  0  0  0  0
  8 12  1  0  0  0  0
 12 17  1  0  0  0  0
 14 16  2  0  0  0  0
 15 17  1  0  0  0  0
 16 17  1  0  0  0  0
  3 20  1  0  0  0  0
  3 21  1  0  0  0  0
  4 22  1  0  0  0  0
  4 23  1  0  0  0  0
  5 24  1  0  0  0  0
  5 25  1  0  0  0  0
  6 26  1  0  0  0  0
  6 27  1  0  0  0  0
  7 28  1  0  0  0  0
  7 29  1  0  0  0  0
  8 30  1  0  0  0  0
  8 31  1  0  0  0  0
  9 32  1  0  0  0  0
 10 33  1  0  0  0  0
 13 34  1  0  0  0  0
 13 35  1  0  0  0  0
 13 36  1  0  0  0  0
 19 37  1  0  0  0  0
M  END
> <id>
EN300-228222

> <smiles>
CC=1N=NN(N1)C2(CC3CC4CC(C3)(C2)C(=O)O)C4

> <MDLNUMBER>
MFCD03074336

> <IUPAC Name>
3-(5-methyl-2H-1,2,3,4-tetrazol-2-yl)adamantane-1-carboxylic acid

> <CAS>
438221-00-2

> <Purity>
95

> <URL>
https://www.enaminestore.com/catalog/EN300-228222

> <ROCS_ShapeQuery>
x0446_0A_x1080_0A_x0929_0A_x0812_0A_x0719_0A_x1140_0A_x0528_0A_x0310_0A

> <ROCS_TanimotoCombo>
0.443 

> <ROCS_ShapeTanimoto>
0.226 

> <ROCS_ColorTanimoto>
0.216 

> <ROCS_RefTversky>
0.207 

> <ROCS_RefColorTversky>
0.252 

> <ROCS_RefTverskyCombo>
0.459 

> <ROCS_FitTversky>
1.672 

> <ROCS_FitColorTversky>
0.605 

> <ROCS_FitTverskyCombo>
2.277 

> <ROCS_ColorScore>
-9.078

> <ROCS_Overlap>
2447.402

> <ROCS_Rank>
31                  

$$$$
untitled-dbase-400451_8
  -OEChem-02082415563D

 40 43  0     1  0  0  0  0  0999 V2000
   10.3425   16.0873   22.6291 C   0  0  0  0  0  0  0  0  0  0  0  0
    6.0770   12.3153   26.1619 C   0  0  0  0  0  0  0  0  0  0  0  0
    9.1132    9.9314   22.5690 C   0  0  0  0  0  0  0  0  0  0  0  0
    9.3280   10.5921   24.9774 C   0  0  0  0  0  0  0  0  0  0  0  0
    7.1252   10.8382   23.7965 C   0  0  0  0  0  0  0  0  0  0  0  0
   10.4187   11.9752   23.1963 C   0  0  0  0  0  0  0  0  0  0  0  0
    8.2259   12.2083   22.0060 C   0  0  0  0  0  0  0  0  0  0  0  0
    8.4404   12.8817   24.4405 C   0  0  0  0  0  0  0  0  0  0  0  0
   10.0445   10.5460   23.6212 C   0  0  2  0  0  0  0  0  0  0  0  0
    7.8445   10.7829   22.4388 C   0  0  1  0  0  0  0  0  0  0  0  0
    8.0488   11.4490   24.8754 C   0  0  0  0  0  0  0  0  0  0  0  0
    9.1562   12.8855   23.0558 C   0  0  0  0  0  0  0  0  0  0  0  0
   11.1101   17.2869   22.9735 C   0  0  0  0  0  0  0  0  0  0  0  0
    7.3292   11.4873   26.2269 C   0  0  0  0  0  0  0  0  0  0  0  0
    9.5911   15.9853   21.4962 N   0  0  0  0  0  0  0  0  0  0  0  0
   10.3258   14.9931   23.3945 N   0  0  0  0  0  0  0  0  0  0  0  0
    9.0577   14.7702   21.5194 N   0  0  0  0  0  0  0  0  0  0  0  0
    9.5166   14.2230   22.6536 N   0  0  0  0  0  0  0  0  0  0  0  0
    4.9554   11.9206   25.8807 O   0  0  0  0  0  0  0  0  0  0  0  0
    6.3681   13.6056   26.4684 O   0  0  0  0  0  0  0  0  0  0  0  0
    9.6267    9.8721   21.6013 H   0  0  0  0  0  0  0  0  0  0  0  0
    8.8501    8.9050   22.8531 H   0  0  0  0  0  0  0  0  0  0  0  0
    9.0789    9.5723   25.2985 H   0  0  0  0  0  0  0  0  0  0  0  0
   10.0030   11.0048   25.7383 H   0  0  0  0  0  0  0  0  0  0  0  0
    6.2055   11.4301   23.7037 H   0  0  0  0  0  0  0  0  0  0  0  0
    6.8188    9.8258   24.0902 H   0  0  0  0  0  0  0  0  0  0  0  0
   11.1113   12.4105   23.9293 H   0  0  0  0  0  0  0  0  0  0  0  0
   10.9640   11.9470   22.2431 H   0  0  0  0  0  0  0  0  0  0  0  0
    8.7208   12.1809   21.0261 H   0  0  0  0  0  0  0  0  0  0  0  0
    7.3165   12.8096   21.8742 H   0  0  0  0  0  0  0  0  0  0  0  0
    7.5438   13.5147   24.3881 H   0  0  0  0  0  0  0  0  0  0  0  0
    9.0925   13.3412   25.1962 H   0  0  0  0  0  0  0  0  0  0  0  0
   10.9530    9.9392   23.7067 H   0  0  0  0  0  0  0  0  0  0  0  0
    7.1794   10.3389   21.6895 H   0  0  0  0  0  0  0  0  0  0  0  0
   10.5109   17.9962   23.5748 H   0  0  0  0  0  0  0  0  0  0  0  0
   12.0222   17.0544   23.5571 H   0  0  0  0  0  0  0  0  0  0  0  0
   11.4640   17.8358   22.0789 H   0  0  0  0  0  0  0  0  0  0  0  0
    7.0677   10.4677   26.5130 H   0  0  0  0  0  0  0  0  0  0  0  0
    8.0024   11.9178   26.9694 H   0  0  0  0  0  0  0  0  0  0  0  0
    5.5719   14.1777   26.4364 H   0  0  0  0  0  0  0  0  0  0  0  0
  1 13  1  0  0  0  0
  1 15  1  0  0  0  0
  1 16  2  0  0  0  0
  2 14  1  0  0  0  0
  2 19  2  0  0  0  0
  2 20  1  0  0  0  0
  3  9  1  0  0  0  0
  3 10  1  0  0  0  0
  4  9  1  0  0  0  0
  4 11  1  0  0  0  0
  5 10  1  0  0  0  0
  5 11  1  0  0  0  0
  6  9  1  0  0  0  0
  6 12  1  0  0  0  0
  7 10  1  0  0  0  0
  7 12  1  0  0  0  0
  8 11  1  0  0  0  0
  8 12  1  0  0  0  0
 11 14  1  0  0  0  0
 12 18  1  0  0  0  0
 15 17  2  0  0  0  0
 16 18  1  0  0  0  0
 17 18  1  0  0  0  0
  3 21  1  0  0  0  0
  3 22  1  0  0  0  0
  4 23  1  0  0  0  0
  4 24  1  0  0  0  0
  5 25  1  0  0  0  0
  5 26  1  0  0  0  0
  6 27  1  0  0  0  0
  6 28  1  0  0  0  0
  7 29  1  0  0  0  0
  7 30  1  0  0  0  0
  8 31  1  0  0  0  0
  8 32  1  0  0  0  0
  9 33  1  0  0  0  0
 10 34  1  0  0  0  0
 13 35  1  0  0  0  0
 13 36  1  0  0  0  0
 13 37  1  0  0  0  0
 14 38  1  0  0  0  0
 14 39  1  0  0  0  0
 20 40  1  0  0  0  0
M  END
> <id>
EN300-228221

> <smiles>
CC=1N=NN(N1)C2(CC3CC4CC(CC(=O)O)(C3)C2)C4

> <MDLNUMBER>
MFCD03074485

> <IUPAC Name>
2-[3-(5-methyl-2H-1,2,3,4-tetrazol-2-yl)adamantan-1-yl]acetic acid

> <CAS>
438218-34-9

> <Purity>
95

> <URL>
https://www.enaminestore.com/catalog/EN300-228221

> <ROCS_ShapeQuery>
x0446_0A_x1080_0A_x0929_0A_x0812_0A_x0719_0A_x1140_0A_x0528_0A_x0310_0A

> <ROCS_TanimotoCombo>
0.442 

> <ROCS_ShapeTanimoto>
0.229 

> <ROCS_ColorTanimoto>
0.213 

> <ROCS_RefTversky>
0.210 

> <ROCS_RefColorTversky>
0.249 

> <ROCS_RefTverskyCombo>
0.459 

> <ROCS_FitTversky>
1.652 

> <ROCS_FitColorTversky>
0.598 

> <ROCS_FitTverskyCombo>
2.250 

> <ROCS_ColorScore>
-8.968

> <ROCS_Overlap>
2479.006

> <ROCS_Rank>
32                  

$$$$
untitled-dbase-345566_6
  -OEChem-02082415563D

 26 28  0     0  0  0  0  0  0999 V2000
   13.5769   14.6741   22.1704 C   0  0  0  0  0  0  0  0  0  0  0  0
   13.3404   13.9986   23.3676 C   0  0  0  0  0  0  0  0  0  0  0  0
   12.5068   15.1759   21.4296 C   0  0  0  0  0  0  0  0  0  0  0  0
   12.0339   13.8247   23.8240 C   0  0  0  0  0  0  0  0  0  0  0  0
    6.8581   13.3699   24.5875 C   0  0  0  0  0  0  0  0  0  0  0  0
    5.7718   12.6246   24.9916 C   0  0  0  0  0  0  0  0  0  0  0  0
    9.6761   10.5948   23.5950 C   0  0  0  0  0  0  0  0  0  0  0  0
    7.9657   12.5548   24.1939 C   0  0  0  0  0  0  0  0  0  0  0  0
   11.2002   15.0020   21.8859 C   0  0  0  0  0  0  0  0  0  0  0  0
   10.9637   14.3264   23.0831 C   0  0  0  0  0  0  0  0  0  0  0  0
    9.2486   12.8532   23.7237 C   0  0  0  0  0  0  0  0  0  0  0  0
    7.6575   11.2066   24.3217 C   0  0  0  0  0  0  0  0  0  0  0  0
   10.0976   15.5336   21.0971 C   0  0  0  0  0  0  0  0  0  0  0  0
   10.1104   11.8585   23.4222 N   0  0  0  0  0  0  0  0  0  0  0  0
    8.4765   10.1756   24.0359 N   0  0  0  0  0  0  0  0  0  0  0  0
    8.9162   15.4208   21.4320 O   0  0  0  0  0  0  0  0  0  0  0  0
    9.6794   14.1460   23.5520 O   0  0  0  0  0  0  0  0  0  0  0  0
    6.0759   10.9439   24.8994 S   0  0  0  0  0  0  0  0  0  0  0  0
   14.5946   14.8094   21.8153 H   0  0  0  0  0  0  0  0  0  0  0  0
   14.1740   13.6077   23.9436 H   0  0  0  0  0  0  0  0  0  0  0  0
   12.7031   15.7011   20.4983 H   0  0  0  0  0  0  0  0  0  0  0  0
   11.8566   13.2976   24.7575 H   0  0  0  0  0  0  0  0  0  0  0  0
    6.8569   14.4528   24.5756 H   0  0  0  0  0  0  0  0  0  0  0  0
    4.8142   12.9889   25.3360 H   0  0  0  0  0  0  0  0  0  0  0  0
   10.3867    9.8145   23.3459 H   0  0  0  0  0  0  0  0  0  0  0  0
   10.3539   16.0612   20.1536 H   0  0  0  0  0  0  0  0  0  0  0  0
  1  2  1  0  0  0  0
  1  3  2  0  0  0  0
  2  4  2  0  0  0  0
  3  9  1  0  0  0  0
  4 10  1  0  0  0  0
  5  6  2  0  0  0  0
  5  8  1  0  0  0  0
  6 18  1  0  0  0  0
  7 14  2  0  0  0  0
  7 15  1  0  0  0  0
  8 11  2  0  0  0  0
  8 12  1  0  0  0  0
  9 10  2  0  0  0  0
  9 13  1  0  0  0  0
 10 17  1  0  0  0  0
 11 14  1  0  0  0  0
 11 17  1  0  0  0  0
 12 15  2  0  0  0  0
 12 18  1  0  0  0  0
 13 16  2  0  0  0  0
  1 19  1  0  0  0  0
  2 20  1  0  0  0  0
  3 21  1  0  0  0  0
  4 22  1  0  0  0  0
  5 23  1  0  0  0  0
  6 24  1  0  0  0  0
  7 25  1  0  0  0  0
 13 26  1  0  0  0  0
M  END
> <id>
EN300-26597100

> <smiles>
O=CC=1C=CC=CC1OC=2N=CN=C3SC=CC23

> <IUPAC Name>
2-{thieno[2,3-d]pyrimidin-4-yloxy}benzaldehyde

> <CAS>
852297-26-8

> <URL>
https://www.enaminestore.com/catalog/EN300-26597100

> <ROCS_ShapeQuery>
x0446_0A_x1080_0A_x0929_0A_x0812_0A_x0719_0A_x1140_0A_x0528_0A_x0310_0A

> <ROCS_TanimotoCombo>
0.441 

> <ROCS_ShapeTanimoto>
0.237 

> <ROCS_ColorTanimoto>
0.204 

> <ROCS_RefTversky>
0.214 

> <ROCS_RefColorTversky>
0.210 

> <ROCS_RefTverskyCombo>
0.425 

> <ROCS_FitTversky>
1.799 

> <ROCS_FitColorTversky>
0.879 

> <ROCS_FitTverskyCombo>
2.678 

> <ROCS_ColorScore>
-7.506

> <ROCS_Overlap>
2528.321

> <ROCS_Rank>
33                  

$$$$
untitled-dbase-570613_7
  -OEChem-02082415563D

 46 49  0     1  0  0  0  0  0999 V2000
   14.1051   16.0443   20.5006 C   0  0  0  0  0  0  0  0  0  0  0  0
   12.7879   17.7204   21.6376 C   0  0  0  0  0  0  0  0  0  0  0  0
   13.0473   15.1413   20.6062 C   0  0  0  0  0  0  0  0  0  0  0  0
   11.7300   16.8173   21.7432 C   0  0  0  0  0  0  0  0  0  0  0  0
   13.9754   17.3339   21.0163 C   0  0  0  0  0  0  0  0  0  0  0  0
   11.8598   15.5278   21.2275 C   0  0  0  0  0  0  0  0  0  0  0  0
    6.4224   12.8170   24.9083 C   0  0  0  0  0  0  0  0  0  0  0  0
    9.1592    9.7805   23.5113 C   0  0  0  0  0  0  0  0  0  0  0  0
    8.3337   11.2922   25.3358 C   0  0  0  0  0  0  0  0  0  0  0  0
    7.2273   11.3211   23.0805 C   0  0  0  0  0  0  0  0  0  0  0  0
   10.5522   11.7284   24.2517 C   0  0  0  0  0  0  0  0  0  0  0  0
    9.4462   11.7602   22.0000 C   0  0  0  0  0  0  0  0  0  0  0  0
    8.6200   13.2744   23.8216 C   0  0  0  0  0  0  0  0  0  0  0  0
    9.5816   10.6325   24.7214 C   0  0  2  0  0  0  0  0  0  0  0  0
    8.4704   10.6634   22.4554 C   0  0  1  0  0  0  0  0  0  0  0  0
    7.6365   12.1854   24.2901 C   0  0  0  0  0  0  0  0  0  0  0  0
    9.8689   12.6225   23.2016 C   0  0  0  0  0  0  0  0  0  0  0  0
   15.1065   18.2994   20.9042 C   0  0  0  0  0  0  0  0  0  0  0  0
    6.2374   14.0196   25.0212 O   0  0  0  0  0  0  0  0  0  0  0  0
    9.3193   15.1910   21.4672 O   0  0  0  0  0  0  0  0  0  0  0  0
   10.6867   13.4125   20.2965 O   0  0  0  0  0  0  0  0  0  0  0  0
    5.5518   11.8679   25.3309 O   0  0  0  0  0  0  0  0  0  0  0  0
   10.7827   13.6255   22.7820 O   0  0  0  0  0  0  0  0  0  0  0  0
   10.5202   14.3859   21.3593 S   0  0  0  0  0  0  0  0  0  0  0  0
   15.0266   15.7342   20.0152 H   0  0  0  0  0  0  0  0  0  0  0  0
   12.6780   18.7229   22.0427 H   0  0  0  0  0  0  0  0  0  0  0  0
   13.1590   14.1388   20.2015 H   0  0  0  0  0  0  0  0  0  0  0  0
   10.8094   17.1288   22.2296 H   0  0  0  0  0  0  0  0  0  0  0  0
   10.0380    9.2912   23.0736 H   0  0  0  0  0  0  0  0  0  0  0  0
    8.4784    8.9833   23.8342 H   0  0  0  0  0  0  0  0  0  0  0  0
    7.6435   10.5193   25.6988 H   0  0  0  0  0  0  0  0  0  0  0  0
    8.6195   11.8852   26.2146 H   0  0  0  0  0  0  0  0  0  0  0  0
    6.7120   11.9354   22.3305 H   0  0  0  0  0  0  0  0  0  0  0  0
    6.5117   10.5467   23.3868 H   0  0  0  0  0  0  0  0  0  0  0  0
   10.8859   12.3350   25.1035 H   0  0  0  0  0  0  0  0  0  0  0  0
   11.4623   11.2806   23.8319 H   0  0  0  0  0  0  0  0  0  0  0  0
   10.3304   11.3143   21.5265 H   0  0  0  0  0  0  0  0  0  0  0  0
    8.9822   12.3878   21.2280 H   0  0  0  0  0  0  0  0  0  0  0  0
    8.1410   13.9443   23.0943 H   0  0  0  0  0  0  0  0  0  0  0  0
    8.9129   13.9251   24.6570 H   0  0  0  0  0  0  0  0  0  0  0  0
   10.0713    9.9984   25.4687 H   0  0  0  0  0  0  0  0  0  0  0  0
    8.1735   10.0511   21.5968 H   0  0  0  0  0  0  0  0  0  0  0  0
   15.0294   18.8714   19.9714 H   0  0  0  0  0  0  0  0  0  0  0  0
   15.1132   19.0048   21.7453 H   0  0  0  0  0  0  0  0  0  0  0  0
   16.0747   17.7819   20.9161 H   0  0  0  0  0  0  0  0  0  0  0  0
    4.7515   12.2609   25.7402 H   0  0  0  0  0  0  0  0  0  0  0  0
  1  3  2  0  0  0  0
  1  5  1  0  0  0  0
  2  4  1  0  0  0  0
  2  5  2  0  0  0  0
  3  6  1  0  0  0  0
  4  6  2  0  0  0  0
  5 18  1  0  0  0  0
  6 24  1  0  0  0  0
  7 16  1  0  0  0  0
  7 19  2  0  0  0  0
  7 22  1  0  0  0  0
  8 14  1  0  0  0  0
  8 15  1  0  0  0  0
  9 14  1  0  0  0  0
  9 16  1  0  0  0  0
 10 15  1  0  0  0  0
 10 16  1  0  0  0  0
 11 14  1  0  0  0  0
 11 17  1  0  0  0  0
 12 15  1  0  0  0  0
 12 17  1  0  0  0  0
 13 16  1  0  0  0  0
 13 17  1  0  0  0  0
 17 23  1  0  0  0  0
 20 24  2  0  0  0  0
 21 24  2  0  0  0  0
 23 24  1  0  0  0  0
  1 25  1  0  0  0  0
  2 26  1  0  0  0  0
  3 27  1  0  0  0  0
  4 28  1  0  0  0  0
  8 29  1  0  0  0  0
  8 30  1  0  0  0  0
  9 31  1  0  0  0  0
  9 32  1  0  0  0  0
 10 33  1  0  0  0  0
 10 34  1  0  0  0  0
 11 35  1  0  0  0  0
 11 36  1  0  0  0  0
 12 37  1  0  0  0  0
 12 38  1  0  0  0  0
 13 39  1  0  0  0  0
 13 40  1  0  0  0  0
 14 41  1  0  0  0  0
 15 42  1  0  0  0  0
 18 43  1  0  0  0  0
 18 44  1  0  0  0  0
 18 45  1  0  0  0  0
 22 46  1  0  0  0  0
M  END
> <id>
EN300-37153547

> <smiles>
CC=1C=CC(=CC1)S(=O)(=O)OC2(CC3CC4C2)CC(C3)(C4)C(=O)O

> <IUPAC Name>
3-[(4-methylbenzenesulfonyl)oxy]adamantane-1-carboxylic acid

> <CAS>
84938-40-9

> <URL>
https://www.enaminestore.com/catalog/EN300-37153547

> <ROCS_ShapeQuery>
x0446_0A_x1080_0A_x0929_0A_x0812_0A_x0719_0A_x1140_0A_x0528_0A_x0310_0A

> <ROCS_TanimotoCombo>
0.441 

> <ROCS_ShapeTanimoto>
0.252 

> <ROCS_ColorTanimoto>
0.189 

> <ROCS_RefTversky>
0.229 

> <ROCS_RefColorTversky>
0.220 

> <ROCS_RefTverskyCombo>
0.449 

> <ROCS_FitTversky>
1.647 

> <ROCS_FitColorTversky>
0.576 

> <ROCS_FitTverskyCombo>
2.223 

> <ROCS_ColorScore>
-7.900

> <ROCS_Overlap>
2709.918

> <ROCS_Rank>
34                  

$$$$
untitled-dbase-291920_0
  -OEChem-02082415563D

 35 38  0     0  0  0  0  0  0999 V2000
    6.2641   13.2098   25.3700 C   0  0  0  0  0  0  0  0  0  0  0  0
   14.5210   17.0094   20.8317 C   0  0  0  0  0  0  0  0  0  0  0  0
   13.4582   17.5423   20.0721 C   0  0  0  0  0  0  0  0  0  0  0  0
    5.7339   11.9856   25.7851 C   0  0  0  0  0  0  0  0  0  0  0  0
    7.3997   13.2652   24.5503 C   0  0  0  0  0  0  0  0  0  0  0  0
   14.2908   16.0410   21.8134 C   0  0  0  0  0  0  0  0  0  0  0  0
   12.1419   17.1184   20.2776 C   0  0  0  0  0  0  0  0  0  0  0  0
    6.3159   10.7747   25.3983 C   0  0  0  0  0  0  0  0  0  0  0  0
    8.0012   12.0595   24.1490 C   0  0  0  0  0  0  0  0  0  0  0  0
   12.9862   15.6342   21.9982 C   0  0  0  0  0  0  0  0  0  0  0  0
   11.9366   16.1605   21.2481 C   0  0  0  0  0  0  0  0  0  0  0  0
    9.1196   11.6978   23.3526 C   0  0  0  0  0  0  0  0  0  0  0  0
    7.4432   10.8616   24.5835 C   0  0  0  0  0  0  0  0  0  0  0  0
    9.1683   10.3230   23.3541 C   0  0  0  0  0  0  0  0  0  0  0  0
   12.4266   14.6589   22.9395 C   0  0  0  0  0  0  0  0  0  0  0  0
   10.6936   15.5280   21.7012 C   0  0  0  0  0  0  0  0  0  0  0  0
   10.0736   12.5856   22.6406 C   0  0  0  0  0  0  0  0  0  0  0  0
   10.0702    9.3432   22.7287 C   0  0  0  0  0  0  0  0  0  0  0  0
   11.0978   14.6437   22.6518 N   0  0  0  0  0  0  0  0  0  0  0  0
   13.0705   14.0285   23.7549 O   0  0  0  0  0  0  0  0  0  0  0  0
    9.5866   15.7762   21.2657 O   0  0  0  0  0  0  0  0  0  0  0  0
   10.6430   12.2647   21.6086 O   0  0  0  0  0  0  0  0  0  0  0  0
    8.1558    9.8062   24.0981 O   0  0  0  0  0  0  0  0  0  0  0  0
   10.2181   13.7880   23.2824 O   0  0  0  0  0  0  0  0  0  0  0  0
   11.0820    9.8984   21.9827 F   0  0  0  0  0  0  0  0  0  0  0  0
   10.7189    8.5211   23.6183 F   0  0  0  0  0  0  0  0  0  0  0  0
    9.4316    8.4873   21.8660 F   0  0  0  0  0  0  0  0  0  0  0  0
    5.7892   14.1350   25.6867 H   0  0  0  0  0  0  0  0  0  0  0  0
   15.5337   17.3600   20.6498 H   0  0  0  0  0  0  0  0  0  0  0  0
   13.6685   18.2951   19.3168 H   0  0  0  0  0  0  0  0  0  0  0  0
    4.8522   11.9731   26.4213 H   0  0  0  0  0  0  0  0  0  0  0  0
    7.7993   14.2251   24.2370 H   0  0  0  0  0  0  0  0  0  0  0  0
   15.1075   15.6344   22.3980 H   0  0  0  0  0  0  0  0  0  0  0  0
   11.3261   17.5303   19.6956 H   0  0  0  0  0  0  0  0  0  0  0  0
    5.9102    9.8216   25.7158 H   0  0  0  0  0  0  0  0  0  0  0  0
  1  4  1  0  0  0  0
  1  5  2  0  0  0  0
  2  3  1  0  0  0  0
  2  6  2  0  0  0  0
  3  7  2  0  0  0  0
  4  8  2  0  0  0  0
  5  9  1  0  0  0  0
  6 10  1  0  0  0  0
  7 11  1  0  0  0  0
  8 13  1  0  0  0  0
  9 12  1  0  0  0  0
  9 13  2  0  0  0  0
 10 11  2  0  0  0  0
 10 15  1  0  0  0  0
 11 16  1  0  0  0  0
 12 14  2  0  0  0  0
 12 17  1  0  0  0  0
 13 23  1  0  0  0  0
 14 18  1  0  0  0  0
 14 23  1  0  0  0  0
 15 19  1  0  0  0  0
 15 20  2  0  0  0  0
 16 19  1  0  0  0  0
 16 21  2  0  0  0  0
 17 22  2  0  0  0  0
 17 24  1  0  0  0  0
 18 25  1  0  0  0  0
 18 26  1  0  0  0  0
 18 27  1  0  0  0  0
 19 24  1  0  0  0  0
  1 28  1  0  0  0  0
  2 29  1  0  0  0  0
  3 30  1  0  0  0  0
  4 31  1  0  0  0  0
  5 32  1  0  0  0  0
  6 33  1  0  0  0  0
  7 34  1  0  0  0  0
  8 35  1  0  0  0  0
M  END
> <id>
EN300-6525770

> <smiles>
FC(F)(F)C=1OC=2C=CC=CC2C1C(=O)ON3C(=O)C=4C=CC=CC4C3=O

> <IUPAC Name>
1,3-dioxo-2,3-dihydro-1H-isoindol-2-yl 2-(trifluoromethyl)-1-benzofuran-3-carboxylate

> <CAS>
2248412-94-2

> <URL>
https://www.enaminestore.com/catalog/EN300-6525770

> <ROCS_ShapeQuery>
x0446_0A_x1080_0A_x0929_0A_x0812_0A_x0719_0A_x1140_0A_x0528_0A_x0310_0A

> <ROCS_TanimotoCombo>
0.441 

> <ROCS_ShapeTanimoto>
0.281 

> <ROCS_ColorTanimoto>
0.159 

> <ROCS_RefTversky>
0.254 

> <ROCS_RefColorTversky>
0.174 

> <ROCS_RefTverskyCombo>
0.428 

> <ROCS_FitTversky>
1.618 

> <ROCS_FitColorTversky>
0.655 

> <ROCS_FitTverskyCombo>
2.273 

> <ROCS_ColorScore>
-6.217

> <ROCS_Overlap>
3003.644

> <ROCS_Rank>
35                  

$$$$
untitled-dbase-292721_8
  -OEChem-02082415563D

 40 43  0     0  0  0  0  0  0999 V2000
   11.6565   19.1017   21.2572 C   0  0  0  0  0  0  0  0  0  0  0  0
   12.9794   18.8814   21.6953 C   0  0  0  0  0  0  0  0  0  0  0  0
   10.7310   18.0552   21.2041 C   0  0  0  0  0  0  0  0  0  0  0  0
   13.4058   17.6099   22.0899 C   0  0  0  0  0  0  0  0  0  0  0  0
   10.0578   10.7136   23.3739 C   0  0  0  0  0  0  0  0  0  0  0  0
    8.3425   12.1506   24.2031 C   0  0  0  0  0  0  0  0  0  0  0  0
   11.1705   16.8097   21.6006 C   0  0  0  0  0  0  0  0  0  0  0  0
   12.4769   16.5922   22.0332 C   0  0  0  0  0  0  0  0  0  0  0  0
    9.6611   11.9946   23.7581 C   0  0  0  0  0  0  0  0  0  0  0  0
    9.1382    9.6730   23.4511 C   0  0  0  0  0  0  0  0  0  0  0  0
    7.5125   13.1876   24.6737 C   0  0  0  0  0  0  0  0  0  0  0  0
    7.5291   11.0285   24.2305 C   0  0  0  0  0  0  0  0  0  0  0  0
   10.4571   15.5295   21.6503 C   0  0  0  0  0  0  0  0  0  0  0  0
   12.6143   15.1702   22.3641 C   0  0  0  0  0  0  0  0  0  0  0  0
   10.6092   13.1357   23.6927 C   0  0  0  0  0  0  0  0  0  0  0  0
    9.5786    8.3051   23.0368 C   0  0  0  0  0  0  0  0  0  0  0  0
    7.8516   14.6105   24.8541 C   0  0  0  0  0  0  0  0  0  0  0  0
    5.1402   10.6453   24.9019 C   0  0  0  0  0  0  0  0  0  0  0  0
    7.8547    9.7737   23.8739 N   0  0  0  0  0  0  0  0  0  0  0  0
    6.2793   12.7679   24.9752 N   0  0  0  0  0  0  0  0  0  0  0  0
    6.3195   11.4525   24.6957 N   0  0  0  0  0  0  0  0  0  0  0  0
   11.3737   14.6572   22.1482 N   0  0  0  0  0  0  0  0  0  0  0  0
    9.2992   15.3635   21.3208 O   0  0  0  0  0  0  0  0  0  0  0  0
   13.6360   14.6415   22.7556 O   0  0  0  0  0  0  0  0  0  0  0  0
   10.9322   13.7936   24.6700 O   0  0  0  0  0  0  0  0  0  0  0  0
   11.0655   13.3393   22.4164 O   0  0  0  0  0  0  0  0  0  0  0  0
   11.3549   20.1015   20.9555 H   0  0  0  0  0  0  0  0  0  0  0  0
   13.6765   19.7149   21.7242 H   0  0  0  0  0  0  0  0  0  0  0  0
    9.7160   18.2251   20.8651 H   0  0  0  0  0  0  0  0  0  0  0  0
   14.4227   17.4413   22.4235 H   0  0  0  0  0  0  0  0  0  0  0  0
   11.0694   10.5328   23.0209 H   0  0  0  0  0  0  0  0  0  0  0  0
    9.9912    7.7648   23.8958 H   0  0  0  0  0  0  0  0  0  0  0  0
    8.7409    7.7281   22.6281 H   0  0  0  0  0  0  0  0  0  0  0  0
   10.3444    8.3577   22.2540 H   0  0  0  0  0  0  0  0  0  0  0  0
    7.6403   15.1906   23.9399 H   0  0  0  0  0  0  0  0  0  0  0  0
    7.2830   15.0721   25.6805 H   0  0  0  0  0  0  0  0  0  0  0  0
    8.9179   14.7558   25.1021 H   0  0  0  0  0  0  0  0  0  0  0  0
    5.1702   10.2593   25.9243 H   0  0  0  0  0  0  0  0  0  0  0  0
    4.2478   11.2591   24.7511 H   0  0  0  0  0  0  0  0  0  0  0  0
    5.1349    9.8226   24.1815 H   0  0  0  0  0  0  0  0  0  0  0  0
  1  2  1  0  0  0  0
  1  3  2  0  0  0  0
  2  4  2  0  0  0  0
  3  7  1  0  0  0  0
  4  8  1  0  0  0  0
  5  9  2  0  0  0  0
  5 10  1  0  0  0  0
  6  9  1  0  0  0  0
  6 11  1  0  0  0  0
  6 12  2  0  0  0  0
  7  8  2  0  0  0  0
  7 13  1  0  0  0  0
  8 14  1  0  0  0  0
  9 15  1  0  0  0  0
 10 16  1  0  0  0  0
 10 19  2  0  0  0  0
 11 17  1  0  0  0  0
 11 20  2  0  0  0  0
 12 19  1  0  0  0  0
 12 21  1  0  0  0  0
 13 22  1  0  0  0  0
 13 23  2  0  0  0  0
 14 22  1  0  0  0  0
 14 24  2  0  0  0  0
 15 25  2  0  0  0  0
 15 26  1  0  0  0  0
 18 21  1  0  0  0  0
 20 21  1  0  0  0  0
 22 26  1  0  0  0  0
  1 27  1  0  0  0  0
  2 28  1  0  0  0  0
  3 29  1  0  0  0  0
  4 30  1  0  0  0  0
  5 31  1  0  0  0  0
 16 32  1  0  0  0  0
 16 33  1  0  0  0  0
 16 34  1  0  0  0  0
 17 35  1  0  0  0  0
 17 36  1  0  0  0  0
 17 37  1  0  0  0  0
 18 38  1  0  0  0  0
 18 39  1  0  0  0  0
 18 40  1  0  0  0  0
M  END
> <id>
EN300-6519101

> <smiles>
CC1=NN(C)C=2N=C(C)C=C(C(=O)ON3C(=O)C=4C=CC=CC4C3=O)C12

> <IUPAC Name>
1,3-dioxo-2,3-dihydro-1H-isoindol-2-yl 1,3,6-trimethyl-1H-pyrazolo[3,4-b]pyridine-4-carboxylate

> <CAS>
2248326-19-2

> <URL>
https://www.enaminestore.com/catalog/EN300-6519101

> <ROCS_ShapeQuery>
x0446_0A_x1080_0A_x0929_0A_x0812_0A_x0719_0A_x1140_0A_x0528_0A_x0310_0A

> <ROCS_TanimotoCombo>
0.441 

> <ROCS_ShapeTanimoto>
0.271 

> <ROCS_ColorTanimoto>
0.169 

> <ROCS_RefTversky>
0.246 

> <ROCS_RefColorTversky>
0.187 

> <ROCS_RefTverskyCombo>
0.433 

> <ROCS_FitTversky>
1.613 

> <ROCS_FitColorTversky>
0.641 

> <ROCS_FitTverskyCombo>
2.254 

> <ROCS_ColorScore>
-6.698

> <ROCS_Overlap>
2906.603

> <ROCS_Rank>
36                  

$$$$
untitled-dbase-46361_5
  -OEChem-02082415563D

 39 42  0     1  0  0  0  0  0999 V2000
   10.5014   15.9586   22.5053 C   0  0  0  0  0  0  0  0  0  0  0  0
   11.2216    8.9374   22.1556 C   0  0  0  0  0  0  0  0  0  0  0  0
    6.9543   11.0470   24.1496 C   0  0  0  0  0  0  0  0  0  0  0  0
    8.6535    9.9539   22.6661 C   0  0  0  0  0  0  0  0  0  0  0  0
    9.2620   10.5952   25.0167 C   0  0  0  0  0  0  0  0  0  0  0  0
    7.9375   12.3135   22.2250 C   0  0  0  0  0  0  0  0  0  0  0  0
    8.5272   12.9531   24.5751 C   0  0  0  0  0  0  0  0  0  0  0  0
   10.2496   11.8519   23.0762 C   0  0  0  0  0  0  0  0  0  0  0  0
    7.4714   10.9314   22.7104 C   0  0  2  0  0  0  0  0  0  0  0  0
    8.0718   11.5674   25.0618 C   0  0  1  0  0  0  0  0  0  0  0  0
    9.7960   10.4580   23.5724 C   0  0  0  0  0  0  0  0  0  0  0  0
    9.0830   12.8848   23.1216 C   0  0  0  0  0  0  0  0  0  0  0  0
   11.4208   17.0772   22.7294 C   0  0  0  0  0  0  0  0  0  0  0  0
   10.9721    9.4774   23.5349 C   0  0  0  0  0  0  0  0  0  0  0  0
    9.5950   15.9338   21.4873 N   0  0  0  0  0  0  0  0  0  0  0  0
   10.4851   14.8683   23.2762 N   0  0  0  0  0  0  0  0  0  0  0  0
    8.9556   14.7758   21.5953 N   0  0  0  0  0  0  0  0  0  0  0  0
    9.5114   14.1827   22.6610 N   0  0  0  0  0  0  0  0  0  0  0  0
   11.4860    9.6336   21.1804 O   0  0  0  0  0  0  0  0  0  0  0  0
   11.0809    7.2011   22.1501 Cl  0  0  0  0  0  0  0  0  0  0  0  0
    6.0930   11.7255   24.1862 H   0  0  0  0  0  0  0  0  0  0  0  0
    6.6045   10.0692   24.5034 H   0  0  0  0  0  0  0  0  0  0  0  0
    8.3220    8.9584   22.9887 H   0  0  0  0  0  0  0  0  0  0  0  0
    9.0065    9.8474   21.6322 H   0  0  0  0  0  0  0  0  0  0  0  0
   10.0569   10.9530   25.6838 H   0  0  0  0  0  0  0  0  0  0  0  0
    8.9489    9.6149   25.3988 H   0  0  0  0  0  0  0  0  0  0  0  0
    8.2797   12.2447   21.1836 H   0  0  0  0  0  0  0  0  0  0  0  0
    7.0878   13.0098   22.2199 H   0  0  0  0  0  0  0  0  0  0  0  0
    7.6886   13.6603   24.6249 H   0  0  0  0  0  0  0  0  0  0  0  0
    9.3002   13.3453   25.2493 H   0  0  0  0  0  0  0  0  0  0  0  0
   11.0820   12.2161   23.6941 H   0  0  0  0  0  0  0  0  0  0  0  0
   10.6411   11.7796   22.0519 H   0  0  0  0  0  0  0  0  0  0  0  0
    6.6686   10.5660   22.0600 H   0  0  0  0  0  0  0  0  0  0  0  0
    7.7005   11.6449   26.0900 H   0  0  0  0  0  0  0  0  0  0  0  0
   10.9810   17.8389   23.4005 H   0  0  0  0  0  0  0  0  0  0  0  0
   12.3779   16.7557   23.1845 H   0  0  0  0  0  0  0  0  0  0  0  0
   11.6993   17.5928   21.7895 H   0  0  0  0  0  0  0  0  0  0  0  0
   11.8466   10.0146   23.8872 H   0  0  0  0  0  0  0  0  0  0  0  0
   10.7333    8.6659   24.2140 H   0  0  0  0  0  0  0  0  0  0  0  0
  1 13  1  0  0  0  0
  1 15  1  0  0  0  0
  1 16  2  0  0  0  0
  2 14  1  0  0  0  0
  2 19  2  0  0  0  0
  2 20  1  0  0  0  0
  3  9  1  0  0  0  0
  3 10  1  0  0  0  0
  4  9  1  0  0  0  0
  4 11  1  0  0  0  0
  5 10  1  0  0  0  0
  5 11  1  0  0  0  0
  6  9  1  0  0  0  0
  6 12  1  0  0  0  0
  7 10  1  0  0  0  0
  7 12  1  0  0  0  0
  8 11  1  0  0  0  0
  8 12  1  0  0  0  0
 11 14  1  0  0  0  0
 12 18  1  0  0  0  0
 15 17  2  0  0  0  0
 16 18  1  0  0  0  0
 17 18  1  0  0  0  0
  3 21  1  0  0  0  0
  3 22  1  0  0  0  0
  4 23  1  0  0  0  0
  4 24  1  0  0  0  0
  5 25  1  0  0  0  0
  5 26  1  0  0  0  0
  6 27  1  0  0  0  0
  6 28  1  0  0  0  0
  7 29  1  0  0  0  0
  7 30  1  0  0  0  0
  8 31  1  0  0  0  0
  8 32  1  0  0  0  0
  9 33  1  0  0  0  0
 10 34  1  0  0  0  0
 13 35  1  0  0  0  0
 13 36  1  0  0  0  0
 13 37  1  0  0  0  0
 14 38  1  0  0  0  0
 14 39  1  0  0  0  0
M  END
> <id>
EN300-228578

> <smiles>
CC=1N=NN(N1)C2(CC3CC4CC(CC(=O)Cl)(C3)C2)C4

> <IUPAC Name>
2-[3-(5-methyl-2H-1,2,3,4-tetrazol-2-yl)adamantan-1-yl]acetyl chloride

> <CAS>
861508-53-4

> <URL>
https://www.enaminestore.com/catalog/EN300-228578

> <ROCS_ShapeQuery>
x0446_0A_x1080_0A_x0929_0A_x0812_0A_x0719_0A_x1140_0A_x0528_0A_x0310_0A

> <ROCS_TanimotoCombo>
0.440 

> <ROCS_ShapeTanimoto>
0.226 

> <ROCS_ColorTanimoto>
0.214 

> <ROCS_RefTversky>
0.208 

> <ROCS_RefColorTversky>
0.236 

> <ROCS_RefTverskyCombo>
0.444 

> <ROCS_FitTversky>
1.646 

> <ROCS_FitColorTversky>
0.698 

> <ROCS_FitTverskyCombo>
2.344 

> <ROCS_ColorScore>
-8.470

> <ROCS_Overlap>
2452.107

> <ROCS_Rank>
37                  

$$$$
untitled-dbase-338991_7
  -OEChem-02082415563D

 38 40  0     0  0  0  0  0  0999 V2000
   11.3532   13.6631   24.0334 C   0  0  0  0  0  0  0  0  0  0  0  0
    6.1956   10.9857   24.8629 C   0  0  0  0  0  0  0  0  0  0  0  0
   12.0983   14.8133   23.7743 C   0  0  0  0  0  0  0  0  0  0  0  0
    5.4949   12.1645   25.1344 C   0  0  0  0  0  0  0  0  0  0  0  0
    7.3930   13.4517   24.4144 C   0  0  0  0  0  0  0  0  0  0  0  0
    8.0910   12.2618   24.1440 C   0  0  0  0  0  0  0  0  0  0  0  0
   10.1500   13.4455   23.3619 C   0  0  0  0  0  0  0  0  0  0  0  0
    7.4967   11.0089   24.3665 C   0  0  0  0  0  0  0  0  0  0  0  0
   11.6404   15.7461   22.8438 C   0  0  0  0  0  0  0  0  0  0  0  0
    9.6921   14.3783   22.4314 C   0  0  0  0  0  0  0  0  0  0  0  0
   10.4372   15.5286   22.1723 C   0  0  0  0  0  0  0  0  0  0  0  0
    6.0939   13.3990   24.9099 C   0  0  0  0  0  0  0  0  0  0  0  0
    9.3913   12.2447   23.6476 C   0  0  0  0  0  0  0  0  0  0  0  0
    9.4102    9.9815   23.6325 C   0  0  0  0  0  0  0  0  0  0  0  0
   13.5957   17.0100   23.3286 C   0  0  0  0  0  0  0  0  0  0  0  0
    8.5817   13.4719   20.5337 C   0  0  0  0  0  0  0  0  0  0  0  0
    9.1535   17.4866   21.7554 C   0  0  0  0  0  0  0  0  0  0  0  0
    8.1549    9.8648   24.1111 N   0  0  0  0  0  0  0  0  0  0  0  0
   10.0791   11.1184   23.3812 N   0  0  0  0  0  0  0  0  0  0  0  0
   12.3786   16.8646   22.5995 O   0  0  0  0  0  0  0  0  0  0  0  0
    8.5152   14.1796   21.7687 O   0  0  0  0  0  0  0  0  0  0  0  0
    9.9905   16.4424   21.2641 O   0  0  0  0  0  0  0  0  0  0  0  0
    5.2334   14.8502   25.2460 Cl  0  0  0  0  0  0  0  0  0  0  0  0
   10.2385    8.5222   23.3092 Cl  0  0  0  0  0  0  0  0  0  0  0  0
   11.7247   12.9455   24.7616 H   0  0  0  0  0  0  0  0  0  0  0  0
    5.7036   10.0326   25.0485 H   0  0  0  0  0  0  0  0  0  0  0  0
   13.0354   14.9757   24.3001 H   0  0  0  0  0  0  0  0  0  0  0  0
    4.4814   12.0988   25.5220 H   0  0  0  0  0  0  0  0  0  0  0  0
    7.8533   14.4224   24.2425 H   0  0  0  0  0  0  0  0  0  0  0  0
   14.0855   17.9430   23.0393 H   0  0  0  0  0  0  0  0  0  0  0  0
   14.2513   16.1613   23.1179 H   0  0  0  0  0  0  0  0  0  0  0  0
   13.3691   17.0362   24.3971 H   0  0  0  0  0  0  0  0  0  0  0  0
    7.5785   13.3823   20.1098 H   0  0  0  0  0  0  0  0  0  0  0  0
    9.0069   12.4796   20.7037 H   0  0  0  0  0  0  0  0  0  0  0  0
    9.2194   14.0256   19.8406 H   0  0  0  0  0  0  0  0  0  0  0  0
    8.8683   18.1445   20.9308 H   0  0  0  0  0  0  0  0  0  0  0  0
    9.6890   18.0547   22.5203 H   0  0  0  0  0  0  0  0  0  0  0  0
    8.2552   17.0457   22.1940 H   0  0  0  0  0  0  0  0  0  0  0  0
  1  3  2  0  0  0  0
  1  7  1  0  0  0  0
  2  4  2  0  0  0  0
  2  8  1  0  0  0  0
  3  9  1  0  0  0  0
  4 12  1  0  0  0  0
  5  6  1  0  0  0  0
  5 12  2  0  0  0  0
  6  8  1  0  0  0  0
  6 13  2  0  0  0  0
  7 10  2  0  0  0  0
  7 13  1  0  0  0  0
  8 18  2  0  0  0  0
  9 11  2  0  0  0  0
  9 20  1  0  0  0  0
 10 11  1  0  0  0  0
 10 21  1  0  0  0  0
 11 22  1  0  0  0  0
 12 23  1  0  0  0  0
 13 19  1  0  0  0  0
 14 18  1  0  0  0  0
 14 19  2  0  0  0  0
 14 24  1  0  0  0  0
 15 20  1  0  0  0  0
 16 21  1  0  0  0  0
 17 22  1  0  0  0  0
  1 25  1  0  0  0  0
  2 26  1  0  0  0  0
  3 27  1  0  0  0  0
  4 28  1  0  0  0  0
  5 29  1  0  0  0  0
 15 30  1  0  0  0  0
 15 31  1  0  0  0  0
 15 32  1  0  0  0  0
 16 33  1  0  0  0  0
 16 34  1  0  0  0  0
 16 35  1  0  0  0  0
 17 36  1  0  0  0  0
 17 37  1  0  0  0  0
 17 38  1  0  0  0  0
M  END
> <id>
EN300-26594275

> <smiles>
COC=1C=CC(=C(OC)C1OC)C=2N=C(Cl)N=C3C=CC(Cl)=CC23

> <IUPAC Name>
2,6-dichloro-4-(2,3,4-trimethoxyphenyl)quinazoline

> <CAS>
1808832-15-6

> <URL>
https://www.enaminestore.com/catalog/EN300-26594275

> <ROCS_ShapeQuery>
x0446_0A_x1080_0A_x0929_0A_x0812_0A_x0719_0A_x1140_0A_x0528_0A_x0310_0A

> <ROCS_TanimotoCombo>
0.440 

> <ROCS_ShapeTanimoto>
0.268 

> <ROCS_ColorTanimoto>
0.172 

> <ROCS_RefTversky>
0.241 

> <ROCS_RefColorTversky>
0.185 

> <ROCS_RefTverskyCombo>
0.426 

> <ROCS_FitTversky>
1.715 

> <ROCS_FitColorTversky>
0.699 

> <ROCS_FitTverskyCombo>
2.414 

> <ROCS_ColorScore>
-6.622

> <ROCS_Overlap>
2848.836

> <ROCS_Rank>
38                  

$$$$
untitled-dbase-286978_4
  -OEChem-02082415563D

 35 37  0     0  0  0  0  0  0999 V2000
    5.3723   12.8933   25.1849 C   0  0  0  0  0  0  0  0  0  0  0  0
    5.2395   11.4968   25.3353 C   0  0  0  0  0  0  0  0  0  0  0  0
    6.5634   13.4582   24.7195 C   0  0  0  0  0  0  0  0  0  0  0  0
    6.2949   10.6346   25.0236 C   0  0  0  0  0  0  0  0  0  0  0  0
    7.5909   12.5905   24.4147 C   0  0  0  0  0  0  0  0  0  0  0  0
    7.4598   11.2114   24.5633 C   0  0  0  0  0  0  0  0  0  0  0  0
   13.3274   15.4345   22.3142 C   0  0  0  0  0  0  0  0  0  0  0  0
   12.1673   16.0927   22.1985 C   0  0  0  0  0  0  0  0  0  0  0  0
   13.5114   14.1317   21.7246 C   0  0  0  0  0  0  0  0  0  0  0  0
    8.9443   12.8670   23.9224 C   0  0  0  0  0  0  0  0  0  0  0  0
    8.7279   10.5900   24.1680 C   0  0  0  0  0  0  0  0  0  0  0  0
   12.5088   13.5545   21.0437 C   0  0  0  0  0  0  0  0  0  0  0  0
   11.0432   15.4666   21.4456 C   0  0  0  0  0  0  0  0  0  0  0  0
   10.7652   11.3119   21.8825 C   0  0  0  0  0  0  0  0  0  0  0  0
   12.6113   12.2100   20.4020 C   0  0  0  0  0  0  0  0  0  0  0  0
   12.1811   11.1231   21.3797 C   0  0  0  0  0  0  0  0  0  0  0  0
   11.3036   14.2144   20.9115 N   0  0  0  0  0  0  0  0  0  0  0  0
    9.5017   11.6359   23.7726 N   0  0  0  0  0  0  0  0  0  0  0  0
    9.3932   13.9747   23.7026 O   0  0  0  0  0  0  0  0  0  0  0  0
    8.9581    9.3971   24.1968 O   0  0  0  0  0  0  0  0  0  0  0  0
    9.9714   16.0556   21.3290 O   0  0  0  0  0  0  0  0  0  0  0  0
    9.7622   11.3211   21.1817 O   0  0  0  0  0  0  0  0  0  0  0  0
   10.7680   11.4596   23.2539 O   0  0  0  0  0  0  0  0  0  0  0  0
    4.5342   13.5381   25.4368 H   0  0  0  0  0  0  0  0  0  0  0  0
    4.3012   11.0874   25.7007 H   0  0  0  0  0  0  0  0  0  0  0  0
    6.6651   14.5311   24.6069 H   0  0  0  0  0  0  0  0  0  0  0  0
    6.1927    9.5625   25.1421 H   0  0  0  0  0  0  0  0  0  0  0  0
   14.1594   15.8691   22.8572 H   0  0  0  0  0  0  0  0  0  0  0  0
   12.0153   17.0718   22.6360 H   0  0  0  0  0  0  0  0  0  0  0  0
   14.4732   13.6469   21.8510 H   0  0  0  0  0  0  0  0  0  0  0  0
   13.6343   12.0645   20.0424 H   0  0  0  0  0  0  0  0  0  0  0  0
   11.9352   12.2150   19.5404 H   0  0  0  0  0  0  0  0  0  0  0  0
   12.8415   11.1657   22.2540 H   0  0  0  0  0  0  0  0  0  0  0  0
   12.2576   10.1298   20.9238 H   0  0  0  0  0  0  0  0  0  0  0  0
   10.5622   13.7542   20.3910 H   0  0  0  0  0  0  0  0  0  0  0  0
  1  2  1  0  0  0  0
  1  3  2  0  0  0  0
  2  4  2  0  0  0  0
  3  5  1  0  0  0  0
  4  6  1  0  0  0  0
  5  6  2  0  0  0  0
  5 10  1  0  0  0  0
  6 11  1  0  0  0  0
  7  8  2  0  0  0  0
  7  9  1  0  0  0  0
  8 13  1  0  0  0  0
  9 12  2  0  0  0  0
 10 18  1  0  0  0  0
 10 19  2  0  0  0  0
 11 18  1  0  0  0  0
 11 20  2  0  0  0  0
 12 15  1  0  0  0  0
 12 17  1  0  0  0  0
 13 17  1  0  0  0  0
 13 21  2  0  0  0  0
 14 16  1  0  0  0  0
 14 22  2  0  0  0  0
 14 23  1  0  0  0  0
 15 16  1  0  0  0  0
 18 23  1  0  0  0  0
  1 24  1  0  0  0  0
  2 25  1  0  0  0  0
  3 26  1  0  0  0  0
  4 27  1  0  0  0  0
  7 28  1  0  0  0  0
  8 29  1  0  0  0  0
  9 30  1  0  0  0  0
 15 31  1  0  0  0  0
 15 32  1  0  0  0  0
 16 33  1  0  0  0  0
 16 34  1  0  0  0  0
 17 35  1  0  0  0  0
M  END
> <id>
EN300-6516056

> <smiles>
O=C(CCC1=CC=CC(=O)N1)ON2C(=O)C=3C=CC=CC3C2=O

> <IUPAC Name>
1,3-dioxo-2,3-dihydro-1H-isoindol-2-yl 3-(6-oxo-1,6-dihydropyridin-2-yl)propanoate

> <CAS>
2248306-45-6

> <URL>
https://www.enaminestore.com/catalog/EN300-6516056

> <ROCS_ShapeQuery>
x0446_0A_x1080_0A_x0929_0A_x0812_0A_x0719_0A_x1140_0A_x0528_0A_x0310_0A

> <ROCS_TanimotoCombo>
0.439 

> <ROCS_ShapeTanimoto>
0.247 

> <ROCS_ColorTanimoto>
0.192 

> <ROCS_RefTversky>
0.225 

> <ROCS_RefColorTversky>
0.204 

> <ROCS_RefTverskyCombo>
0.429 

> <ROCS_FitTversky>
1.629 

> <ROCS_FitColorTversky>
0.769 

> <ROCS_FitTverskyCombo>
2.399 

> <ROCS_ColorScore>
-7.289

> <ROCS_Overlap>
2661.463

> <ROCS_Rank>
39                  

$$$$
untitled-dbase-262087_1
  -OEChem-02082415563D

 40 42  0     0  0  0  0  0  0999 V2000
   10.8141   13.6353   22.7157 C   0  0  0  0  0  0  0  0  0  0  0  0
    7.9919   12.2644   23.4691 C   0  0  0  0  0  0  0  0  0  0  0  0
    9.5138   11.7923   24.8289 C   0  0  0  0  0  0  0  0  0  0  0  0
   10.3332    9.2496   23.0083 C   0  0  0  0  0  0  0  0  0  0  0  0
    8.8315    9.7152   21.6661 C   0  0  0  0  0  0  0  0  0  0  0  0
    9.4190   11.6491   23.2718 C   0  0  0  0  0  0  0  0  0  0  0  0
    9.1064   10.1444   23.0994 C   0  0  0  0  0  0  0  0  0  0  0  0
    8.0403   11.2217   24.6664 C   0  0  0  0  0  0  0  0  0  0  0  0
   12.9839   15.4126   23.2478 C   0  0  0  0  0  0  0  0  0  0  0  0
   13.2246   15.5690   20.7524 C   0  0  0  0  0  0  0  0  0  0  0  0
   11.1072   16.3482   21.8559 C   0  0  0  0  0  0  0  0  0  0  0  0
    7.0610   11.3291   25.7993 C   0  0  0  0  0  0  0  0  0  0  0  0
   12.2530   15.3387   21.9079 C   0  0  0  0  0  0  0  0  0  0  0  0
   10.3670   12.3515   22.4546 N   0  0  0  0  0  0  0  0  0  0  0  0
   10.4649   14.3304   23.6642 O   0  0  0  0  0  0  0  0  0  0  0  0
   10.0744    8.9726   21.6100 O   0  0  0  0  0  0  0  0  0  0  0  0
    8.1107    9.8614   24.1153 O   0  0  0  0  0  0  0  0  0  0  0  0
    5.7802   11.6834   25.2881 O   0  0  0  0  0  0  0  0  0  0  0  0
   11.7085   14.0228   21.7579 O   0  0  0  0  0  0  0  0  0  0  0  0
    7.9397   13.3253   23.7386 H   0  0  0  0  0  0  0  0  0  0  0  0
    7.2566   12.0549   22.6866 H   0  0  0  0  0  0  0  0  0  0  0  0
   10.2240   11.1342   25.3381 H   0  0  0  0  0  0  0  0  0  0  0  0
    9.6101   12.8072   25.2310 H   0  0  0  0  0  0  0  0  0  0  0  0
   11.3071    9.7269   23.1502 H   0  0  0  0  0  0  0  0  0  0  0  0
   10.2900    8.3343   23.6068 H   0  0  0  0  0  0  0  0  0  0  0  0
    7.9697    9.0539   21.5327 H   0  0  0  0  0  0  0  0  0  0  0  0
    8.8003   10.5043   20.9094 H   0  0  0  0  0  0  0  0  0  0  0  0
   12.2899   15.2478   24.0798 H   0  0  0  0  0  0  0  0  0  0  0  0
   13.7857   14.6698   23.3114 H   0  0  0  0  0  0  0  0  0  0  0  0
   13.4198   16.4065   23.4011 H   0  0  0  0  0  0  0  0  0  0  0  0
   12.7045   15.5169   19.7891 H   0  0  0  0  0  0  0  0  0  0  0  0
   13.9955   14.7903   20.7295 H   0  0  0  0  0  0  0  0  0  0  0  0
   13.7181   16.5434   20.8276 H   0  0  0  0  0  0  0  0  0  0  0  0
   10.5828   16.2954   20.8949 H   0  0  0  0  0  0  0  0  0  0  0  0
   10.3804   16.1750   22.6561 H   0  0  0  0  0  0  0  0  0  0  0  0
   11.4862   17.3728   21.9454 H   0  0  0  0  0  0  0  0  0  0  0  0
    7.3697   12.1003   26.5182 H   0  0  0  0  0  0  0  0  0  0  0  0
    6.9659   10.3737   26.3331 H   0  0  0  0  0  0  0  0  0  0  0  0
   10.7338   11.8754   21.6307 H   0  0  0  0  0  0  0  0  0  0  0  0
    5.1832   11.7411   26.0505 H   0  0  0  0  0  0  0  0  0  0  0  0
  1 14  1  0  0  0  0
  1 15  2  0  0  0  0
  1 19  1  0  0  0  0
  2  6  1  0  0  0  0
  2  8  1  0  0  0  0
  3  6  1  0  0  0  0
  3  8  1  0  0  0  0
  4  7  1  0  0  0  0
  4 16  1  0  0  0  0
  5  7  1  0  0  0  0
  5 16  1  0  0  0  0
  6  7  1  0  0  0  0
  6 14  1  0  0  0  0
  7 17  1  0  0  0  0
  8 12  1  0  0  0  0
  8 17  1  0  0  0  0
  9 13  1  0  0  0  0
 10 13  1  0  0  0  0
 11 13  1  0  0  0  0
 12 18  1  0  0  0  0
 13 19  1  0  0  0  0
  2 20  1  0  0  0  0
  2 21  1  0  0  0  0
  3 22  1  0  0  0  0
  3 23  1  0  0  0  0
  4 24  1  0  0  0  0
  4 25  1  0  0  0  0
  5 26  1  0  0  0  0
  5 27  1  0  0  0  0
  9 28  1  0  0  0  0
  9 29  1  0  0  0  0
  9 30  1  0  0  0  0
 10 31  1  0  0  0  0
 10 32  1  0  0  0  0
 10 33  1  0  0  0  0
 11 34  1  0  0  0  0
 11 35  1  0  0  0  0
 11 36  1  0  0  0  0
 12 37  1  0  0  0  0
 12 38  1  0  0  0  0
 14 39  1  0  0  0  0
 18 40  1  0  0  0  0
M  END
> <id>
EN300-7548324

> <smiles>
CC(C)(C)OC(=O)NC1(CC2(CO)C1)C3(COC3)O2

> <IUPAC Name>
tert-butyl N-[4-(hydroxymethyl)-3-oxaspiro[bicyclo[2.1.1]hexane-2,3'-oxetane]-1-yl]carbamate

> <CAS>
2490420-73-8

> <URL>
https://www.enaminestore.com/catalog/EN300-7548324

> <ROCS_ShapeQuery>
x0446_0A_x1080_0A_x0929_0A_x0812_0A_x0719_0A_x1140_0A_x0528_0A_x0310_0A

> <ROCS_TanimotoCombo>
0.439 

> <ROCS_ShapeTanimoto>
0.242 

> <ROCS_ColorTanimoto>
0.197 

> <ROCS_RefTversky>
0.218 

> <ROCS_RefColorTversky>
0.237 

> <ROCS_RefTverskyCombo>
0.456 

> <ROCS_FitTversky>
1.797 

> <ROCS_FitColorTversky>
0.538 

> <ROCS_FitTverskyCombo>
2.335 

> <ROCS_ColorScore>
-8.557

> <ROCS_Overlap>
2577.230

> <ROCS_Rank>
40                  

$$$$
untitled-dbase-294163_1
  -OEChem-02082415563D

 56 61  0     1  0  0  0  0  0999 V2000
   16.5222   12.2493   25.8374 C   0  0  0  0  0  0  0  0  0  0  0  0
    6.2100   13.2091   23.8847 C   0  0  0  0  0  0  0  0  0  0  0  0
   12.6551   18.8311   20.4667 C   0  0  0  0  0  0  0  0  0  0  0  0
   13.8796   18.1321   20.4178 C   0  0  0  0  0  0  0  0  0  0  0  0
   15.8987   12.7264   24.6845 C   0  0  0  0  0  0  0  0  0  0  0  0
   16.3336   10.9258   26.2356 C   0  0  0  0  0  0  0  0  0  0  0  0
    5.5998   12.0092   24.2277 C   0  0  0  0  0  0  0  0  0  0  0  0
    7.5832   13.2413   23.6595 C   0  0  0  0  0  0  0  0  0  0  0  0
   11.4580   18.1690   20.7549 C   0  0  0  0  0  0  0  0  0  0  0  0
   13.9339   16.7556   20.6561 C   0  0  0  0  0  0  0  0  0  0  0  0
   15.0865   11.8801   23.9298 C   0  0  0  0  0  0  0  0  0  0  0  0
   15.5214   10.0795   25.4808 C   0  0  0  0  0  0  0  0  0  0  0  0
    6.3637   10.8454   24.3438 C   0  0  0  0  0  0  0  0  0  0  0  0
    8.3509   12.0700   23.7776 C   0  0  0  0  0  0  0  0  0  0  0  0
   11.5336   16.8123   20.9900 C   0  0  0  0  0  0  0  0  0  0  0  0
   12.7428   16.1219   20.9416 C   0  0  0  0  0  0  0  0  0  0  0  0
    9.7340   12.0740   23.5570 C   0  0  0  0  0  0  0  0  0  0  0  0
   10.4727   10.8998   23.6877 C   0  0  0  0  0  0  0  0  0  0  0  0
   14.8978   10.5566   24.3279 C   0  0  0  0  0  0  0  0  0  0  0  0
    7.7383   10.8496   24.1235 C   0  0  0  0  0  0  0  0  0  0  0  0
    9.7797    9.7393   24.0163 C   0  0  0  0  0  0  0  0  0  0  0  0
   10.4735   15.8489   21.3035 C   0  0  0  0  0  0  0  0  0  0  0  0
   12.4700   14.7090   21.2234 C   0  0  0  0  0  0  0  0  0  0  0  0
   10.4276   13.3138   23.2019 C   0  0  0  0  0  0  0  0  0  0  0  0
   11.9530   10.8764   23.4070 C   0  0  0  0  0  0  0  0  0  0  0  0
   10.5278    8.4462   24.2010 C   0  0  0  0  0  0  0  0  0  0  0  0
   11.9180    8.4665   23.5587 C   0  0  0  0  0  0  0  0  0  0  0  0
   14.0235    9.6451   23.5161 C   0  0  0  0  0  0  0  0  0  0  0  0
    8.4427    9.7090   24.2420 N   0  0  0  0  0  0  0  0  0  0  0  0
   11.1319   14.6697   21.4617 N   0  0  0  0  0  0  0  0  0  0  0  0
   12.6299    9.6880   23.9568 N   0  0  1  0  0  0  0  0  0  0  0  0
    9.2928   16.1192   21.4018 O   0  0  0  0  0  0  0  0  0  0  0  0
   13.3066   13.8277   21.2403 O   0  0  0  0  0  0  0  0  0  0  0  0
   10.9116   14.0932   24.0257 O   0  0  0  0  0  0  0  0  0  0  0  0
   10.4701   13.4835   21.8478 O   0  0  0  0  0  0  0  0  0  0  0  0
   17.1557   12.9081   26.4243 H   0  0  0  0  0  0  0  0  0  0  0  0
    5.6198   14.1158   23.7931 H   0  0  0  0  0  0  0  0  0  0  0  0
   12.6448   19.9012   20.2756 H   0  0  0  0  0  0  0  0  0  0  0  0
   14.7937   18.6744   20.1898 H   0  0  0  0  0  0  0  0  0  0  0  0
   16.0464   13.7566   24.3738 H   0  0  0  0  0  0  0  0  0  0  0  0
   16.8197   10.5537   27.1325 H   0  0  0  0  0  0  0  0  0  0  0  0
    4.5290   11.9745   24.4057 H   0  0  0  0  0  0  0  0  0  0  0  0
    8.0311   14.1947   23.3910 H   0  0  0  0  0  0  0  0  0  0  0  0
   10.5178   18.7065   20.7897 H   0  0  0  0  0  0  0  0  0  0  0  0
   14.8744   16.2193   20.6155 H   0  0  0  0  0  0  0  0  0  0  0  0
   14.6046   12.2605   23.0330 H   0  0  0  0  0  0  0  0  0  0  0  0
   15.3800    9.0499   25.7987 H   0  0  0  0  0  0  0  0  0  0  0  0
    5.8621    9.9180   24.6143 H   0  0  0  0  0  0  0  0  0  0  0  0
   12.1152   10.8745   22.3224 H   0  0  0  0  0  0  0  0  0  0  0  0
   12.3909   11.7956   23.8193 H   0  0  0  0  0  0  0  0  0  0  0  0
   10.6259    8.2286   25.2707 H   0  0  0  0  0  0  0  0  0  0  0  0
    9.9279    7.6436   23.7538 H   0  0  0  0  0  0  0  0  0  0  0  0
   12.4851    7.5718   23.8502 H   0  0  0  0  0  0  0  0  0  0  0  0
   11.7912    8.4316   22.4699 H   0  0  0  0  0  0  0  0  0  0  0  0
   14.0513    9.9254   22.4575 H   0  0  0  0  0  0  0  0  0  0  0  0
   14.3652    8.6071   23.5868 H   0  0  0  0  0  0  0  0  0  0  0  0
  1  5  1  0  0  0  0
  1  6  2  0  0  0  0
  2  7  1  0  0  0  0
  2  8  2  0  0  0  0
  3  4  1  0  0  0  0
  3  9  2  0  0  0  0
  4 10  2  0  0  0  0
  5 11  2  0  0  0  0
  6 12  1  0  0  0  0
  7 13  2  0  0  0  0
  8 14  1  0  0  0  0
  9 15  1  0  0  0  0
 10 16  1  0  0  0  0
 11 19  1  0  0  0  0
 12 19  2  0  0  0  0
 13 20  1  0  0  0  0
 14 17  2  0  0  0  0
 14 20  1  0  0  0  0
 15 16  2  0  0  0  0
 15 22  1  0  0  0  0
 16 23  1  0  0  0  0
 17 18  1  0  0  0  0
 17 24  1  0  0  0  0
 18 21  2  0  0  0  0
 18 25  1  0  0  0  0
 19 28  1  0  0  0  0
 20 29  2  0  0  0  0
 21 26  1  0  0  0  0
 21 29  1  0  0  0  0
 22 30  1  0  0  0  0
 22 32  2  0  0  0  0
 23 30  1  0  0  0  0
 23 33  2  0  0  0  0
 24 34  2  0  0  0  0
 24 35  1  0  0  0  0
 25 31  1  0  0  0  0
 26 27  1  0  0  0  0
 27 31  1  0  0  0  0
 28 31  1  0  0  0  0
 30 35  1  0  0  0  0
  1 36  1  0  0  0  0
  2 37  1  0  0  0  0
  3 38  1  0  0  0  0
  4 39  1  0  0  0  0
  5 40  1  0  0  0  0
  6 41  1  0  0  0  0
  7 42  1  0  0  0  0
  8 43  1  0  0  0  0
  9 44  1  0  0  0  0
 10 45  1  0  0  0  0
 11 46  1  0  0  0  0
 12 47  1  0  0  0  0
 13 48  1  0  0  0  0
 25 49  1  0  0  0  0
 25 50  1  0  0  0  0
 26 51  1  0  0  0  0
 26 52  1  0  0  0  0
 27 53  1  0  0  0  0
 27 54  1  0  0  0  0
 28 55  1  0  0  0  0
 28 56  1  0  0  0  0
M  END
> <id>
EN300-6522464

> <smiles>
O=C(ON1C(=O)C=2C=CC=CC2C1=O)C=3C=4CN(CC=5C=CC=CC5)CCC4N=C6C=CC=CC36

> <IUPAC Name>
1,3-dioxo-2,3-dihydro-1H-isoindol-2-yl 2-benzyl-1H,2H,3H,4H-benzo[b]1,6-naphthyridine-10-carboxylate

> <CAS>
2248352-68-1

> <URL>
https://www.enaminestore.com/catalog/EN300-6522464

> <ROCS_ShapeQuery>
x0446_0A_x1080_0A_x0929_0A_x0812_0A_x0719_0A_x1140_0A_x0528_0A_x0310_0A

> <ROCS_TanimotoCombo>
0.439 

> <ROCS_ShapeTanimoto>
0.274 

> <ROCS_ColorTanimoto>
0.164 

> <ROCS_RefTversky>
0.255 

> <ROCS_RefColorTversky>
0.190 

> <ROCS_RefTverskyCombo>
0.445 

> <ROCS_FitTversky>
1.375 

> <ROCS_FitColorTversky>
0.551 

> <ROCS_FitTverskyCombo>
1.927 

> <ROCS_ColorScore>
-6.802

> <ROCS_Overlap>
3025.126

> <ROCS_Rank>
41                  

$$$$
untitled-dbase-253161_8
  -OEChem-02082415563D

 40 43  0     0  0  0  0  0  0999 V2000
   13.1345   15.2132   22.4878 C   0  0  0  0  0  0  0  0  0  0  0  0
   12.2976   14.7434   23.4999 C   0  0  0  0  0  0  0  0  0  0  0  0
   11.2749   15.2035   20.9455 C   0  0  0  0  0  0  0  0  0  0  0  0
    8.1667   12.6229   24.3423 C   0  0  0  0  0  0  0  0  0  0  0  0
   12.6232   15.4434   21.2106 C   0  0  0  0  0  0  0  0  0  0  0  0
    7.1359   13.4433   24.8559 C   0  0  0  0  0  0  0  0  0  0  0  0
   10.9494   14.5036   23.2349 C   0  0  0  0  0  0  0  0  0  0  0  0
   10.4380   14.7336   21.9577 C   0  0  0  0  0  0  0  0  0  0  0  0
    5.9455   12.7794   24.9744 C   0  0  0  0  0  0  0  0  0  0  0  0
    9.5167   12.8274   24.0475 C   0  0  0  0  0  0  0  0  0  0  0  0
    7.6661   11.3416   24.0965 C   0  0  0  0  0  0  0  0  0  0  0  0
    9.6492   10.6305   23.3642 C   0  0  0  0  0  0  0  0  0  0  0  0
   13.4954   15.9353   20.1560 C   0  0  0  0  0  0  0  0  0  0  0  0
    7.0099   14.8513   25.3077 C   0  0  0  0  0  0  0  0  0  0  0  0
    4.8422   13.6084   25.5116 C   0  0  0  0  0  0  0  0  0  0  0  0
    5.4615   15.0352   25.3903 C   0  0  0  0  0  0  0  0  0  0  0  0
   10.5067    9.5383   22.8158 C   0  0  0  0  0  0  0  0  0  0  0  0
    8.6802   14.7661   20.3561 C   0  0  0  0  0  0  0  0  0  0  0  0
   10.2629   11.8162   23.5528 N   0  0  0  0  0  0  0  0  0  0  0  0
    8.3669   10.3011   23.6049 N   0  0  0  0  0  0  0  0  0  0  0  0
   13.1040   16.1579   19.0069 O   0  0  0  0  0  0  0  0  0  0  0  0
   10.1323   14.0391   24.2442 O   0  0  0  0  0  0  0  0  0  0  0  0
    9.1225   14.5056   21.6868 O   0  0  0  0  0  0  0  0  0  0  0  0
    5.9984   11.1806   24.4902 S   0  0  0  0  0  0  0  0  0  0  0  0
   14.1835   15.3968   22.7058 H   0  0  0  0  0  0  0  0  0  0  0  0
   12.7021   14.5658   24.4926 H   0  0  0  0  0  0  0  0  0  0  0  0
   10.8724   15.3842   19.9514 H   0  0  0  0  0  0  0  0  0  0  0  0
   14.5618   16.1130   20.4155 H   0  0  0  0  0  0  0  0  0  0  0  0
    7.4639   14.9781   26.2960 H   0  0  0  0  0  0  0  0  0  0  0  0
    7.4553   15.5641   24.6083 H   0  0  0  0  0  0  0  0  0  0  0  0
    3.9172   13.5277   24.9343 H   0  0  0  0  0  0  0  0  0  0  0  0
    4.6457   13.3633   26.5602 H   0  0  0  0  0  0  0  0  0  0  0  0
    5.1638   15.6890   26.2159 H   0  0  0  0  0  0  0  0  0  0  0  0
    5.1083   15.4987   24.4595 H   0  0  0  0  0  0  0  0  0  0  0  0
   10.9771    8.9776   23.6321 H   0  0  0  0  0  0  0  0  0  0  0  0
    9.9191    8.8405   22.2061 H   0  0  0  0  0  0  0  0  0  0  0  0
   11.2960    9.9406   22.1683 H   0  0  0  0  0  0  0  0  0  0  0  0
    7.6134   14.5433   20.2758 H   0  0  0  0  0  0  0  0  0  0  0  0
    9.2463   14.1473   19.6553 H   0  0  0  0  0  0  0  0  0  0  0  0
    8.8481   15.8208   20.1257 H   0  0  0  0  0  0  0  0  0  0  0  0
  1  2  2  0  0  0  0
  1  5  1  0  0  0  0
  2  7  1  0  0  0  0
  3  5  2  0  0  0  0
  3  8  1  0  0  0  0
  4  6  1  0  0  0  0
  4 10  2  0  0  0  0
  4 11  1  0  0  0  0
  5 13  1  0  0  0  0
  6  9  2  0  0  0  0
  6 14  1  0  0  0  0
  7  8  2  0  0  0  0
  7 22  1  0  0  0  0
  8 23  1  0  0  0  0
  9 15  1  0  0  0  0
  9 24  1  0  0  0  0
 10 19  1  0  0  0  0
 10 22  1  0  0  0  0
 11 20  2  0  0  0  0
 11 24  1  0  0  0  0
 12 17  1  0  0  0  0
 12 19  2  0  0  0  0
 12 20  1  0  0  0  0
 13 21  2  0  0  0  0
 14 16  1  0  0  0  0
 15 16  1  0  0  0  0
 18 23  1  0  0  0  0
  1 25  1  0  0  0  0
  2 26  1  0  0  0  0
  3 27  1  0  0  0  0
 13 28  1  0  0  0  0
 14 29  1  0  0  0  0
 14 30  1  0  0  0  0
 15 31  1  0  0  0  0
 15 32  1  0  0  0  0
 16 33  1  0  0  0  0
 16 34  1  0  0  0  0
 17 35  1  0  0  0  0
 17 36  1  0  0  0  0
 17 37  1  0  0  0  0
 18 38  1  0  0  0  0
 18 39  1  0  0  0  0
 18 40  1  0  0  0  0
M  END
> <id>
EN300-18139481

> <smiles>
COC=1C=C(C=O)C=CC1OC=2N=C(C)N=C3SC=4CCCC4C23

> <MDLNUMBER>
MFCD02361312

> <IUPAC Name>
3-methoxy-4-({10-methyl-7-thia-9,11-diazatricyclo[6.4.0.0,2,6]dodeca-1(12),2(6),8,10-tetraen-12-yl}oxy)benzaldehyde

> <CAS>
379247-58-2

> <URL>
https://www.enaminestore.com/catalog/EN300-18139481

> <ROCS_ShapeQuery>
x0446_0A_x1080_0A_x0929_0A_x0812_0A_x0719_0A_x1140_0A_x0528_0A_x0310_0A

> <ROCS_TanimotoCombo>
0.439 

> <ROCS_ShapeTanimoto>
0.262 

> <ROCS_ColorTanimoto>
0.176 

> <ROCS_RefTversky>
0.237 

> <ROCS_RefColorTversky>
0.194 

> <ROCS_RefTverskyCombo>
0.431 

> <ROCS_FitTversky>
1.678 

> <ROCS_FitColorTversky>
0.663 

> <ROCS_FitTverskyCombo>
2.340 

> <ROCS_ColorScore>
-6.939

> <ROCS_Overlap>
2800.784

> <ROCS_Rank>
42                  

$$$$
untitled-dbase-338501_8
  -OEChem-02082415563D

 43 46  0     0  0  0  0  0  0999 V2000
   13.1389   15.1967   22.4886 C   0  0  0  0  0  0  0  0  0  0  0  0
   12.2977   14.7340   23.5004 C   0  0  0  0  0  0  0  0  0  0  0  0
   11.2810   15.1978   20.9442 C   0  0  0  0  0  0  0  0  0  0  0  0
    8.1503   12.6341   24.3444 C   0  0  0  0  0  0  0  0  0  0  0  0
   12.6306   15.4286   21.2105 C   0  0  0  0  0  0  0  0  0  0  0  0
    7.1214   13.4882   24.8661 C   0  0  0  0  0  0  0  0  0  0  0  0
   10.9481   14.5031   23.2341 C   0  0  0  0  0  0  0  0  0  0  0  0
   10.4397   14.7350   21.9560 C   0  0  0  0  0  0  0  0  0  0  0  0
    5.9197   12.8172   25.0011 C   0  0  0  0  0  0  0  0  0  0  0  0
    9.5030   12.8379   24.0471 C   0  0  0  0  0  0  0  0  0  0  0  0
    7.6596   11.3562   24.1030 C   0  0  0  0  0  0  0  0  0  0  0  0
    9.6420   10.6428   23.3692 C   0  0  0  0  0  0  0  0  0  0  0  0
   13.5074   15.9131   20.1562 C   0  0  0  0  0  0  0  0  0  0  0  0
    7.2722   14.9271   25.2642 C   0  0  0  0  0  0  0  0  0  0  0  0
    4.6442   13.4237   25.4970 C   0  0  0  0  0  0  0  0  0  0  0  0
    5.9124   15.6243   25.4239 C   0  0  0  0  0  0  0  0  0  0  0  0
    4.9205   14.7560   26.2100 C   0  0  0  0  0  0  0  0  0  0  0  0
   10.4992    9.5500   22.8224 C   0  0  0  0  0  0  0  0  0  0  0  0
    8.6840   14.7775   20.3525 C   0  0  0  0  0  0  0  0  0  0  0  0
   10.2525   11.8289   23.5543 N   0  0  0  0  0  0  0  0  0  0  0  0
    8.3611   10.3155   23.6132 N   0  0  0  0  0  0  0  0  0  0  0  0
   13.1188   16.1368   19.0064 O   0  0  0  0  0  0  0  0  0  0  0  0
   10.1267   14.0458   24.2431 O   0  0  0  0  0  0  0  0  0  0  0  0
    9.1230   14.5158   21.6840 O   0  0  0  0  0  0  0  0  0  0  0  0
    6.0102   11.1953   24.4981 S   0  0  0  0  0  0  0  0  0  0  0  0
   14.1889   15.3732   22.7075 H   0  0  0  0  0  0  0  0  0  0  0  0
   12.6998   14.5549   24.4938 H   0  0  0  0  0  0  0  0  0  0  0  0
   10.8809   15.3799   19.9494 H   0  0  0  0  0  0  0  0  0  0  0  0
   14.5747   16.0837   20.4167 H   0  0  0  0  0  0  0  0  0  0  0  0
    7.8169   14.9705   26.2153 H   0  0  0  0  0  0  0  0  0  0  0  0
    7.8629   15.4724   24.5202 H   0  0  0  0  0  0  0  0  0  0  0  0
    3.9804   13.6016   24.6417 H   0  0  0  0  0  0  0  0  0  0  0  0
    4.1249   12.7448   26.1828 H   0  0  0  0  0  0  0  0  0  0  0  0
    6.0525   16.5858   25.9303 H   0  0  0  0  0  0  0  0  0  0  0  0
    5.4921   15.8416   24.4335 H   0  0  0  0  0  0  0  0  0  0  0  0
    3.9782   15.2971   26.3517 H   0  0  0  0  0  0  0  0  0  0  0  0
    5.3305   14.5600   27.2092 H   0  0  0  0  0  0  0  0  0  0  0  0
   10.9712    8.9915   23.6394 H   0  0  0  0  0  0  0  0  0  0  0  0
    9.9113    8.8501   22.2153 H   0  0  0  0  0  0  0  0  0  0  0  0
   11.2874    9.9509   22.1727 H   0  0  0  0  0  0  0  0  0  0  0  0
    7.6158   14.5620   20.2712 H   0  0  0  0  0  0  0  0  0  0  0  0
    9.2466   14.1539   19.6531 H   0  0  0  0  0  0  0  0  0  0  0  0
    8.8595   15.8307   20.1208 H   0  0  0  0  0  0  0  0  0  0  0  0
  1  2  2  0  0  0  0
  1  5  1  0  0  0  0
  2  7  1  0  0  0  0
  3  5  2  0  0  0  0
  3  8  1  0  0  0  0
  4  6  1  0  0  0  0
  4 10  2  0  0  0  0
  4 11  1  0  0  0  0
  5 13  1  0  0  0  0
  6  9  2  0  0  0  0
  6 14  1  0  0  0  0
  7  8  2  0  0  0  0
  7 23  1  0  0  0  0
  8 24  1  0  0  0  0
  9 15  1  0  0  0  0
  9 25  1  0  0  0  0
 10 20  1  0  0  0  0
 10 23  1  0  0  0  0
 11 21  2  0  0  0  0
 11 25  1  0  0  0  0
 12 18  1  0  0  0  0
 12 20  2  0  0  0  0
 12 21  1  0  0  0  0
 13 22  2  0  0  0  0
 14 16  1  0  0  0  0
 15 17  1  0  0  0  0
 16 17  1  0  0  0  0
 19 24  1  0  0  0  0
  1 26  1  0  0  0  0
  2 27  1  0  0  0  0
  3 28  1  0  0  0  0
 13 29  1  0  0  0  0
 14 30  1  0  0  0  0
 14 31  1  0  0  0  0
 15 32  1  0  0  0  0
 15 33  1  0  0  0  0
 16 34  1  0  0  0  0
 16 35  1  0  0  0  0
 17 36  1  0  0  0  0
 17 37  1  0  0  0  0
 18 38  1  0  0  0  0
 18 39  1  0  0  0  0
 18 40  1  0  0  0  0
 19 41  1  0  0  0  0
 19 42  1  0  0  0  0
 19 43  1  0  0  0  0
M  END
> <id>
EN300-26181469

> <smiles>
COC=1C=C(C=O)C=CC1OC=2N=C(C)N=C3SC=4CCCCC4C23

> <MDLNUMBER>
MFCD02654876

> <IUPAC Name>
3-methoxy-4-({5-methyl-8-thia-4,6-diazatricyclo[7.4.0.0,2,7]trideca-1(9),2,4,6-tetraen-3-yl}oxy)benzaldehyde

> <CAS>
379250-62-1

> <URL>
https://www.enaminestore.com/catalog/EN300-26181469

> <ROCS_ShapeQuery>
x0446_0A_x1080_0A_x0929_0A_x0812_0A_x0719_0A_x1140_0A_x0528_0A_x0310_0A

> <ROCS_TanimotoCombo>
0.438 

> <ROCS_ShapeTanimoto>
0.262 

> <ROCS_ColorTanimoto>
0.176 

> <ROCS_RefTversky>
0.238 

> <ROCS_RefColorTversky>
0.193 

> <ROCS_RefTverskyCombo>
0.431 

> <ROCS_FitTversky>
1.649 

> <ROCS_FitColorTversky>
0.662 

> <ROCS_FitTverskyCombo>
2.311 

> <ROCS_ColorScore>
-6.917

> <ROCS_Overlap>
2811.794

> <ROCS_Rank>
43                  

$$$$
untitled-dbase-512725_0
  -OEChem-02082415563D

 36 38  0     1  0  0  0  0  0999 V2000
    7.6021   10.6811   24.5822 C   0  0  0  0  0  0  0  0  0  0  0  0
    7.5949   12.0026   24.0934 C   0  0  0  0  0  0  0  0  0  0  0  0
    8.7111   12.1001   23.2887 C   0  0  0  0  0  0  0  0  0  0  0  0
    6.6677   13.0189   24.4849 C   0  0  0  0  0  0  0  0  0  0  0  0
    8.5463   14.1309   21.9082 C   0  0  0  0  0  0  0  0  0  0  0  0
   13.0008   14.2713   22.4130 C   0  0  0  0  0  0  0  0  0  0  0  0
   12.0454   15.2230   21.7488 C   0  0  0  0  0  0  0  0  0  0  0  0
   11.4234   11.6791   22.5932 C   0  0  0  0  0  0  0  0  0  0  0  0
   11.5242   14.1581   22.6734 C   0  0  0  0  0  0  0  0  0  0  0  0
   10.7381   12.9843   22.1201 C   0  0  2  0  0  0  0  0  0  0  0  0
   10.4776   10.4811   22.6007 C   0  0  1  0  0  0  0  0  0  0  0  0
   11.1947    9.2361   23.1248 C   0  0  0  0  0  0  0  0  0  0  0  0
    7.0803   13.9349   21.6130 C   0  0  0  0  0  0  0  0  0  0  0  0
    8.6350    9.9726   24.1281 N   0  0  0  0  0  0  0  0  0  0  0  0
    9.3023   10.8600   23.3718 N   0  0  0  0  0  0  0  0  0  0  0  0
    9.2936   13.0912   22.4887 N   0  0  0  0  0  0  0  0  0  0  0  0
    6.8911   14.2465   24.5212 O   0  0  0  0  0  0  0  0  0  0  0  0
    9.0449   15.2162   21.5820 O   0  0  0  0  0  0  0  0  0  0  0  0
    5.4396   12.5265   24.8394 O   0  0  0  0  0  0  0  0  0  0  0  0
   10.3055    8.2313   23.1399 F   0  0  0  0  0  0  0  0  0  0  0  0
   11.5760    9.4876   24.3864 F   0  0  0  0  0  0  0  0  0  0  0  0
    6.6864   12.7024   21.9789 F   0  0  0  0  0  0  0  0  0  0  0  0
    6.3382   14.8325   22.2851 F   0  0  0  0  0  0  0  0  0  0  0  0
    6.8356   14.0840   20.2991 F   0  0  0  0  0  0  0  0  0  0  0  0
    6.9081   10.2098   25.2640 H   0  0  0  0  0  0  0  0  0  0  0  0
   13.4774   13.5218   21.7934 H   0  0  0  0  0  0  0  0  0  0  0  0
   13.6247   14.6575   23.2097 H   0  0  0  0  0  0  0  0  0  0  0  0
   12.0283   16.2474   22.1001 H   0  0  0  0  0  0  0  0  0  0  0  0
   11.8822   15.1111   20.6840 H   0  0  0  0  0  0  0  0  0  0  0  0
   12.2307   11.4705   21.8854 H   0  0  0  0  0  0  0  0  0  0  0  0
   11.8893   11.8202   23.5681 H   0  0  0  0  0  0  0  0  0  0  0  0
   11.1600   14.4698   23.6449 H   0  0  0  0  0  0  0  0  0  0  0  0
   10.8464   13.0273   21.0454 H   0  0  0  0  0  0  0  0  0  0  0  0
   10.1601   10.3080   21.5896 H   0  0  0  0  0  0  0  0  0  0  0  0
   12.0391    9.0016   22.5005 H   0  0  0  0  0  0  0  0  0  0  0  0
    4.7964   13.2164   25.1091 H   0  0  0  0  0  0  0  0  0  0  0  0
  1  2  1  0  0  0  0
  1 14  2  0  0  0  0
  2  3  2  0  0  0  0
  2  4  1  0  0  0  0
  3 15  1  0  0  0  0
  3 16  1  0  0  0  0
  4 17  2  0  0  0  0
  4 19  1  0  0  0  0
  5 13  1  0  0  0  0
  5 16  1  0  0  0  0
  5 18  2  0  0  0  0
  6  7  1  0  0  0  0
  6  9  1  0  0  0  0
  7  9  1  0  0  0  0
  8 10  1  0  0  0  0
  8 11  1  0  0  0  0
  9 10  1  6  0  0  0
 10 16  1  0  0  0  0
 11 12  1  6  0  0  0
 11 15  1  0  0  0  0
 12 20  1  0  0  0  0
 12 21  1  0  0  0  0
 13 22  1  0  0  0  0
 13 23  1  0  0  0  0
 13 24  1  0  0  0  0
 14 15  1  0  0  0  0
  1 25  1  0  0  0  0
  6 26  1  0  0  0  0
  6 27  1  0  0  0  0
  7 28  1  0  0  0  0
  7 29  1  0  0  0  0
  8 30  1  0  0  0  0
  8 31  1  0  0  0  0
  9 32  1  0  0  0  0
 10 33  1  0  0  0  0
 11 34  1  0  0  0  0
 12 35  1  0  0  0  0
 19 36  1  0  0  0  0
M  END
> <id>
EN300-28298852

> <smiles>
OC(=O)C=1C=NN2[C@@H](C[C@H](C3CC3)N(C(=O)C(F)(F)F)C12)C(F)F |&1:7,9,r|

> <IUPAC Name>
rac-(5R,7S)-5-cyclopropyl-7-(difluoromethyl)-4-(2,2,2-trifluoroacetyl)-4H,5H,6H,7H-pyrazolo[1,5-a]pyrimidine-3-carboxylic acid

> <CAS>
2679832-82-5

> <URL>
https://www.enaminestore.com/catalog/EN300-28298852

> <ROCS_ShapeQuery>
x0446_0A_x1080_0A_x0929_0A_x0812_0A_x0719_0A_x1140_0A_x0528_0A_x0310_0A

> <ROCS_TanimotoCombo>
0.438 

> <ROCS_ShapeTanimoto>
0.284 

> <ROCS_ColorTanimoto>
0.154 

> <ROCS_RefTversky>
0.253 

> <ROCS_RefColorTversky>
0.166 

> <ROCS_RefTverskyCombo>
0.419 

> <ROCS_FitTversky>
1.760 

> <ROCS_FitColorTversky>
0.692 

> <ROCS_FitTverskyCombo>
2.452 

> <ROCS_ColorScore>
-5.910

> <ROCS_Overlap>
2989.866

> <ROCS_Rank>
44                  

$$$$
untitled-dbase-264735_1
  -OEChem-02082415563D

 42 44  0     0  0  0  0  0  0999 V2000
   10.7494   13.6476   22.5384 C   0  0  0  0  0  0  0  0  0  0  0  0
   10.0282    9.2199   21.4524 C   0  0  0  0  0  0  0  0  0  0  0  0
   10.1548    9.1752   22.9861 C   0  0  0  0  0  0  0  0  0  0  0  0
    8.6370    9.8578   21.6194 C   0  0  0  0  0  0  0  0  0  0  0  0
    9.5780   11.7370   24.8590 C   0  0  0  0  0  0  0  0  0  0  0  0
    8.1019   12.4006   23.5299 C   0  0  0  0  0  0  0  0  0  0  0  0
    9.4620   11.6572   23.2982 C   0  0  0  0  0  0  0  0  0  0  0  0
    9.0039   10.1903   23.0746 C   0  0  0  0  0  0  0  0  0  0  0  0
    8.0563   11.3186   24.6902 C   0  0  0  0  0  0  0  0  0  0  0  0
   12.6314   15.7467   22.9878 C   0  0  0  0  0  0  0  0  0  0  0  0
   13.2779   15.4310   20.5813 C   0  0  0  0  0  0  0  0  0  0  0  0
   10.9433   16.1499   21.1651 C   0  0  0  0  0  0  0  0  0  0  0  0
    7.0990   11.4827   25.8352 C   0  0  0  0  0  0  0  0  0  0  0  0
   12.1483   15.3186   21.6028 C   0  0  0  0  0  0  0  0  0  0  0  0
   10.4687   12.2928   22.4979 N   0  0  0  0  0  0  0  0  0  0  0  0
   10.1840   14.4697   23.2519 O   0  0  0  0  0  0  0  0  0  0  0  0
    7.9900    9.9779   24.0945 O   0  0  0  0  0  0  0  0  0  0  0  0
    5.7646   11.5054   25.3391 O   0  0  0  0  0  0  0  0  0  0  0  0
   11.7557   13.9427   21.6623 O   0  0  0  0  0  0  0  0  0  0  0  0
   10.7731    9.8326   20.9312 H   0  0  0  0  0  0  0  0  0  0  0  0
   10.0033    8.2258   20.9837 H   0  0  0  0  0  0  0  0  0  0  0  0
    9.9583    8.1918   23.4362 H   0  0  0  0  0  0  0  0  0  0  0  0
   11.1279    9.5291   23.3593 H   0  0  0  0  0  0  0  0  0  0  0  0
    8.4668   10.7261   20.9646 H   0  0  0  0  0  0  0  0  0  0  0  0
    7.7937    9.1651   21.4867 H   0  0  0  0  0  0  0  0  0  0  0  0
   10.2236   10.9966   25.3399 H   0  0  0  0  0  0  0  0  0  0  0  0
    9.7741   12.7236   25.2939 H   0  0  0  0  0  0  0  0  0  0  0  0
    8.1552   13.4516   23.8353 H   0  0  0  0  0  0  0  0  0  0  0  0
    7.3456   12.2907   22.7473 H   0  0  0  0  0  0  0  0  0  0  0  0
   11.8234   15.6674   23.7240 H   0  0  0  0  0  0  0  0  0  0  0  0
   13.4732   15.1350   23.3283 H   0  0  0  0  0  0  0  0  0  0  0  0
   12.9452   16.7968   22.9852 H   0  0  0  0  0  0  0  0  0  0  0  0
   12.9358   15.1248   19.5861 H   0  0  0  0  0  0  0  0  0  0  0  0
   14.1073   14.7634   20.8415 H   0  0  0  0  0  0  0  0  0  0  0  0
   13.6634   16.4536   20.5160 H   0  0  0  0  0  0  0  0  0  0  0  0
   10.5966   15.8430   20.1716 H   0  0  0  0  0  0  0  0  0  0  0  0
   10.1093   16.0521   21.8675 H   0  0  0  0  0  0  0  0  0  0  0  0
   11.2094   17.2102   21.0858 H   0  0  0  0  0  0  0  0  0  0  0  0
    7.2819   12.4230   26.3730 H   0  0  0  0  0  0  0  0  0  0  0  0
    7.1869   10.6514   26.5479 H   0  0  0  0  0  0  0  0  0  0  0  0
   11.0109   11.7108   21.8600 H   0  0  0  0  0  0  0  0  0  0  0  0
    5.1840   11.6123   26.1090 H   0  0  0  0  0  0  0  0  0  0  0  0
  1 15  1  0  0  0  0
  1 16  2  0  0  0  0
  1 19  1  0  0  0  0
  2  3  1  0  0  0  0
  2  4  1  0  0  0  0
  3  8  1  0  0  0  0
  4  8  1  0  0  0  0
  5  7  1  0  0  0  0
  5  9  1  0  0  0  0
  6  7  1  0  0  0  0
  6  9  1  0  0  0  0
  7  8  1  0  0  0  0
  7 15  1  0  0  0  0
  8 17  1  0  0  0  0
  9 13  1  0  0  0  0
  9 17  1  0  0  0  0
 10 14  1  0  0  0  0
 11 14  1  0  0  0  0
 12 14  1  0  0  0  0
 13 18  1  0  0  0  0
 14 19  1  0  0  0  0
  2 20  1  0  0  0  0
  2 21  1  0  0  0  0
  3 22  1  0  0  0  0
  3 23  1  0  0  0  0
  4 24  1  0  0  0  0
  4 25  1  0  0  0  0
  5 26  1  0  0  0  0
  5 27  1  0  0  0  0
  6 28  1  0  0  0  0
  6 29  1  0  0  0  0
 10 30  1  0  0  0  0
 10 31  1  0  0  0  0
 10 32  1  0  0  0  0
 11 33  1  0  0  0  0
 11 34  1  0  0  0  0
 11 35  1  0  0  0  0
 12 36  1  0  0  0  0
 12 37  1  0  0  0  0
 12 38  1  0  0  0  0
 13 39  1  0  0  0  0
 13 40  1  0  0  0  0
 15 41  1  0  0  0  0
 18 42  1  0  0  0  0
M  END
> <id>
EN300-7548260

> <smiles>
CC(C)(C)OC(=O)NC1(CC2(CO)C1)C3(CCC3)O2

> <IUPAC Name>
tert-butyl N-[4-(hydroxymethyl)-3-oxaspiro[bicyclo[2.1.1]hexane-2,1'-cyclobutane]-1-yl]carbamate

> <CAS>
2490420-80-7

> <URL>
https://www.enaminestore.com/catalog/EN300-7548260

> <ROCS_ShapeQuery>
x0446_0A_x1080_0A_x0929_0A_x0812_0A_x0719_0A_x1140_0A_x0528_0A_x0310_0A

> <ROCS_TanimotoCombo>
0.438 

> <ROCS_ShapeTanimoto>
0.240 

> <ROCS_ColorTanimoto>
0.198 

> <ROCS_RefTversky>
0.217 

> <ROCS_RefColorTversky>
0.234 

> <ROCS_RefTverskyCombo>
0.451 

> <ROCS_FitTversky>
1.792 

> <ROCS_FitColorTversky>
0.564 

> <ROCS_FitTverskyCombo>
2.356 

> <ROCS_ColorScore>
-8.434

> <ROCS_Overlap>
2559.690

> <ROCS_Rank>
45                  

$$$$
untitled-dbase-162717_3
  -OEChem-02082415563D

 47 51  0     1  0  0  0  0  0999 V2000
   13.4598   19.2470   22.8388 C   0  0  0  0  0  0  0  0  0  0  0  0
   12.5115   19.2728   21.8162 C   0  0  0  0  0  0  0  0  0  0  0  0
   13.5150   18.1602   23.7114 C   0  0  0  0  0  0  0  0  0  0  0  0
   11.6185   18.2119   21.6662 C   0  0  0  0  0  0  0  0  0  0  0  0
   12.6220   17.0992   23.5615 C   0  0  0  0  0  0  0  0  0  0  0  0
   11.6737   17.1251   22.5388 C   0  0  0  0  0  0  0  0  0  0  0  0
   10.7563   16.0351   22.3851 C   0  0  0  0  0  0  0  0  0  0  0  0
    5.8299   11.7723   24.4471 C   0  0  0  0  0  0  0  0  0  0  0  0
    9.7295   10.0672   23.7475 C   0  0  0  0  0  0  0  0  0  0  0  0
    7.4318   10.6446   22.9285 C   0  0  0  0  0  0  0  0  0  0  0  0
    8.1118   11.2212   25.2749 C   0  0  0  0  0  0  0  0  0  0  0  0
    9.4280   11.8753   22.0357 C   0  0  0  0  0  0  0  0  0  0  0  0
   10.0937   12.4644   24.3795 C   0  0  0  0  0  0  0  0  0  0  0  0
    7.7906   13.0453   23.5769 C   0  0  0  0  0  0  0  0  0  0  0  0
    8.9107   10.5127   22.5287 C   0  0  1  0  0  0  0  0  0  0  0  0
    9.5883   11.0989   24.8746 C   0  0  2  0  0  0  0  0  0  0  0  0
    7.2794   11.6744   24.0638 C   0  0  0  0  0  0  0  0  0  0  0  0
    9.2846   12.9666   23.1393 C   0  0  0  0  0  0  0  0  0  0  0  0
    9.8102   16.0088   21.4040 N   0  0  0  0  0  0  0  0  0  0  0  0
   10.7473   14.9620   23.1799 N   0  0  0  0  0  0  0  0  0  0  0  0
    9.1510   14.8678   21.5623 N   0  0  0  0  0  0  0  0  0  0  0  0
    9.7357   14.2852   22.6183 N   0  0  0  0  0  0  0  0  0  0  0  0
    3.6678   12.2461   23.5732 N   0  0  0  0  0  0  0  0  0  0  0  0
    5.0305   12.1431   23.3829 N   0  0  0  0  0  0  0  0  0  0  0  0
    5.4449   11.5151   25.5854 O   0  0  0  0  0  0  0  0  0  0  0  0
   14.1559   20.0726   22.9551 H   0  0  0  0  0  0  0  0  0  0  0  0
   12.4691   20.1183   21.1359 H   0  0  0  0  0  0  0  0  0  0  0  0
   14.2543   18.1398   24.5068 H   0  0  0  0  0  0  0  0  0  0  0  0
   10.8850   18.2468   20.8640 H   0  0  0  0  0  0  0  0  0  0  0  0
   12.6781   16.2593   24.2500 H   0  0  0  0  0  0  0  0  0  0  0  0
    9.3858    9.0840   24.0920 H   0  0  0  0  0  0  0  0  0  0  0  0
   10.7851    9.9555   23.4706 H   0  0  0  0  0  0  0  0  0  0  0  0
    6.8338   10.9438   22.0576 H   0  0  0  0  0  0  0  0  0  0  0  0
    7.0429    9.6676   23.2447 H   0  0  0  0  0  0  0  0  0  0  0  0
    7.7476   10.2573   25.6542 H   0  0  0  0  0  0  0  0  0  0  0  0
    8.0042   11.9352   26.1020 H   0  0  0  0  0  0  0  0  0  0  0  0
   10.4784   11.7868   21.7282 H   0  0  0  0  0  0  0  0  0  0  0  0
    8.8701   12.1792   21.1400 H   0  0  0  0  0  0  0  0  0  0  0  0
   10.0248   13.2012   25.1912 H   0  0  0  0  0  0  0  0  0  0  0  0
   11.1595   12.3935   24.1235 H   0  0  0  0  0  0  0  0  0  0  0  0
    7.1797   13.4003   22.7348 H   0  0  0  0  0  0  0  0  0  0  0  0
    7.6689   13.7988   24.3678 H   0  0  0  0  0  0  0  0  0  0  0  0
    9.0106    9.7717   21.7274 H   0  0  0  0  0  0  0  0  0  0  0  0
   10.1791   10.7800   25.7407 H   0  0  0  0  0  0  0  0  0  0  0  0
    3.3412   13.0006   22.9711 H   0  0  0  0  0  0  0  0  0  0  0  0
    3.5262   12.5685   24.5295 H   0  0  0  0  0  0  0  0  0  0  0  0
    5.4397   12.3369   22.4743 H   0  0  0  0  0  0  0  0  0  0  0  0
  1  2  1  0  0  0  0
  1  3  2  0  0  0  0
  2  4  2  0  0  0  0
  3  5  1  0  0  0  0
  4  6  1  0  0  0  0
  5  6  2  0  0  0  0
  6  7  1  0  0  0  0
  7 19  1  0  0  0  0
  7 20  2  0  0  0  0
  8 17  1  0  0  0  0
  8 24  1  0  0  0  0
  8 25  2  0  0  0  0
  9 15  1  0  0  0  0
  9 16  1  0  0  0  0
 10 15  1  0  0  0  0
 10 17  1  0  0  0  0
 11 16  1  0  0  0  0
 11 17  1  0  0  0  0
 12 15  1  0  0  0  0
 12 18  1  0  0  0  0
 13 16  1  0  0  0  0
 13 18  1  0  0  0  0
 14 17  1  0  0  0  0
 14 18  1  0  0  0  0
 18 22  1  0  0  0  0
 19 21  2  0  0  0  0
 20 22  1  0  0  0  0
 21 22  1  0  0  0  0
 23 24  1  0  0  0  0
  1 26  1  0  0  0  0
  2 27  1  0  0  0  0
  3 28  1  0  0  0  0
  4 29  1  0  0  0  0
  5 30  1  0  0  0  0
  9 31  1  0  0  0  0
  9 32  1  0  0  0  0
 10 33  1  0  0  0  0
 10 34  1  0  0  0  0
 11 35  1  0  0  0  0
 11 36  1  0  0  0  0
 12 37  1  0  0  0  0
 12 38  1  0  0  0  0
 13 39  1  0  0  0  0
 13 40  1  0  0  0  0
 14 41  1  0  0  0  0
 14 42  1  0  0  0  0
 15 43  1  0  0  0  0
 16 44  1  0  0  0  0
 23 45  1  0  0  0  0
 23 46  1  0  0  0  0
 24 47  1  0  0  0  0
M  END
> <id>
EN300-228840

> <smiles>
NNC(=O)C1(CC2CC3C1)CC(C2)(C3)N4N=NC(=N4)C=5C=CC=CC5

> <MDLNUMBER>
MFCD03423236

> <IUPAC Name>
3-(5-phenyl-2H-1,2,3,4-tetrazol-2-yl)adamantane-1-carbohydrazide

> <CAS>
438220-62-3

> <URL>
https://www.enaminestore.com/catalog/EN300-228840

> <ROCS_ShapeQuery>
x0446_0A_x1080_0A_x0929_0A_x0812_0A_x0719_0A_x1140_0A_x0528_0A_x0310_0A

> <ROCS_TanimotoCombo>
0.438 

> <ROCS_ShapeTanimoto>
0.230 

> <ROCS_ColorTanimoto>
0.208 

> <ROCS_RefTversky>
0.215 

> <ROCS_RefColorTversky>
0.249 

> <ROCS_RefTverskyCombo>
0.464 

> <ROCS_FitTversky>
1.462 

> <ROCS_FitColorTversky>
0.555 

> <ROCS_FitTverskyCombo>
2.016 

> <ROCS_ColorScore>
-8.999

> <ROCS_Overlap>
2537.466

> <ROCS_Rank>
46                  

$$$$
untitled-dbase-475196_6
  -OEChem-02082415563D

 31 32  0     1  0  0  0  0  0999 V2000
    6.6662   11.8157   25.6303 C   0  0  0  0  0  0  0  0  0  0  0  0
    7.7469   10.1532   24.0388 C   0  0  0  0  0  0  0  0  0  0  0  0
    8.7188   10.3179   22.8584 C   0  0  0  0  0  0  0  0  0  0  0  0
    7.8843   12.4688   23.5016 C   0  0  0  0  0  0  0  0  0  0  0  0
    9.1870   11.7434   25.3007 C   0  0  0  0  0  0  0  0  0  0  0  0
    7.7975   11.5375   24.7022 C   0  0  1  0  0  0  0  0  0  0  0  0
    9.1481   11.7894   22.9979 C   0  0  2  0  0  0  0  0  0  0  0  0
    6.1661   12.3412   27.8792 C   0  0  0  0  0  0  0  0  0  0  0  0
    9.7861   12.3865   21.7677 C   0  0  0  0  0  0  0  0  0  0  0  0
   11.3782   14.2664   20.7766 N   0  0  0  0  0  0  0  0  0  0  0  0
    5.4897   11.8210   25.2943 O   0  0  0  0  0  0  0  0  0  0  0  0
    9.0673   14.8980   21.7133 O   0  0  0  0  0  0  0  0  0  0  0  0
   10.8982   14.1852   23.3025 O   0  0  0  0  0  0  0  0  0  0  0  0
   10.0405   11.8683   24.1378 O   0  0  0  0  0  0  0  0  0  0  0  0
    7.1518   12.0569   26.8813 O   0  0  0  0  0  0  0  0  0  0  0  0
   10.2261   14.0768   22.0191 S   0  0  0  0  0  0  0  0  0  0  0  0
    6.7395    9.9122   23.6791 H   0  0  0  0  0  0  0  0  0  0  0  0
    8.0596    9.3510   24.7162 H   0  0  0  0  0  0  0  0  0  0  0  0
    9.5664    9.6312   22.9531 H   0  0  0  0  0  0  0  0  0  0  0  0
    8.2031   10.1249   21.9115 H   0  0  0  0  0  0  0  0  0  0  0  0
    7.0334   12.3977   22.8156 H   0  0  0  0  0  0  0  0  0  0  0  0
    8.0349   13.5149   23.7924 H   0  0  0  0  0  0  0  0  0  0  0  0
    9.2658   12.6650   25.8873 H   0  0  0  0  0  0  0  0  0  0  0  0
    9.5293   10.9039   25.9136 H   0  0  0  0  0  0  0  0  0  0  0  0
    6.6583   12.5181   28.8386 H   0  0  0  0  0  0  0  0  0  0  0  0
    5.4760   11.4977   27.9617 H   0  0  0  0  0  0  0  0  0  0  0  0
    5.6115   13.2358   27.5863 H   0  0  0  0  0  0  0  0  0  0  0  0
    9.1011   12.3576   20.9142 H   0  0  0  0  0  0  0  0  0  0  0  0
   10.7037   11.8530   21.5004 H   0  0  0  0  0  0  0  0  0  0  0  0
   11.1178   14.8426   19.9668 H   0  0  0  0  0  0  0  0  0  0  0  0
   12.3647   14.3569   21.0491 H   0  0  0  0  0  0  0  0  0  0  0  0
  1  6  1  0  0  0  0
  1 11  2  0  0  0  0
  1 15  1  0  0  0  0
  2  3  1  0  0  0  0
  2  6  1  0  0  0  0
  3  7  1  0  0  0  0
  4  6  1  0  0  0  0
  4  7  1  0  0  0  0
  5  6  1  0  0  0  0
  5 14  1  0  0  0  0
  7  9  1  0  0  0  0
  7 14  1  0  0  0  0
  8 15  1  0  0  0  0
  9 16  1  0  0  0  0
 10 16  1  0  0  0  0
 12 16  2  0  0  0  0
 13 16  2  0  0  0  0
  2 17  1  0  0  0  0
  2 18  1  0  0  0  0
  3 19  1  0  0  0  0
  3 20  1  0  0  0  0
  4 21  1  0  0  0  0
  4 22  1  0  0  0  0
  5 23  1  0  0  0  0
  5 24  1  0  0  0  0
  8 25  1  0  0  0  0
  8 26  1  0  0  0  0
  8 27  1  0  0  0  0
  9 28  1  0  0  0  0
  9 29  1  0  0  0  0
 10 30  1  0  0  0  0
 10 31  1  0  0  0  0
M  END
> <id>
EN300-27733923

> <smiles>
COC(=O)C1(CCC2(CS(=O)(=O)N)C1)CO2

> <IUPAC Name>
methyl 1-(sulfamoylmethyl)-2-oxabicyclo[2.2.1]heptane-4-carboxylate

> <CAS>
2580249-86-9

> <URL>
https://www.enaminestore.com/catalog/EN300-27733923

> <ROCS_ShapeQuery>
x0446_0A_x1080_0A_x0929_0A_x0812_0A_x0719_0A_x1140_0A_x0528_0A_x0310_0A

> <ROCS_TanimotoCombo>
0.438 

> <ROCS_ShapeTanimoto>
0.202 

> <ROCS_ColorTanimoto>
0.236 

> <ROCS_RefTversky>
0.186 

> <ROCS_RefColorTversky>
0.258 

> <ROCS_RefTverskyCombo>
0.445 

> <ROCS_FitTversky>
1.714 

> <ROCS_FitColorTversky>
0.732 

> <ROCS_FitTverskyCombo>
2.446 

> <ROCS_ColorScore>
-9.276

> <ROCS_Overlap>
2197.560

> <ROCS_Rank>
47                  

$$$$
untitled-dbase-45349_7
  -OEChem-02082415563D

 46 49  0     0  0  0  0  0  0999 V2000
    9.9217   11.4469   22.9560 C   0  0  0  0  0  0  0  0  0  0  0  0
    7.9028   12.3527   23.8497 C   0  0  0  0  0  0  0  0  0  0  0  0
    9.0900   12.5525   23.1341 C   0  0  0  0  0  0  0  0  0  0  0  0
    9.5358   10.2217   23.4896 C   0  0  0  0  0  0  0  0  0  0  0  0
    6.7947   13.1138   24.2718 C   0  0  0  0  0  0  0  0  0  0  0  0
    7.6392   11.0786   24.3277 C   0  0  0  0  0  0  0  0  0  0  0  0
    9.4082   13.8531   22.6166 C   0  0  0  0  0  0  0  0  0  0  0  0
   10.4487   15.7220   22.2507 C   0  0  0  0  0  0  0  0  0  0  0  0
   10.8468    8.6819   21.8821 C   0  0  0  0  0  0  0  0  0  0  0  0
    9.8976    7.8079   22.6406 C   0  0  0  0  0  0  0  0  0  0  0  0
   10.4448    9.0533   23.2836 C   0  0  0  0  0  0  0  0  0  0  0  0
    6.5328   14.5468   24.0454 C   0  0  0  0  0  0  0  0  0  0  0  0
   15.1246   12.6884   23.3969 C   0  0  0  0  0  0  0  0  0  0  0  0
    5.7441   10.0872   25.6430 C   0  0  0  0  0  0  0  0  0  0  0  0
   13.8930   13.2108   24.1192 C   0  0  0  0  0  0  0  0  0  0  0  0
   12.8129   13.6557   23.1344 C   0  0  0  0  0  0  0  0  0  0  0  0
   11.5635   14.1416   23.8676 C   0  0  0  0  0  0  0  0  0  0  0  0
    8.4000    9.9790   24.1877 N   0  0  0  0  0  0  0  0  0  0  0  0
    5.9020   12.3928   24.9581 N   0  0  0  0  0  0  0  0  0  0  0  0
    8.6908   14.5430   21.7588 N   0  0  0  0  0  0  0  0  0  0  0  0
    9.3527   15.7320   21.5261 N   0  0  0  0  0  0  0  0  0  0  0  0
    6.4421   11.1607   24.9757 N   0  0  0  0  0  0  0  0  0  0  0  0
   10.5240   14.5577   22.9533 N   0  0  0  0  0  0  0  0  0  0  0  0
   11.6401   16.9649   22.3362 S   0  0  0  0  0  0  0  0  0  0  0  0
   10.8556   11.5411   22.4079 H   0  0  0  0  0  0  0  0  0  0  0  0
   11.8576    8.3200   21.7349 H   0  0  0  0  0  0  0  0  0  0  0  0
   10.4515    9.2491   21.0481 H   0  0  0  0  0  0  0  0  0  0  0  0
    8.8634    7.7892   22.3174 H   0  0  0  0  0  0  0  0  0  0  0  0
   10.2674    6.8564   23.0037 H   0  0  0  0  0  0  0  0  0  0  0  0
   11.1893    8.9127   24.0547 H   0  0  0  0  0  0  0  0  0  0  0  0
    5.9721   14.7071   23.1092 H   0  0  0  0  0  0  0  0  0  0  0  0
    5.9472   14.9971   24.8661 H   0  0  0  0  0  0  0  0  0  0  0  0
    7.4653   15.1346   23.9807 H   0  0  0  0  0  0  0  0  0  0  0  0
   14.8565   11.8467   22.7508 H   0  0  0  0  0  0  0  0  0  0  0  0
   15.5727   13.4672   22.7718 H   0  0  0  0  0  0  0  0  0  0  0  0
   15.8799   12.3424   24.1097 H   0  0  0  0  0  0  0  0  0  0  0  0
    6.0761   10.0649   26.6843 H   0  0  0  0  0  0  0  0  0  0  0  0
    4.6664   10.2646   25.5890 H   0  0  0  0  0  0  0  0  0  0  0  0
    5.9766    9.1411   25.1462 H   0  0  0  0  0  0  0  0  0  0  0  0
   14.1818   14.0520   24.7602 H   0  0  0  0  0  0  0  0  0  0  0  0
   13.4992   12.4242   24.7735 H   0  0  0  0  0  0  0  0  0  0  0  0
   13.2038   14.4568   22.4946 H   0  0  0  0  0  0  0  0  0  0  0  0
   12.5534   12.8221   22.4697 H   0  0  0  0  0  0  0  0  0  0  0  0
   11.7955   14.9935   24.5179 H   0  0  0  0  0  0  0  0  0  0  0  0
   11.1494   13.3515   24.5052 H   0  0  0  0  0  0  0  0  0  0  0  0
   11.1000   17.8593   21.4810 H   0  0  0  0  0  0  0  0  0  0  0  0
  1  3  1  0  0  0  0
  1  4  2  0  0  0  0
  2  3  2  0  0  0  0
  2  5  1  0  0  0  0
  2  6  1  0  0  0  0
  3  7  1  0  0  0  0
  4 11  1  0  0  0  0
  4 18  1  0  0  0  0
  5 12  1  0  0  0  0
  5 19  2  0  0  0  0
  6 18  2  0  0  0  0
  6 22  1  0  0  0  0
  7 20  2  0  0  0  0
  7 23  1  0  0  0  0
  8 21  2  0  0  0  0
  8 23  1  0  0  0  0
  8 24  1  0  0  0  0
  9 10  1  0  0  0  0
  9 11  1  0  0  0  0
 10 11  1  0  0  0  0
 13 15  1  0  0  0  0
 14 22  1  0  0  0  0
 15 16  1  0  0  0  0
 16 17  1  0  0  0  0
 17 23  1  0  0  0  0
 19 22  1  0  0  0  0
 20 21  1  0  0  0  0
  1 25  1  0  0  0  0
  9 26  1  0  0  0  0
  9 27  1  0  0  0  0
 10 28  1  0  0  0  0
 10 29  1  0  0  0  0
 11 30  1  0  0  0  0
 12 31  1  0  0  0  0
 12 32  1  0  0  0  0
 12 33  1  0  0  0  0
 13 34  1  0  0  0  0
 13 35  1  0  0  0  0
 13 36  1  0  0  0  0
 14 37  1  0  0  0  0
 14 38  1  0  0  0  0
 14 39  1  0  0  0  0
 15 40  1  0  0  0  0
 15 41  1  0  0  0  0
 16 42  1  0  0  0  0
 16 43  1  0  0  0  0
 17 44  1  0  0  0  0
 17 45  1  0  0  0  0
 24 46  1  0  0  0  0
M  END
> <id>
EN300-230742

> <smiles>
CCCCN1C(S)=NN=C1C=2C=C(N=C3N(C)N=C(C)C23)C4CC4

> <MDLNUMBER>
MFCD08553262

> <IUPAC Name>
4-butyl-5-{6-cyclopropyl-1,3-dimethyl-1H-pyrazolo[3,4-b]pyridin-4-yl}-4H-1,2,4-triazole-3-thiol

> <CAS>
937598-28-2

> <URL>
https://www.enaminestore.com/catalog/EN300-230742

> <ROCS_ShapeQuery>
x0446_0A_x1080_0A_x0929_0A_x0812_0A_x0719_0A_x1140_0A_x0528_0A_x0310_0A

> <ROCS_TanimotoCombo>
0.437 

> <ROCS_ShapeTanimoto>
0.270 

> <ROCS_ColorTanimoto>
0.167 

> <ROCS_RefTversky>
0.243 

> <ROCS_RefColorTversky>
0.186 

> <ROCS_RefTverskyCombo>
0.429 

> <ROCS_FitTversky>
1.724 

> <ROCS_FitColorTversky>
0.622 

> <ROCS_FitTverskyCombo>
2.345 

> <ROCS_ColorScore>
-6.659

> <ROCS_Overlap>
2867.829

> <ROCS_Rank>
48                  

$$$$
untitled-dbase-339500_5
  -OEChem-02082415563D

 34 37  0     0  0  0  0  0  0999 V2000
   13.2612   10.0561   22.0440 C   0  0  0  0  0  0  0  0  0  0  0  0
   12.4854    8.9036   22.1776 C   0  0  0  0  0  0  0  0  0  0  0  0
   12.7751   11.2959   22.4733 C   0  0  0  0  0  0  0  0  0  0  0  0
   11.2119    8.9790   22.7364 C   0  0  0  0  0  0  0  0  0  0  0  0
   11.5042   11.3875   23.0475 C   0  0  0  0  0  0  0  0  0  0  0  0
    7.6829   11.3212   24.5837 C   0  0  0  0  0  0  0  0  0  0  0  0
   10.7342   10.2200   23.1610 C   0  0  0  0  0  0  0  0  0  0  0  0
    7.5121    9.9365   24.4135 C   0  0  0  0  0  0  0  0  0  0  0  0
    8.9545   11.5831   24.1209 C   0  0  0  0  0  0  0  0  0  0  0  0
   10.7328   15.1149   22.4148 C   0  0  0  0  0  0  0  0  0  0  0  0
   10.8791   12.6503   23.5430 C   0  0  0  0  0  0  0  0  0  0  0  0
    6.7711   12.2902   25.1159 C   0  0  0  0  0  0  0  0  0  0  0  0
    6.3292    9.1234   24.7469 C   0  0  0  0  0  0  0  0  0  0  0  0
   12.1297   17.2308   22.3539 C   0  0  0  0  0  0  0  0  0  0  0  0
    8.5850    9.3470   23.8830 N   0  0  0  0  0  0  0  0  0  0  0  0
    9.5868   14.7556   21.8838 N   0  0  0  0  0  0  0  0  0  0  0  0
    9.1531   15.8458   21.1638 N   0  0  0  0  0  0  0  0  0  0  0  0
   10.0158   16.8507   21.2536 N   0  0  0  0  0  0  0  0  0  0  0  0
    9.6774   12.7284   24.0352 N   0  0  0  0  0  0  0  0  0  0  0  0
    9.4530   10.3657   23.7110 N   0  0  0  0  0  0  0  0  0  0  0  0
   11.0024   16.3913   22.0360 N   0  0  0  0  0  0  0  0  0  0  0  0
    5.6272   12.0164   25.5265 O   0  0  0  0  0  0  0  0  0  0  0  0
   11.7986   14.1443   23.4598 S   0  0  0  0  0  0  0  0  0  0  0  0
   14.2524    9.9901   21.6034 H   0  0  0  0  0  0  0  0  0  0  0  0
   12.8757    7.9476   21.8406 H   0  0  0  0  0  0  0  0  0  0  0  0
   13.4166   12.1619   22.3477 H   0  0  0  0  0  0  0  0  0  0  0  0
   10.6204    8.0728   22.8244 H   0  0  0  0  0  0  0  0  0  0  0  0
    7.1020   13.3608   25.1678 H   0  0  0  0  0  0  0  0  0  0  0  0
    5.6310    9.0652   23.8947 H   0  0  0  0  0  0  0  0  0  0  0  0
    6.5999    8.0900   25.0268 H   0  0  0  0  0  0  0  0  0  0  0  0
    5.7713    9.5335   25.6073 H   0  0  0  0  0  0  0  0  0  0  0  0
   12.8945   17.0724   21.5891 H   0  0  0  0  0  0  0  0  0  0  0  0
   11.8125   18.2772   22.3664 H   0  0  0  0  0  0  0  0  0  0  0  0
   12.5138   16.9613   23.3417 H   0  0  0  0  0  0  0  0  0  0  0  0
  1  2  1  0  0  0  0
  1  3  2  0  0  0  0
  2  4  2  0  0  0  0
  3  5  1  0  0  0  0
  4  7  1  0  0  0  0
  5  7  2  0  0  0  0
  5 11  1  0  0  0  0
  6  8  1  0  0  0  0
  6  9  2  0  0  0  0
  6 12  1  0  0  0  0
  7 20  1  0  0  0  0
  8 13  1  0  0  0  0
  8 15  2  0  0  0  0
  9 19  1  0  0  0  0
  9 20  1  0  0  0  0
 10 16  2  0  0  0  0
 10 21  1  0  0  0  0
 10 23  1  0  0  0  0
 11 19  2  0  0  0  0
 11 23  1  0  0  0  0
 12 22  2  0  0  0  0
 14 21  1  0  0  0  0
 15 20  1  0  0  0  0
 16 17  1  0  0  0  0
 17 18  2  0  0  0  0
 18 21  1  0  0  0  0
  1 24  1  0  0  0  0
  2 25  1  0  0  0  0
  3 26  1  0  0  0  0
  4 27  1  0  0  0  0
 12 28  1  0  0  0  0
 13 29  1  0  0  0  0
 13 30  1  0  0  0  0
 13 31  1  0  0  0  0
 14 32  1  0  0  0  0
 14 33  1  0  0  0  0
 14 34  1  0  0  0  0
M  END
> <id>
EN300-26612826

> <smiles>
CC1=NN2C(N=C(SC3=NN=NN3C)C=4C=CC=CC42)=C1C=O

> <IUPAC Name>
2-methyl-5-[(1-methyl-1H-1,2,3,4-tetrazol-5-yl)sulfanyl]pyrazolo[1,5-a]quinazoline-3-carbaldehyde

> <CAS>
380388-41-0

> <URL>
https://www.enaminestore.com/catalog/EN300-26612826

> <ROCS_ShapeQuery>
x0446_0A_x1080_0A_x0929_0A_x0812_0A_x0719_0A_x1140_0A_x0528_0A_x0310_0A

> <ROCS_TanimotoCombo>
0.437 

> <ROCS_ShapeTanimoto>
0.236 

> <ROCS_ColorTanimoto>
0.201 

> <ROCS_RefTversky>
0.218 

> <ROCS_RefColorTversky>
0.223 

> <ROCS_RefTverskyCombo>
0.441 

> <ROCS_FitTversky>
1.565 

> <ROCS_FitColorTversky>
0.666 

> <ROCS_FitTverskyCombo>
2.231 

> <ROCS_ColorScore>
-8.002

> <ROCS_Overlap>
2574.058

> <ROCS_Rank>
49                  

$$$$
untitled-dbase-495711_3
  -OEChem-02082415563D

 37 40  0     1  0  0  0  0  0999 V2000
   12.0467   13.9921   22.4432 C   0  0  0  0  0  0  0  0  0  0  0  0
   11.2497   15.7190   21.5830 C   0  0  0  0  0  0  0  0  0  0  0  0
    6.3774   12.7470   24.7809 C   0  0  0  0  0  0  0  0  0  0  0  0
    9.3806    9.8179   23.7783 C   0  0  0  0  0  0  0  0  0  0  0  0
    7.3582   11.1591   23.1499 C   0  0  0  0  0  0  0  0  0  0  0  0
    8.3948   11.4359   25.4190 C   0  0  0  0  0  0  0  0  0  0  0  0
    9.5701   11.6427   22.0682 C   0  0  0  0  0  0  0  0  0  0  0  0
   10.5974   11.9362   24.3358 C   0  0  0  0  0  0  0  0  0  0  0  0
    8.5726   13.2823   23.7240 C   0  0  0  0  0  0  0  0  0  0  0  0
    8.6619   10.5335   22.6268 C   0  0  1  0  0  0  0  0  0  0  0  0
    9.6995   10.8202   24.8957 C   0  0  2  0  0  0  0  0  0  0  0  0
    7.6667   12.1633   24.2763 C   0  0  0  0  0  0  0  0  0  0  0  0
    9.9054   12.7021   23.1613 C   0  0  0  0  0  0  0  0  0  0  0  0
   12.4103   15.1602   21.8364 N   0  0  0  0  0  0  0  0  0  0  0  0
   10.2473   14.9118   22.0230 N   0  0  0  0  0  0  0  0  0  0  0  0
   10.7342   13.7930   22.5811 N   0  0  0  0  0  0  0  0  0  0  0  0
   11.0075   16.9402   20.9662 N   0  3  0  0  0  0  0  0  0  0  0  0
   11.9766   17.6600   20.5721 O   0  5  0  0  0  0  0  0  0  0  0  0
    6.0895   13.9345   24.7613 O   0  0  0  0  0  0  0  0  0  0  0  0
    9.8156   17.3432   20.7936 O   0  0  0  0  0  0  0  0  0  0  0  0
    5.5693   11.7737   25.2676 O   0  0  0  0  0  0  0  0  0  0  0  0
   12.7795   13.2743   22.7896 H   0  0  0  0  0  0  0  0  0  0  0  0
    8.7519    9.0077   24.1678 H   0  0  0  0  0  0  0  0  0  0  0  0
   10.3058    9.3549   23.4138 H   0  0  0  0  0  0  0  0  0  0  0  0
    6.8260   11.6569   22.3285 H   0  0  0  0  0  0  0  0  0  0  0  0
    6.6870   10.3705   23.5149 H   0  0  0  0  0  0  0  0  0  0  0  0
    7.7566   10.6503   25.8446 H   0  0  0  0  0  0  0  0  0  0  0  0
    8.6103   12.1323   26.2400 H   0  0  0  0  0  0  0  0  0  0  0  0
   10.4958   11.2036   21.6731 H   0  0  0  0  0  0  0  0  0  0  0  0
    9.0749   12.1315   21.2186 H   0  0  0  0  0  0  0  0  0  0  0  0
   10.8556   12.6410   25.1377 H   0  0  0  0  0  0  0  0  0  0  0  0
   11.5480   11.5078   23.9904 H   0  0  0  0  0  0  0  0  0  0  0  0
    8.0499   13.8365   22.9315 H   0  0  0  0  0  0  0  0  0  0  0  0
    8.7854   14.0212   24.5096 H   0  0  0  0  0  0  0  0  0  0  0  0
    8.4322    9.8141   21.8328 H   0  0  0  0  0  0  0  0  0  0  0  0
   10.2178   10.3065   25.7132 H   0  0  0  0  0  0  0  0  0  0  0  0
    4.7218   12.1354   25.6042 H   0  0  0  0  0  0  0  0  0  0  0  0
  1 14  2  0  0  0  0
  1 16  1  0  0  0  0
  2 14  1  0  0  0  0
  2 15  2  0  0  0  0
  2 17  1  0  0  0  0
  3 12  1  0  0  0  0
  3 19  2  0  0  0  0
  3 21  1  0  0  0  0
  4 10  1  0  0  0  0
  4 11  1  0  0  0  0
  5 10  1  0  0  0  0
  5 12  1  0  0  0  0
  6 11  1  0  0  0  0
  6 12  1  0  0  0  0
  7 10  1  0  0  0  0
  7 13  1  0  0  0  0
  8 11  1  0  0  0  0
  8 13  1  0  0  0  0
  9 12  1  0  0  0  0
  9 13  1  0  0  0  0
 13 16  1  0  0  0  0
 15 16  1  0  0  0  0
 17 18  1  0  0  0  0
 17 20  2  0  0  0  0
  1 22  1  0  0  0  0
  4 23  1  0  0  0  0
  4 24  1  0  0  0  0
  5 25  1  0  0  0  0
  5 26  1  0  0  0  0
  6 27  1  0  0  0  0
  6 28  1  0  0  0  0
  7 29  1  0  0  0  0
  7 30  1  0  0  0  0
  8 31  1  0  0  0  0
  8 32  1  0  0  0  0
  9 33  1  0  0  0  0
  9 34  1  0  0  0  0
 10 35  1  0  0  0  0
 11 36  1  0  0  0  0
 21 37  1  0  0  0  0
M  CHG  2  17   1  18  -1
M  END
> <id>
EN300-227605

> <smiles>
OC(=O)C1(CC2CC3C1)CC(C2)(C3)N4C=NC(=N4)[N+](=O)[O-]

> <MDLNUMBER>
MFCD02090842

> <IUPAC Name>
3-(3-nitro-1H-1,2,4-triazol-1-yl)adamantane-1-carboxylic acid

> <CAS>
445228-83-1

> <Purity>
95

> <URL>
https://www.enaminestore.com/catalog/EN300-227605

> <ROCS_ShapeQuery>
x0446_0A_x1080_0A_x0929_0A_x0812_0A_x0719_0A_x1140_0A_x0528_0A_x0310_0A

> <ROCS_TanimotoCombo>
0.437 

> <ROCS_ShapeTanimoto>
0.258 

> <ROCS_ColorTanimoto>
0.179 

> <ROCS_RefTversky>
0.232 

> <ROCS_RefColorTversky>
0.218 

> <ROCS_RefTverskyCombo>
0.450 

> <ROCS_FitTversky>
1.760 

> <ROCS_FitColorTversky>
0.502 

> <ROCS_FitTverskyCombo>
2.263 

> <ROCS_ColorScore>
-7.853

> <ROCS_Overlap>
2741.192

> <ROCS_Rank>
50                  

$$$$
untitled-dbase-334193_9
  -OEChem-02082415563D

 32 33  0     0  0  0  0  0  0999 V2000
    7.5189   11.5291   24.1020 C   0  0  0  0  0  0  0  0  0  0  0  0
    9.6409   12.0761   23.9187 C   0  0  0  0  0  0  0  0  0  0  0  0
    9.4419   10.7450   23.6728 C   0  0  0  0  0  0  0  0  0  0  0  0
   10.9106   12.7263   23.8762 C   0  0  0  0  0  0  0  0  0  0  0  0
   11.8089   10.4071   23.2755 C   0  0  0  0  0  0  0  0  0  0  0  0
   10.2265    8.4820   23.0985 C   0  0  0  0  0  0  0  0  0  0  0  0
   13.2911   12.3881   23.4798 C   0  0  0  0  0  0  0  0  0  0  0  0
    8.0547   13.9375   24.5223 C   0  0  0  0  0  0  0  0  0  0  0  0
    7.0508   14.5589   23.5618 C   0  0  0  0  0  0  0  0  0  0  0  0
    8.1217   10.4013   23.7865 N   0  0  0  0  0  0  0  0  0  0  0  0
    8.4002   12.5753   24.1941 N   0  0  0  0  0  0  0  0  0  0  0  0
   10.4901    9.8933   23.3522 N   0  0  0  0  0  0  0  0  0  0  0  0
   11.9499   11.8162   23.5464 N   0  0  0  0  0  0  0  0  0  0  0  0
    6.2815   15.3040   21.1319 N   0  0  0  0  0  0  0  0  0  0  0  0
   11.0766   13.9231   24.0982 O   0  0  0  0  0  0  0  0  0  0  0  0
   12.7756    9.6903   22.9938 O   0  0  0  0  0  0  0  0  0  0  0  0
    8.7617   15.4484   21.7985 O   0  0  0  0  0  0  0  0  0  0  0  0
    7.7031   13.1822   21.4388 O   0  0  0  0  0  0  0  0  0  0  0  0
    7.6156   14.5604   21.8896 S   0  0  0  0  0  0  0  0  0  0  0  0
    6.4581   11.6499   24.2746 H   0  0  0  0  0  0  0  0  0  0  0  0
   10.0206    8.3335   22.0282 H   0  0  0  0  0  0  0  0  0  0  0  0
   11.1051    7.8871   23.3887 H   0  0  0  0  0  0  0  0  0  0  0  0
    9.3550    8.1602   23.6876 H   0  0  0  0  0  0  0  0  0  0  0  0
   13.7667   12.3250   24.4696 H   0  0  0  0  0  0  0  0  0  0  0  0
   13.8922   11.8286   22.7479 H   0  0  0  0  0  0  0  0  0  0  0  0
   13.2252   13.4419   23.1712 H   0  0  0  0  0  0  0  0  0  0  0  0
    8.9903   14.5096   24.5094 H   0  0  0  0  0  0  0  0  0  0  0  0
    7.6797   13.9569   25.5522 H   0  0  0  0  0  0  0  0  0  0  0  0
    6.1216   13.9808   23.5668 H   0  0  0  0  0  0  0  0  0  0  0  0
    6.8159   15.5956   23.8206 H   0  0  0  0  0  0  0  0  0  0  0  0
    6.4032   16.2622   20.7818 H   0  0  0  0  0  0  0  0  0  0  0  0
    5.6822   14.7188   20.5370 H   0  0  0  0  0  0  0  0  0  0  0  0
  1 10  2  0  0  0  0
  1 11  1  0  0  0  0
  2  3  2  0  0  0  0
  2  4  1  0  0  0  0
  2 11  1  0  0  0  0
  3 10  1  0  0  0  0
  3 12  1  0  0  0  0
  4 13  1  0  0  0  0
  4 15  2  0  0  0  0
  5 12  1  0  0  0  0
  5 13  1  0  0  0  0
  5 16  2  0  0  0  0
  6 12  1  0  0  0  0
  7 13  1  0  0  0  0
  8  9  1  0  0  0  0
  8 11  1  0  0  0  0
  9 19  1  0  0  0  0
 14 19  1  0  0  0  0
 17 19  2  0  0  0  0
 18 19  2  0  0  0  0
  1 20  1  0  0  0  0
  6 21  1  0  0  0  0
  6 22  1  0  0  0  0
  6 23  1  0  0  0  0
  7 24  1  0  0  0  0
  7 25  1  0  0  0  0
  7 26  1  0  0  0  0
  8 27  1  0  0  0  0
  8 28  1  0  0  0  0
  9 29  1  0  0  0  0
  9 30  1  0  0  0  0
 14 31  1  0  0  0  0
 14 32  1  0  0  0  0
M  END
> <id>
EN300-27733387

> <smiles>
CN1C(=O)N(C)C=2N=CN(CCS(=O)(=O)N)C2C1=O

> <IUPAC Name>
2-(1,3-dimethyl-2,6-dioxo-2,3,6,7-tetrahydro-1H-purin-7-yl)ethane-1-sulfonamide

> <CAS>
2757905-25-0

> <URL>
https://www.enaminestore.com/catalog/EN300-27733387

> <ROCS_ShapeQuery>
x0446_0A_x1080_0A_x0929_0A_x0812_0A_x0719_0A_x1140_0A_x0528_0A_x0310_0A

> <ROCS_TanimotoCombo>
0.437 

> <ROCS_ShapeTanimoto>
0.235 

> <ROCS_ColorTanimoto>
0.202 

> <ROCS_RefTversky>
0.214 

> <ROCS_RefColorTversky>
0.217 

> <ROCS_RefTverskyCombo>
0.430 

> <ROCS_FitTversky>
1.767 

> <ROCS_FitColorTversky>
0.744 

> <ROCS_FitTverskyCombo>
2.511 

> <ROCS_ColorScore>
-7.758

> <ROCS_Overlap>
2520.597

> <ROCS_Rank>
51                  

$$$$
untitled-dbase-572679_1
  -OEChem-02082415563D

 41 43  0     0  0  0  0  0  0999 V2000
   13.3299   16.1599   22.8383 C   0  0  0  0  0  0  0  0  0  0  0  0
   12.6139   14.9903   23.0930 C   0  0  0  0  0  0  0  0  0  0  0  0
   12.7844   17.1469   22.0173 C   0  0  0  0  0  0  0  0  0  0  0  0
    6.9662   10.5797   24.4878 C   0  0  0  0  0  0  0  0  0  0  0  0
   11.3524   14.8076   22.5266 C   0  0  0  0  0  0  0  0  0  0  0  0
    9.0129   11.3880   23.4980 C   0  0  0  0  0  0  0  0  0  0  0  0
    8.6351   12.6989   23.7795 C   0  0  0  0  0  0  0  0  0  0  0  0
    8.1807   10.3226   23.8506 C   0  0  0  0  0  0  0  0  0  0  0  0
    6.5866   11.8924   24.7706 C   0  0  0  0  0  0  0  0  0  0  0  0
   10.8068   15.7945   21.7056 C   0  0  0  0  0  0  0  0  0  0  0  0
    7.4205   12.9534   24.4171 C   0  0  0  0  0  0  0  0  0  0  0  0
   11.5229   16.9642   21.4509 C   0  0  0  0  0  0  0  0  0  0  0  0
   10.6189   13.5621   22.8139 C   0  0  0  0  0  0  0  0  0  0  0  0
   10.2996   11.1471   22.8272 C   0  0  0  0  0  0  0  0  0  0  0  0
   11.1032   12.3481   22.4943 C   0  0  0  0  0  0  0  0  0  0  0  0
    5.4082   12.1574   26.8193 C   0  0  0  0  0  0  0  0  0  0  0  0
    6.2892   14.9184   23.6996 C   0  0  0  0  0  0  0  0  0  0  0  0
   12.2352   12.1677   20.4787 C   0  0  0  0  0  0  0  0  0  0  0  0
   10.6872   10.0177   22.5595 O   0  0  0  0  0  0  0  0  0  0  0  0
    9.4112   13.7820   23.4572 O   0  0  0  0  0  0  0  0  0  0  0  0
    8.5033    9.0237   23.5977 O   0  0  0  0  0  0  0  0  0  0  0  0
    9.5714   15.6140   21.1519 O   0  0  0  0  0  0  0  0  0  0  0  0
    5.3972   12.1240   25.3936 O   0  0  0  0  0  0  0  0  0  0  0  0
    7.0444   14.2340   24.6964 O   0  0  0  0  0  0  0  0  0  0  0  0
   12.3244   12.1621   21.8834 O   0  0  0  0  0  0  0  0  0  0  0  0
   10.8769   18.2031   20.4382 Cl  0  0  0  0  0  0  0  0  0  0  0  0
   14.3118   16.3029   23.2799 H   0  0  0  0  0  0  0  0  0  0  0  0
   13.0536   14.2314   23.7359 H   0  0  0  0  0  0  0  0  0  0  0  0
   13.3544   18.0532   21.8294 H   0  0  0  0  0  0  0  0  0  0  0  0
    6.3129    9.7558   24.7654 H   0  0  0  0  0  0  0  0  0  0  0  0
    4.3977   12.3502   27.1878 H   0  0  0  0  0  0  0  0  0  0  0  0
    6.0880   12.9419   27.1610 H   0  0  0  0  0  0  0  0  0  0  0  0
    5.7523   11.1908   27.1948 H   0  0  0  0  0  0  0  0  0  0  0  0
    6.0548   15.9273   24.0477 H   0  0  0  0  0  0  0  0  0  0  0  0
    5.3671   14.3677   23.4976 H   0  0  0  0  0  0  0  0  0  0  0  0
    6.8824   14.9800   22.7841 H   0  0  0  0  0  0  0  0  0  0  0  0
   13.2285   12.0168   20.0491 H   0  0  0  0  0  0  0  0  0  0  0  0
   11.8225   13.1224   20.1428 H   0  0  0  0  0  0  0  0  0  0  0  0
   11.5762   11.3562   20.1611 H   0  0  0  0  0  0  0  0  0  0  0  0
    9.3649    8.9723   23.1546 H   0  0  0  0  0  0  0  0  0  0  0  0
    9.3346   16.3827   20.6116 H   0  0  0  0  0  0  0  0  0  0  0  0
  1  2  2  0  0  0  0
  1  3  1  0  0  0  0
  2  5  1  0  0  0  0
  3 12  2  0  0  0  0
  4  8  2  0  0  0  0
  4  9  1  0  0  0  0
  5 10  2  0  0  0  0
  5 13  1  0  0  0  0
  6  7  2  0  0  0  0
  6  8  1  0  0  0  0
  6 14  1  0  0  0  0
  7 11  1  0  0  0  0
  7 20  1  0  0  0  0
  8 21  1  0  0  0  0
  9 11  2  0  0  0  0
  9 23  1  0  0  0  0
 10 12  1  0  0  0  0
 10 22  1  0  0  0  0
 11 24  1  0  0  0  0
 12 26  1  0  0  0  0
 13 15  2  0  0  0  0
 13 20  1  0  0  0  0
 14 15  1  0  0  0  0
 14 19  2  0  0  0  0
 15 25  1  0  0  0  0
 16 23  1  0  0  0  0
 17 24  1  0  0  0  0
 18 25  1  0  0  0  0
  1 27  1  0  0  0  0
  2 28  1  0  0  0  0
  3 29  1  0  0  0  0
  4 30  1  0  0  0  0
 16 31  1  0  0  0  0
 16 32  1  0  0  0  0
 16 33  1  0  0  0  0
 17 34  1  0  0  0  0
 17 35  1  0  0  0  0
 17 36  1  0  0  0  0
 18 37  1  0  0  0  0
 18 38  1  0  0  0  0
 18 39  1  0  0  0  0
 21 40  1  0  0  0  0
 22 41  1  0  0  0  0
M  END
> <id>
EN300-24196048

> <smiles>
COC=1C=C(O)C=2C(=O)C(OC)=C(OC2C1OC)C=3C=CC=C(Cl)C3O

> <MDLNUMBER>
MFCD32174337

> <IUPAC Name>
2-(3-chloro-2-hydroxyphenyl)-5-hydroxy-3,7,8-trimethoxy-4H-chromen-4-one

> <CAS>
23363-64-6

> <Purity>
93

> <URL>
https://www.enaminestore.com/catalog/EN300-24196048

> <MP>
210-212

> <ROCS_ShapeQuery>
x0446_0A_x1080_0A_x0929_0A_x0812_0A_x0719_0A_x1140_0A_x0528_0A_x0310_0A

> <ROCS_TanimotoCombo>
0.436 

> <ROCS_ShapeTanimoto>
0.284 

> <ROCS_ColorTanimoto>
0.152 

> <ROCS_RefTversky>
0.254 

> <ROCS_RefColorTversky>
0.181 

> <ROCS_RefTverskyCombo>
0.435 

> <ROCS_FitTversky>
1.706 

> <ROCS_FitColorTversky>
0.490 

> <ROCS_FitTverskyCombo>
2.196 

> <ROCS_ColorScore>
-6.508

> <ROCS_Overlap>
3000.167

> <ROCS_Rank>
52                  

$$$$
untitled-dbase-567881_0
  -OEChem-02082415563D

 40 41  0     0  0  0  0  0  0999 V2000
    6.9497   11.1988   25.7186 C   0  0  0  0  0  0  0  0  0  0  0  0
   10.5544   13.6945   22.6043 C   0  0  0  0  0  0  0  0  0  0  0  0
    9.4526   11.7564   24.9004 C   0  0  0  0  0  0  0  0  0  0  0  0
    8.0209   12.2461   23.4822 C   0  0  0  0  0  0  0  0  0  0  0  0
    8.0103   11.1503   24.6312 C   0  0  0  0  0  0  0  0  0  0  0  0
    9.4358   11.5969   23.3456 C   0  0  0  0  0  0  0  0  0  0  0  0
    9.2440   10.1136   23.0293 C   0  0  0  0  0  0  0  0  0  0  0  0
    8.7338    9.8486   21.6172 C   0  0  0  0  0  0  0  0  0  0  0  0
   10.4672    9.2564   23.3345 C   0  0  0  0  0  0  0  0  0  0  0  0
   12.1595   16.0011   23.1071 C   0  0  0  0  0  0  0  0  0  0  0  0
   13.0147   15.6876   20.7662 C   0  0  0  0  0  0  0  0  0  0  0  0
   10.5789   16.1610   21.1550 C   0  0  0  0  0  0  0  0  0  0  0  0
   11.8306   15.4814   21.7083 C   0  0  0  0  0  0  0  0  0  0  0  0
   10.4296   12.3193   22.5920 N   0  0  0  0  0  0  0  0  0  0  0  0
    7.0510   10.6821   26.8213 O   0  0  0  0  0  0  0  0  0  0  0  0
    9.8517   14.4699   23.2444 O   0  0  0  0  0  0  0  0  0  0  0  0
    8.1994    9.8428   23.9903 O   0  0  0  0  0  0  0  0  0  0  0  0
    5.8653   11.8953   25.2988 O   0  0  0  0  0  0  0  0  0  0  0  0
   11.5857   14.0729   21.7915 O   0  0  0  0  0  0  0  0  0  0  0  0
    9.5022   12.7731   25.3082 H   0  0  0  0  0  0  0  0  0  0  0  0
   10.1380   11.1216   25.4662 H   0  0  0  0  0  0  0  0  0  0  0  0
    7.3121   12.0876   22.6665 H   0  0  0  0  0  0  0  0  0  0  0  0
    7.9697   13.2973   23.7900 H   0  0  0  0  0  0  0  0  0  0  0  0
    8.6196    8.7767   21.4582 H   0  0  0  0  0  0  0  0  0  0  0  0
    9.4402   10.2421   20.8868 H   0  0  0  0  0  0  0  0  0  0  0  0
    7.7684   10.3332   21.4737 H   0  0  0  0  0  0  0  0  0  0  0  0
   10.2627    8.2151   23.0869 H   0  0  0  0  0  0  0  0  0  0  0  0
   10.7157    9.3267   24.3931 H   0  0  0  0  0  0  0  0  0  0  0  0
   11.3181    9.6001   22.7468 H   0  0  0  0  0  0  0  0  0  0  0  0
   11.3121   15.8549   23.7864 H   0  0  0  0  0  0  0  0  0  0  0  0
   13.0347   15.4966   23.5294 H   0  0  0  0  0  0  0  0  0  0  0  0
   12.3574   17.0789   23.0872 H   0  0  0  0  0  0  0  0  0  0  0  0
   12.7831   15.3162   19.7614 H   0  0  0  0  0  0  0  0  0  0  0  0
   13.8895   15.1238   21.1097 H   0  0  0  0  0  0  0  0  0  0  0  0
   13.2911   16.7442   20.6900 H   0  0  0  0  0  0  0  0  0  0  0  0
   10.3427   15.7884   20.1517 H   0  0  0  0  0  0  0  0  0  0  0  0
    9.7101   15.9926   21.7996 H   0  0  0  0  0  0  0  0  0  0  0  0
   10.7341   17.2414   21.0550 H   0  0  0  0  0  0  0  0  0  0  0  0
   11.0768   11.7851   22.0176 H   0  0  0  0  0  0  0  0  0  0  0  0
    5.1674   11.9364   25.9869 H   0  0  0  0  0  0  0  0  0  0  0  0
  1  5  1  1  0  0  0
  1 15  2  0  0  0  0
  1 18  1  0  0  0  0
  2 14  1  0  0  0  0
  2 16  2  0  0  0  0
  2 19  1  0  0  0  0
  3  5  1  0  0  0  0
  3  6  1  0  0  0  0
  4  5  1  0  0  0  0
  4  6  1  0  0  0  0
  5 17  1  0  0  0  0
  6  7  1  0  0  0  0
  6 14  1  1  0  0  0
  7  8  1  0  0  0  0
  7  9  1  0  0  0  0
  7 17  1  0  0  0  0
 10 13  1  0  0  0  0
 11 13  1  0  0  0  0
 12 13  1  0  0  0  0
 13 19  1  0  0  0  0
  3 20  1  0  0  0  0
  3 21  1  0  0  0  0
  4 22  1  0  0  0  0
  4 23  1  0  0  0  0
  8 24  1  0  0  0  0
  8 25  1  0  0  0  0
  8 26  1  0  0  0  0
  9 27  1  0  0  0  0
  9 28  1  0  0  0  0
  9 29  1  0  0  0  0
 10 30  1  0  0  0  0
 10 31  1  0  0  0  0
 10 32  1  0  0  0  0
 11 33  1  0  0  0  0
 11 34  1  0  0  0  0
 11 35  1  0  0  0  0
 12 36  1  0  0  0  0
 12 37  1  0  0  0  0
 12 38  1  0  0  0  0
 14 39  1  0  0  0  0
 18 40  1  0  0  0  0
M  END
> <id>
EN300-37375393

> <smiles>
CC(C)(C)OC(=O)N[C@]1(C[C@]2(C1)C(=O)O)C(C)(C)O2

> <IUPAC Name>
4-{[(tert-butoxy)carbonyl]amino}-3,3-dimethyl-2-oxabicyclo[2.1.1]hexane-1-carboxylic acid

> <CAS>
2503208-35-1

> <URL>
https://www.enaminestore.com/catalog/EN300-37375393

> <ROCS_ShapeQuery>
x0446_0A_x1080_0A_x0929_0A_x0812_0A_x0719_0A_x1140_0A_x0528_0A_x0310_0A

> <ROCS_TanimotoCombo>
0.436 

> <ROCS_ShapeTanimoto>
0.240 

> <ROCS_ColorTanimoto>
0.196 

> <ROCS_RefTversky>
0.217 

> <ROCS_RefColorTversky>
0.236 

> <ROCS_RefTverskyCombo>
0.453 

> <ROCS_FitTversky>
1.795 

> <ROCS_FitColorTversky>
0.536 

> <ROCS_FitTverskyCombo>
2.331 

> <ROCS_ColorScore>
-8.509

> <ROCS_Overlap>
2558.969

> <ROCS_Rank>
53                  

$$$$
untitled-dbase-464775_0
  -OEChem-02082415563D

 40 41  0     0  0  0  0  0  0999 V2000
    6.9497   11.1984   25.7191 C   0  0  0  0  0  0  0  0  0  0  0  0
   10.5544   13.6949   22.6055 C   0  0  0  0  0  0  0  0  0  0  0  0
    9.4532   11.7555   24.9008 C   0  0  0  0  0  0  0  0  0  0  0  0
    8.0209   12.2468   23.4837 C   0  0  0  0  0  0  0  0  0  0  0  0
    8.0106   11.1501   24.6319 C   0  0  0  0  0  0  0  0  0  0  0  0
    9.4355   11.5971   23.3458 C   0  0  0  0  0  0  0  0  0  0  0  0
    9.2429   10.1143   23.0283 C   0  0  0  0  0  0  0  0  0  0  0  0
    8.7315    9.8501   21.6166 C   0  0  0  0  0  0  0  0  0  0  0  0
   10.4664    9.2569   23.3319 C   0  0  0  0  0  0  0  0  0  0  0  0
   12.1606   16.0007   23.1091 C   0  0  0  0  0  0  0  0  0  0  0  0
   13.0144   15.6887   20.7675 C   0  0  0  0  0  0  0  0  0  0  0  0
   10.5790   16.1626   21.1580 C   0  0  0  0  0  0  0  0  0  0  0  0
   11.8307   15.4821   21.7102 C   0  0  0  0  0  0  0  0  0  0  0  0
   10.4292   12.3198   22.5922 N   0  0  0  0  0  0  0  0  0  0  0  0
    7.0507   10.6812   26.8216 O   0  0  0  0  0  0  0  0  0  0  0  0
    9.8523   14.4701   23.2465 O   0  0  0  0  0  0  0  0  0  0  0  0
    8.1990    9.8430   23.9898 O   0  0  0  0  0  0  0  0  0  0  0  0
    5.8656   11.8953   25.2993 O   0  0  0  0  0  0  0  0  0  0  0  0
   11.5854   14.0736   21.7924 O   0  0  0  0  0  0  0  0  0  0  0  0
    9.5034   12.7718   25.3093 H   0  0  0  0  0  0  0  0  0  0  0  0
   10.1389   11.1199   25.4653 H   0  0  0  0  0  0  0  0  0  0  0  0
    7.3110   12.0891   22.6689 H   0  0  0  0  0  0  0  0  0  0  0  0
    7.9701   13.2977   23.7924 H   0  0  0  0  0  0  0  0  0  0  0  0
    8.6170    8.7782   21.4570 H   0  0  0  0  0  0  0  0  0  0  0  0
    9.4374   10.2438   20.8857 H   0  0  0  0  0  0  0  0  0  0  0  0
    7.7661   10.3350   21.4740 H   0  0  0  0  0  0  0  0  0  0  0  0
   10.2617    8.2157   23.0837 H   0  0  0  0  0  0  0  0  0  0  0  0
   10.7157    9.3264   24.3904 H   0  0  0  0  0  0  0  0  0  0  0  0
   11.3168    9.6010   22.7439 H   0  0  0  0  0  0  0  0  0  0  0  0
   11.3135   15.8542   23.7888 H   0  0  0  0  0  0  0  0  0  0  0  0
   13.0359   15.4956   23.5305 H   0  0  0  0  0  0  0  0  0  0  0  0
   12.3588   17.0784   23.0900 H   0  0  0  0  0  0  0  0  0  0  0  0
   12.7821   15.3180   19.7626 H   0  0  0  0  0  0  0  0  0  0  0  0
   13.8892   15.1243   21.1101 H   0  0  0  0  0  0  0  0  0  0  0  0
   13.2911   16.7452   20.6920 H   0  0  0  0  0  0  0  0  0  0  0  0
   10.3421   15.7908   20.1545 H   0  0  0  0  0  0  0  0  0  0  0  0
    9.7105   15.9939   21.8029 H   0  0  0  0  0  0  0  0  0  0  0  0
   10.7344   17.2430   21.0587 H   0  0  0  0  0  0  0  0  0  0  0  0
   11.0758   11.7858   22.0171 H   0  0  0  0  0  0  0  0  0  0  0  0
    5.1675   11.9364   25.9873 H   0  0  0  0  0  0  0  0  0  0  0  0
  1  5  1  0  0  0  0
  1 15  2  0  0  0  0
  1 18  1  0  0  0  0
  2 14  1  0  0  0  0
  2 16  2  0  0  0  0
  2 19  1  0  0  0  0
  3  5  1  0  0  0  0
  3  6  1  0  0  0  0
  4  5  1  0  0  0  0
  4  6  1  0  0  0  0
  5 17  1  0  0  0  0
  6  7  1  0  0  0  0
  6 14  1  0  0  0  0
  7  8  1  0  0  0  0
  7  9  1  0  0  0  0
  7 17  1  0  0  0  0
 10 13  1  0  0  0  0
 11 13  1  0  0  0  0
 12 13  1  0  0  0  0
 13 19  1  0  0  0  0
  3 20  1  0  0  0  0
  3 21  1  0  0  0  0
  4 22  1  0  0  0  0
  4 23  1  0  0  0  0
  8 24  1  0  0  0  0
  8 25  1  0  0  0  0
  8 26  1  0  0  0  0
  9 27  1  0  0  0  0
  9 28  1  0  0  0  0
  9 29  1  0  0  0  0
 10 30  1  0  0  0  0
 10 31  1  0  0  0  0
 10 32  1  0  0  0  0
 11 33  1  0  0  0  0
 11 34  1  0  0  0  0
 11 35  1  0  0  0  0
 12 36  1  0  0  0  0
 12 37  1  0  0  0  0
 12 38  1  0  0  0  0
 14 39  1  0  0  0  0
 18 40  1  0  0  0  0
M  END
> <id>
EN300-27115592

> <smiles>
CC(C)(C)OC(=O)NC1(CC2(C1)C(=O)O)C(C)(C)O2

> <MDLNUMBER>
MFCD32859581

> <IUPAC Name>
4-{[(tert-butoxy)carbonyl]amino}-3,3-dimethyl-2-oxabicyclo[2.1.1]hexane-1-carboxylic acid

> <CAS>
2503208-35-1

> <Purity>
95

> <URL>
https://www.enaminestore.com/catalog/EN300-27115592

> <ROCS_ShapeQuery>
x0446_0A_x1080_0A_x0929_0A_x0812_0A_x0719_0A_x1140_0A_x0528_0A_x0310_0A

> <ROCS_TanimotoCombo>
0.436 

> <ROCS_ShapeTanimoto>
0.240 

> <ROCS_ColorTanimoto>
0.196 

> <ROCS_RefTversky>
0.217 

> <ROCS_RefColorTversky>
0.236 

> <ROCS_RefTverskyCombo>
0.453 

> <ROCS_FitTversky>
1.795 

> <ROCS_FitColorTversky>
0.536 

> <ROCS_FitTverskyCombo>
2.331 

> <ROCS_ColorScore>
-8.509

> <ROCS_Overlap>
2558.992

> <ROCS_Rank>
54                  

$$$$
untitled-dbase-2696_6
  -OEChem-02082415563D

 45 48  0     1  0  0  0  0  0999 V2000
   10.9176   14.1893   21.2721 C   0  0  0  0  0  0  0  0  0  0  0  0
   11.7734   15.1901   20.8124 C   0  0  0  0  0  0  0  0  0  0  0  0
   11.8747   14.3859   23.4818 C   0  0  0  0  0  0  0  0  0  0  0  0
   10.9682   13.7872   22.6069 C   0  0  0  0  0  0  0  0  0  0  0  0
   12.6799   15.7889   21.6872 C   0  0  0  0  0  0  0  0  0  0  0  0
   12.7305   15.3868   23.0220 C   0  0  0  0  0  0  0  0  0  0  0  0
    6.4902   12.8669   24.7043 C   0  0  0  0  0  0  0  0  0  0  0  0
    9.3944    9.8270   23.7376 C   0  0  0  0  0  0  0  0  0  0  0  0
    9.6372   11.6374   22.0231 C   0  0  0  0  0  0  0  0  0  0  0  0
   10.6958   11.9021   24.2814 C   0  0  0  0  0  0  0  0  0  0  0  0
    7.4120   11.2230   23.0979 C   0  0  0  0  0  0  0  0  0  0  0  0
    8.4669   11.4975   25.3588 C   0  0  0  0  0  0  0  0  0  0  0  0
    8.6996   13.3122   23.6364 C   0  0  0  0  0  0  0  0  0  0  0  0
    8.6957   10.5573   22.5824 C   0  0  2  0  0  0  0  0  0  0  0  0
    9.7514   10.8266   24.8463 C   0  0  1  0  0  0  0  0  0  0  0  0
   10.0254   12.6839   23.1131 C   0  0  0  0  0  0  0  0  0  0  0  0
    7.7573   12.2320   24.2056 C   0  0  0  0  0  0  0  0  0  0  0  0
   13.5869   16.8576   21.1717 C   0  0  0  0  0  0  0  0  0  0  0  0
   13.6930   16.0133   23.9768 C   0  0  0  0  0  0  0  0  0  0  0  0
    6.2426   14.0630   24.6667 O   0  0  0  0  0  0  0  0  0  0  0  0
    5.6512   11.9293   25.2086 O   0  0  0  0  0  0  0  0  0  0  0  0
   10.2148   13.7279   20.5833 H   0  0  0  0  0  0  0  0  0  0  0  0
   11.7266   15.4959   19.7704 H   0  0  0  0  0  0  0  0  0  0  0  0
   11.9130   14.0723   24.5224 H   0  0  0  0  0  0  0  0  0  0  0  0
    8.7397    9.0424   24.1362 H   0  0  0  0  0  0  0  0  0  0  0  0
   10.3019    9.3300   23.3736 H   0  0  0  0  0  0  0  0  0  0  0  0
   10.5427   11.1631   21.6205 H   0  0  0  0  0  0  0  0  0  0  0  0
    9.1552   12.1419   21.1746 H   0  0  0  0  0  0  0  0  0  0  0  0
   10.9808   12.5981   25.0818 H   0  0  0  0  0  0  0  0  0  0  0  0
   11.6270   11.4327   23.9366 H   0  0  0  0  0  0  0  0  0  0  0  0
    6.8914   11.7242   22.2712 H   0  0  0  0  0  0  0  0  0  0  0  0
    6.7200   10.4591   23.4768 H   0  0  0  0  0  0  0  0  0  0  0  0
    7.8030   10.7409   25.7976 H   0  0  0  0  0  0  0  0  0  0  0  0
    8.7073   12.1995   26.1681 H   0  0  0  0  0  0  0  0  0  0  0  0
    8.9207   14.0618   24.4097 H   0  0  0  0  0  0  0  0  0  0  0  0
    8.2001   13.8629   22.8265 H   0  0  0  0  0  0  0  0  0  0  0  0
    8.4465    9.8412   21.7913 H   0  0  0  0  0  0  0  0  0  0  0  0
   10.2461   10.3008   25.6707 H   0  0  0  0  0  0  0  0  0  0  0  0
   13.1155   17.8412   21.2809 H   0  0  0  0  0  0  0  0  0  0  0  0
   14.5400   16.8645   21.7147 H   0  0  0  0  0  0  0  0  0  0  0  0
   13.8241   16.6991   20.1124 H   0  0  0  0  0  0  0  0  0  0  0  0
   14.6400   15.4613   23.9784 H   0  0  0  0  0  0  0  0  0  0  0  0
   13.8969   17.0567   23.7066 H   0  0  0  0  0  0  0  0  0  0  0  0
   13.2907   16.0206   24.9974 H   0  0  0  0  0  0  0  0  0  0  0  0
    4.8176   12.3248   25.5417 H   0  0  0  0  0  0  0  0  0  0  0  0
  1  2  2  0  0  0  0
  1  4  1  0  0  0  0
  2  5  1  0  0  0  0
  3  4  2  0  0  0  0
  3  6  1  0  0  0  0
  4 16  1  0  0  0  0
  5  6  2  0  0  0  0
  5 18  1  0  0  0  0
  6 19  1  0  0  0  0
  7 17  1  0  0  0  0
  7 20  2  0  0  0  0
  7 21  1  0  0  0  0
  8 14  1  0  0  0  0
  8 15  1  0  0  0  0
  9 14  1  0  0  0  0
  9 16  1  0  0  0  0
 10 15  1  0  0  0  0
 10 16  1  0  0  0  0
 11 14  1  0  0  0  0
 11 17  1  0  0  0  0
 12 15  1  0  0  0  0
 12 17  1  0  0  0  0
 13 16  1  0  0  0  0
 13 17  1  0  0  0  0
  1 22  1  0  0  0  0
  2 23  1  0  0  0  0
  3 24  1  0  0  0  0
  8 25  1  0  0  0  0
  8 26  1  0  0  0  0
  9 27  1  0  0  0  0
  9 28  1  0  0  0  0
 10 29  1  0  0  0  0
 10 30  1  0  0  0  0
 11 31  1  0  0  0  0
 11 32  1  0  0  0  0
 12 33  1  0  0  0  0
 12 34  1  0  0  0  0
 13 35  1  0  0  0  0
 13 36  1  0  0  0  0
 14 37  1  0  0  0  0
 15 38  1  0  0  0  0
 18 39  1  0  0  0  0
 18 40  1  0  0  0  0
 18 41  1  0  0  0  0
 19 42  1  0  0  0  0
 19 43  1  0  0  0  0
 19 44  1  0  0  0  0
 21 45  1  0  0  0  0
M  END
> <id>
EN300-04200

> <smiles>
CC=1C=CC(=CC1C)C2(CC3CC4CC(C3)(C2)C(=O)O)C4

> <MDLNUMBER>
MFCD01674000

> <IUPAC Name>
3-(3,4-dimethylphenyl)adamantane-1-carboxylic acid

> <CAS>
56531-57-8

> <Purity>
95

> <URL>
https://www.enaminestore.com/catalog/EN300-04200

> <MP>
215-216

> <ROCS_ShapeQuery>
x0446_0A_x1080_0A_x0929_0A_x0812_0A_x0719_0A_x1140_0A_x0528_0A_x0310_0A

> <ROCS_TanimotoCombo>
0.436 

> <ROCS_ShapeTanimoto>
0.257 

> <ROCS_ColorTanimoto>
0.178 

> <ROCS_RefTversky>
0.231 

> <ROCS_RefColorTversky>
0.201 

> <ROCS_RefTverskyCombo>
0.432 

> <ROCS_FitTversky>
1.787 

> <ROCS_FitColorTversky>
0.610 

> <ROCS_FitTverskyCombo>
2.397 

> <ROCS_ColorScore>
-7.205

> <ROCS_Overlap>
2731.553

> <ROCS_Rank>
55                  

$$$$
untitled-dbase-323178_2
  -OEChem-02082415563D

 44 48  0     0  0  0  0  0  0999 V2000
   13.0595   14.4733   24.0906 C   0  0  0  0  0  0  0  0  0  0  0  0
   13.3725   13.3255   21.9879 C   0  0  0  0  0  0  0  0  0  0  0  0
   11.7641   14.8211   23.7080 C   0  0  0  0  0  0  0  0  0  0  0  0
   12.0770   13.6732   21.6052 C   0  0  0  0  0  0  0  0  0  0  0  0
    7.8640   14.8410   21.7257 C   0  0  0  0  0  0  0  0  0  0  0  0
   13.8638   13.7255   23.2306 C   0  0  0  0  0  0  0  0  0  0  0  0
   11.2728   14.4211   22.4653 C   0  0  0  0  0  0  0  0  0  0  0  0
    8.8364   14.0602   22.2982 C   0  0  0  0  0  0  0  0  0  0  0  0
   15.2143   13.3624   23.6293 C   0  0  0  0  0  0  0  0  0  0  0  0
    8.8442    9.7680   22.9706 C   0  0  0  0  0  0  0  0  0  0  0  0
    7.3181   10.7668   24.6905 C   0  0  0  0  0  0  0  0  0  0  0  0
    9.8010   10.8359   25.0264 C   0  0  0  0  0  0  0  0  0  0  0  0
    7.5995   11.8833   22.4648 C   0  0  0  0  0  0  0  0  0  0  0  0
   10.0842   11.9407   22.7921 C   0  0  0  0  0  0  0  0  0  0  0  0
    8.5440   12.9489   24.5280 C   0  0  0  0  0  0  0  0  0  0  0  0
    7.5280   10.5275   23.1887 C   0  0  0  0  0  0  0  0  0  0  0  0
   10.0171   10.5890   23.5244 C   0  0  0  0  0  0  0  0  0  0  0  0
    8.4826   11.5934   25.2539 C   0  0  0  0  0  0  0  0  0  0  0  0
    8.7744   12.7570   22.9998 C   0  0  0  0  0  0  0  0  0  0  0  0
    8.4311   15.9671   21.1969 N   0  0  0  0  0  0  0  0  0  0  0  0
    9.7389   15.9106   21.4237 N   0  0  0  0  0  0  0  0  0  0  0  0
    9.9799   14.7664   22.0840 N   0  0  0  0  0  0  0  0  0  0  0  0
   15.9737   12.7028   22.9142 O   0  0  0  0  0  0  0  0  0  0  0  0
   13.4321   14.7901   25.0614 H   0  0  0  0  0  0  0  0  0  0  0  0
   13.9908   12.7430   21.3097 H   0  0  0  0  0  0  0  0  0  0  0  0
   11.1478   15.4048   24.3877 H   0  0  0  0  0  0  0  0  0  0  0  0
   11.7066   13.3544   20.6339 H   0  0  0  0  0  0  0  0  0  0  0  0
    6.8020   14.6569   21.6665 H   0  0  0  0  0  0  0  0  0  0  0  0
   15.5617   13.7035   24.6289 H   0  0  0  0  0  0  0  0  0  0  0  0
    8.8011    8.7914   23.4686 H   0  0  0  0  0  0  0  0  0  0  0  0
    8.9932    9.5735   21.9014 H   0  0  0  0  0  0  0  0  0  0  0  0
    6.3693   11.2910   24.8586 H   0  0  0  0  0  0  0  0  0  0  0  0
    7.2493    9.8072   25.2176 H   0  0  0  0  0  0  0  0  0  0  0  0
    9.7795    9.8792   25.5629 H   0  0  0  0  0  0  0  0  0  0  0  0
   10.6401   11.4114   25.4367 H   0  0  0  0  0  0  0  0  0  0  0  0
    7.7161   11.7179   21.3850 H   0  0  0  0  0  0  0  0  0  0  0  0
    6.6475   12.4172   22.5893 H   0  0  0  0  0  0  0  0  0  0  0  0
   10.9452   12.5152   23.1598 H   0  0  0  0  0  0  0  0  0  0  0  0
   10.2608   11.7737   21.7210 H   0  0  0  0  0  0  0  0  0  0  0  0
    7.6140   13.5061   24.7041 H   0  0  0  0  0  0  0  0  0  0  0  0
    9.3527   13.5576   24.9547 H   0  0  0  0  0  0  0  0  0  0  0  0
    6.6933    9.9407   22.7889 H   0  0  0  0  0  0  0  0  0  0  0  0
   10.9544   10.0420   23.3723 H   0  0  0  0  0  0  0  0  0  0  0  0
    8.3329   11.7579   26.3267 H   0  0  0  0  0  0  0  0  0  0  0  0
  1  3  2  0  0  0  0
  1  6  1  0  0  0  0
  2  4  1  0  0  0  0
  2  6  2  0  0  0  0
  3  7  1  0  0  0  0
  4  7  2  0  0  0  0
  5  8  2  0  0  0  0
  5 20  1  0  0  0  0
  6  9  1  0  0  0  0
  7 22  1  0  0  0  0
  8 19  1  0  0  0  0
  8 22  1  0  0  0  0
  9 23  2  0  0  0  0
 10 16  1  0  0  0  0
 10 17  1  0  0  0  0
 11 16  1  0  0  0  0
 11 18  1  0  0  0  0
 12 17  1  0  0  0  0
 12 18  1  0  0  0  0
 13 16  1  0  0  0  0
 13 19  1  0  0  0  0
 14 17  1  0  0  0  0
 14 19  1  0  0  0  0
 15 18  1  0  0  0  0
 15 19  1  0  0  0  0
 20 21  2  0  0  0  0
 21 22  1  0  0  0  0
  1 24  1  0  0  0  0
  2 25  1  0  0  0  0
  3 26  1  0  0  0  0
  4 27  1  0  0  0  0
  5 28  1  0  0  0  0
  9 29  1  0  0  0  0
 10 30  1  0  0  0  0
 10 31  1  0  0  0  0
 11 32  1  0  0  0  0
 11 33  1  0  0  0  0
 12 34  1  0  0  0  0
 12 35  1  0  0  0  0
 13 36  1  0  0  0  0
 13 37  1  0  0  0  0
 14 38  1  0  0  0  0
 14 39  1  0  0  0  0
 15 40  1  0  0  0  0
 15 41  1  0  0  0  0
 16 42  1  0  0  0  0
 17 43  1  0  0  0  0
 18 44  1  0  0  0  0
M  END
> <id>
EN300-23811720

> <smiles>
O=CC=1C=CC(=CC1)N2N=NC=C2C3(CC4CC5CC(C4)C3)C5

> <IUPAC Name>
4-[5-(adamantan-1-yl)-1H-1,2,3-triazol-1-yl]benzaldehyde

> <CAS>
68641-05-4

> <URL>
https://www.enaminestore.com/catalog/EN300-23811720

> <ROCS_ShapeQuery>
x0446_0A_x1080_0A_x0929_0A_x0812_0A_x0719_0A_x1140_0A_x0528_0A_x0310_0A

> <ROCS_TanimotoCombo>
0.436 

> <ROCS_ShapeTanimoto>
0.247 

> <ROCS_ColorTanimoto>
0.188 

> <ROCS_RefTversky>
0.226 

> <ROCS_RefColorTversky>
0.216 

> <ROCS_RefTverskyCombo>
0.442 

> <ROCS_FitTversky>
1.622 

> <ROCS_FitColorTversky>
0.594 

> <ROCS_FitTverskyCombo>
2.216 

> <ROCS_ColorScore>
-7.765

> <ROCS_Overlap>
2668.339

> <ROCS_Rank>
56                  

$$$$
untitled-dbase-19782_7
  -OEChem-02082415563D

 43 46  0     0  0  0  0  0  0999 V2000
   11.0185   16.3036   21.2678 C   0  0  0  0  0  0  0  0  0  0  0  0
   10.6429   15.0060   21.5971 C   0  0  0  0  0  0  0  0  0  0  0  0
   11.8932   11.9349   22.8126 C   0  0  0  0  0  0  0  0  0  0  0  0
    4.8919   13.3969   24.9683 C   0  0  0  0  0  0  0  0  0  0  0  0
   12.0868   16.8626   21.9506 C   0  0  0  0  0  0  0  0  0  0  0  0
   12.3914   14.9645   23.2088 C   0  0  0  0  0  0  0  0  0  0  0  0
   10.2137   10.4623   23.6527 C   0  0  0  0  0  0  0  0  0  0  0  0
   11.3372   14.3167   22.5851 C   0  0  0  0  0  0  0  0  0  0  0  0
   11.5165   10.6404   23.1707 C   0  0  0  0  0  0  0  0  0  0  0  0
   10.9705   12.9665   22.9503 C   0  0  0  0  0  0  0  0  0  0  0  0
    5.7959   13.7183   23.9764 C   0  0  0  0  0  0  0  0  0  0  0  0
    5.1820   12.2603   25.6950 C   0  0  0  0  0  0  0  0  0  0  0  0
    9.4053    9.4061   24.1181 C   0  0  0  0  0  0  0  0  0  0  0  0
    9.3951   11.5775   23.7395 C   0  0  0  0  0  0  0  0  0  0  0  0
    7.0731   11.9077   24.4840 C   0  0  0  0  0  0  0  0  0  0  0  0
   12.4463    9.5340   23.0440 C   0  0  0  0  0  0  0  0  0  0  0  0
    5.5669   14.9296   23.1360 C   0  0  0  0  0  0  0  0  0  0  0  0
    4.2617   11.8314   26.7881 C   0  0  0  0  0  0  0  0  0  0  0  0
    9.7591    7.9814   24.2475 C   0  0  0  0  0  0  0  0  0  0  0  0
   12.7854   16.2242   22.9161 N   0  0  0  0  0  0  0  0  0  0  0  0
    9.7018   12.8445   23.4105 N   0  0  0  0  0  0  0  0  0  0  0  0
    6.9012   12.9933   23.7060 N   0  0  0  0  0  0  0  0  0  0  0  0
    6.2678   11.4891   25.4788 N   0  0  0  0  0  0  0  0  0  0  0  0
    8.1799    9.8083   24.4711 N   0  0  0  0  0  0  0  0  0  0  0  0
    8.2035   11.1317   24.2301 N   0  0  0  0  0  0  0  0  0  0  0  0
   12.2759    8.5272   22.3450 O   0  0  0  0  0  0  0  0  0  0  0  0
   13.5720    9.7073   23.7921 O   0  0  0  0  0  0  0  0  0  0  0  0
   10.4928   16.8602   20.5006 H   0  0  0  0  0  0  0  0  0  0  0  0
    9.8077   14.5449   21.0759 H   0  0  0  0  0  0  0  0  0  0  0  0
   12.8931   12.1280   22.4324 H   0  0  0  0  0  0  0  0  0  0  0  0
    4.0118   13.9976   25.1637 H   0  0  0  0  0  0  0  0  0  0  0  0
   12.4188   17.8723   21.7312 H   0  0  0  0  0  0  0  0  0  0  0  0
   12.9743   14.4811   23.9875 H   0  0  0  0  0  0  0  0  0  0  0  0
    6.0432   15.8058   23.5921 H   0  0  0  0  0  0  0  0  0  0  0  0
    5.9762   14.7966   22.1263 H   0  0  0  0  0  0  0  0  0  0  0  0
    4.4952   15.1364   23.0199 H   0  0  0  0  0  0  0  0  0  0  0  0
    3.4921   11.1558   26.3957 H   0  0  0  0  0  0  0  0  0  0  0  0
    4.8070   11.3119   27.5865 H   0  0  0  0  0  0  0  0  0  0  0  0
    3.7651   12.6937   27.2513 H   0  0  0  0  0  0  0  0  0  0  0  0
   10.1859    7.7642   25.2413 H   0  0  0  0  0  0  0  0  0  0  0  0
    8.8848    7.3212   24.1089 H   0  0  0  0  0  0  0  0  0  0  0  0
   10.4992    7.6661   23.4908 H   0  0  0  0  0  0  0  0  0  0  0  0
   14.2079    8.9646   23.7126 H   0  0  0  0  0  0  0  0  0  0  0  0
  1  2  2  0  0  0  0
  1  5  1  0  0  0  0
  2  8  1  0  0  0  0
  3  9  2  0  0  0  0
  3 10  1  0  0  0  0
  4 11  1  0  0  0  0
  4 12  2  0  0  0  0
  5 20  2  0  0  0  0
  6  8  2  0  0  0  0
  6 20  1  0  0  0  0
  7  9  1  0  0  0  0
  7 13  1  0  0  0  0
  7 14  2  0  0  0  0
  8 10  1  0  0  0  0
  9 16  1  0  0  0  0
 10 21  2  0  0  0  0
 11 17  1  0  0  0  0
 11 22  2  0  0  0  0
 12 18  1  0  0  0  0
 12 23  1  0  0  0  0
 13 19  1  0  0  0  0
 13 24  2  0  0  0  0
 14 21  1  0  0  0  0
 14 25  1  0  0  0  0
 15 22  1  0  0  0  0
 15 23  2  0  0  0  0
 15 25  1  0  0  0  0
 16 26  2  0  0  0  0
 16 27  1  0  0  0  0
 24 25  1  0  0  0  0
  1 28  1  0  0  0  0
  2 29  1  0  0  0  0
  3 30  1  0  0  0  0
  4 31  1  0  0  0  0
  5 32  1  0  0  0  0
  6 33  1  0  0  0  0
 17 34  1  0  0  0  0
 17 35  1  0  0  0  0
 17 36  1  0  0  0  0
 18 37  1  0  0  0  0
 18 38  1  0  0  0  0
 18 39  1  0  0  0  0
 19 40  1  0  0  0  0
 19 41  1  0  0  0  0
 19 42  1  0  0  0  0
 27 43  1  0  0  0  0
M  END
> <id>
EN300-00879

> <smiles>
CC1=NN(C=2N=C(C)C=C(C)N2)C=3N=C(C=C(C(=O)O)C13)C=4C=CC=NC4

> <MDLNUMBER>
MFCD06660566

> <IUPAC Name>
1-(4,6-dimethylpyrimidin-2-yl)-3-methyl-6-(pyridin-3-yl)-1H-pyrazolo[3,4-b]pyridine-4-carboxylic acid

> <CAS>
885457-09-0

> <URL>
https://www.enaminestore.com/catalog/EN300-00879

> <ROCS_ShapeQuery>
x0446_0A_x1080_0A_x0929_0A_x0812_0A_x0719_0A_x1140_0A_x0528_0A_x0310_0A

> <ROCS_TanimotoCombo>
0.435 

> <ROCS_ShapeTanimoto>
0.271 

> <ROCS_ColorTanimoto>
0.164 

> <ROCS_RefTversky>
0.247 

> <ROCS_RefColorTversky>
0.193 

> <ROCS_RefTverskyCombo>
0.440 

> <ROCS_FitTversky>
1.584 

> <ROCS_FitColorTversky>
0.522 

> <ROCS_FitTverskyCombo>
2.107 

> <ROCS_ColorScore>
-6.943

> <ROCS_Overlap>
2916.396

> <ROCS_Rank>
57                  

$$$$
untitled-dbase-44211_3
  -OEChem-02082415563D

 47 51  0     1  0  0  0  0  0999 V2000
   13.5153   18.9578   22.8846 C   0  0  0  0  0  0  0  0  0  0  0  0
   12.5174   19.0583   21.9152 C   0  0  0  0  0  0  0  0  0  0  0  0
   13.5803   17.8312   23.7045 C   0  0  0  0  0  0  0  0  0  0  0  0
   11.5843   18.0323   21.7659 C   0  0  0  0  0  0  0  0  0  0  0  0
   12.6471   16.8052   23.5552 C   0  0  0  0  0  0  0  0  0  0  0  0
   11.6492   16.9058   22.5859 C   0  0  0  0  0  0  0  0  0  0  0  0
   10.6906   15.8517   22.4328 C   0  0  0  0  0  0  0  0  0  0  0  0
   12.1436    9.7131   24.0527 C   0  0  0  0  0  0  0  0  0  0  0  0
    7.0568   11.0829   24.2942 C   0  0  0  0  0  0  0  0  0  0  0  0
    8.5542    9.9448   22.6372 C   0  0  0  0  0  0  0  0  0  0  0  0
    9.4073   10.4939   24.9345 C   0  0  0  0  0  0  0  0  0  0  0  0
    7.9251   12.3479   22.3142 C   0  0  0  0  0  0  0  0  0  0  0  0
    8.7593   12.8963   24.6127 C   0  0  0  0  0  0  0  0  0  0  0  0
   10.2780   11.7494   22.9380 C   0  0  0  0  0  0  0  0  0  0  0  0
    7.4337   10.9788   22.8112 C   0  0  2  0  0  0  0  0  0  0  0  0
    8.2785   11.5230   25.1100 C   0  0  1  0  0  0  0  0  0  0  0  0
    9.7994   10.3676   23.4445 C   0  0  0  0  0  0  0  0  0  0  0  0
    9.1759   12.8378   23.1129 C   0  0  0  0  0  0  0  0  0  0  0  0
   10.9145    9.3307   23.2777 C   0  0  0  0  0  0  0  0  0  0  0  0
    9.6952   15.8983   21.5025 N   0  0  0  0  0  0  0  0  0  0  0  0
   10.6878   14.7443   23.1791 N   0  0  0  0  0  0  0  0  0  0  0  0
    9.0087   14.7714   21.6450 N   0  0  0  0  0  0  0  0  0  0  0  0
    9.6276   14.1242   22.6422 N   0  0  0  0  0  0  0  0  0  0  0  0
   13.0785   10.3893   23.6505 O   0  0  0  0  0  0  0  0  0  0  0  0
   12.0744    9.1890   25.3034 O   0  0  0  0  0  0  0  0  0  0  0  0
   14.2426   19.7561   23.0003 H   0  0  0  0  0  0  0  0  0  0  0  0
   12.4675   19.9348   21.2759 H   0  0  0  0  0  0  0  0  0  0  0  0
   14.3581   17.7526   24.4583 H   0  0  0  0  0  0  0  0  0  0  0  0
   10.8123   18.1255   21.0056 H   0  0  0  0  0  0  0  0  0  0  0  0
   12.7114   15.9335   24.2023 H   0  0  0  0  0  0  0  0  0  0  0  0
    6.2390   11.8024   24.4245 H   0  0  0  0  0  0  0  0  0  0  0  0
    6.6902   10.1150   24.6580 H   0  0  0  0  0  0  0  0  0  0  0  0
    8.2021    8.9592   22.9680 H   0  0  0  0  0  0  0  0  0  0  0  0
    8.8054    9.8476   21.5730 H   0  0  0  0  0  0  0  0  0  0  0  0
   10.2773   10.7942   25.5327 H   0  0  0  0  0  0  0  0  0  0  0  0
    9.0796    9.5210   25.3231 H   0  0  0  0  0  0  0  0  0  0  0  0
    8.1668   12.2891   21.2444 H   0  0  0  0  0  0  0  0  0  0  0  0
    7.1160   13.0858   22.4024 H   0  0  0  0  0  0  0  0  0  0  0  0
    7.9668   13.6430   24.7548 H   0  0  0  0  0  0  0  0  0  0  0  0
    9.6100   13.2317   25.2208 H   0  0  0  0  0  0  0  0  0  0  0  0
   11.1812   12.0554   23.4839 H   0  0  0  0  0  0  0  0  0  0  0  0
   10.5701   11.6842   21.8807 H   0  0  0  0  0  0  0  0  0  0  0  0
    6.5570   10.6710   22.2302 H   0  0  0  0  0  0  0  0  0  0  0  0
    8.0071   11.5923   26.1695 H   0  0  0  0  0  0  0  0  0  0  0  0
   10.5522    8.3667   23.6371 H   0  0  0  0  0  0  0  0  0  0  0  0
   11.1690    9.2582   22.2195 H   0  0  0  0  0  0  0  0  0  0  0  0
   12.8625    9.4190   25.8404 H   0  0  0  0  0  0  0  0  0  0  0  0
  1  2  1  0  0  0  0
  1  3  2  0  0  0  0
  2  4  2  0  0  0  0
  3  5  1  0  0  0  0
  4  6  1  0  0  0  0
  5  6  2  0  0  0  0
  6  7  1  0  0  0  0
  7 20  1  0  0  0  0
  7 21  2  0  0  0  0
  8 19  1  0  0  0  0
  8 24  2  0  0  0  0
  8 25  1  0  0  0  0
  9 15  1  0  0  0  0
  9 16  1  0  0  0  0
 10 15  1  0  0  0  0
 10 17  1  0  0  0  0
 11 16  1  0  0  0  0
 11 17  1  0  0  0  0
 12 15  1  0  0  0  0
 12 18  1  0  0  0  0
 13 16  1  0  0  0  0
 13 18  1  0  0  0  0
 14 17  1  0  0  0  0
 14 18  1  0  0  0  0
 17 19  1  0  0  0  0
 18 23  1  0  0  0  0
 20 22  2  0  0  0  0
 21 23  1  0  0  0  0
 22 23  1  0  0  0  0
  1 26  1  0  0  0  0
  2 27  1  0  0  0  0
  3 28  1  0  0  0  0
  4 29  1  0  0  0  0
  5 30  1  0  0  0  0
  9 31  1  0  0  0  0
  9 32  1  0  0  0  0
 10 33  1  0  0  0  0
 10 34  1  0  0  0  0
 11 35  1  0  0  0  0
 11 36  1  0  0  0  0
 12 37  1  0  0  0  0
 12 38  1  0  0  0  0
 13 39  1  0  0  0  0
 13 40  1  0  0  0  0
 14 41  1  0  0  0  0
 14 42  1  0  0  0  0
 15 43  1  0  0  0  0
 16 44  1  0  0  0  0
 19 45  1  0  0  0  0
 19 46  1  0  0  0  0
 25 47  1  0  0  0  0
M  END
> <id>
EN300-228220

> <smiles>
OC(=O)CC1(CC2CC3C1)CC(C2)(C3)N4N=NC(=N4)C=5C=CC=CC5

> <MDLNUMBER>
MFCD03074349

> <IUPAC Name>
2-[3-(5-phenyl-2H-1,2,3,4-tetrazol-2-yl)adamantan-1-yl]acetic acid

> <CAS>
438221-39-7

> <URL>
https://www.enaminestore.com/catalog/EN300-228220

> <ROCS_ShapeQuery>
x0446_0A_x1080_0A_x0929_0A_x0812_0A_x0719_0A_x1140_0A_x0528_0A_x0310_0A

> <ROCS_TanimotoCombo>
0.435 

> <ROCS_ShapeTanimoto>
0.234 

> <ROCS_ColorTanimoto>
0.201 

> <ROCS_RefTversky>
0.218 

> <ROCS_RefColorTversky>
0.242 

> <ROCS_RefTverskyCombo>
0.459 

> <ROCS_FitTversky>
1.484 

> <ROCS_FitColorTversky>
0.547 

> <ROCS_FitTverskyCombo>
2.031 

> <ROCS_ColorScore>
-8.715

> <ROCS_Overlap>
2571.648

> <ROCS_Rank>
58                  

$$$$
untitled-dbase-347994_7
  -OEChem-02082415563D

 44 46  0     0  0  0  0  0  0999 V2000
    6.3103   13.3193   25.3261 C   0  0  0  0  0  0  0  0  0  0  0  0
    6.0203   12.0453   25.8015 C   0  0  0  0  0  0  0  0  0  0  0  0
   12.8472   14.9486   21.6680 C   0  0  0  0  0  0  0  0  0  0  0  0
   13.3780   15.1364   22.9442 C   0  0  0  0  0  0  0  0  0  0  0  0
    7.3187   13.4867   24.3823 C   0  0  0  0  0  0  0  0  0  0  0  0
    6.7386   10.9417   25.3322 C   0  0  0  0  0  0  0  0  0  0  0  0
   11.5400   14.4855   21.5176 C   0  0  0  0  0  0  0  0  0  0  0  0
   12.6018   14.8611   24.0699 C   0  0  0  0  0  0  0  0  0  0  0  0
    8.0365   12.3719   23.9153 C   0  0  0  0  0  0  0  0  0  0  0  0
    7.7528   11.0801   24.3877 C   0  0  0  0  0  0  0  0  0  0  0  0
   10.7637   14.2102   22.6434 C   0  0  0  0  0  0  0  0  0  0  0  0
   11.2946   14.3980   23.9195 C   0  0  0  0  0  0  0  0  0  0  0  0
    9.0560   12.4704   22.9725 C   0  0  0  0  0  0  0  0  0  0  0  0
    9.3978   10.2339   23.0335 C   0  0  0  0  0  0  0  0  0  0  0  0
    8.4782   14.5586   21.7348 C   0  0  0  0  0  0  0  0  0  0  0  0
    6.6906   14.9920   19.5371 C   0  0  0  0  0  0  0  0  0  0  0  0
    4.9396   13.9271   20.9894 C   0  0  0  0  0  0  0  0  0  0  0  0
    6.0345   16.0675   21.7160 C   0  0  0  0  0  0  0  0  0  0  0  0
    6.2281   14.7466   20.9726 C   0  0  0  0  0  0  0  0  0  0  0  0
    8.4329   10.0070   23.9478 N   0  0  0  0  0  0  0  0  0  0  0  0
    9.7566   11.4175   22.5109 N   0  0  0  0  0  0  0  0  0  0  0  0
    9.4002   13.7274   22.4495 N   0  0  0  0  0  0  0  0  0  0  0  0
    8.7246   15.6652   21.2562 O   0  0  0  0  0  0  0  0  0  0  0  0
    7.2332   13.9844   21.6513 O   0  0  0  0  0  0  0  0  0  0  0  0
   10.2958    8.8064   22.4585 S   0  0  0  0  0  0  0  0  0  0  0  0
   10.3699   14.0664   25.3409 Cl  0  0  0  0  0  0  0  0  0  0  0  0
    5.7534   14.1778   25.6889 H   0  0  0  0  0  0  0  0  0  0  0  0
    5.2345   11.9069   26.5388 H   0  0  0  0  0  0  0  0  0  0  0  0
   13.4521   15.1626   20.7918 H   0  0  0  0  0  0  0  0  0  0  0  0
   14.3957   15.4973   23.0608 H   0  0  0  0  0  0  0  0  0  0  0  0
    7.5270   14.4923   24.0256 H   0  0  0  0  0  0  0  0  0  0  0  0
    6.4928    9.9550   25.7205 H   0  0  0  0  0  0  0  0  0  0  0  0
   11.1382   14.3437   20.5173 H   0  0  0  0  0  0  0  0  0  0  0  0
   13.0304   15.0129   25.0574 H   0  0  0  0  0  0  0  0  0  0  0  0
    7.6153   15.5799   19.5208 H   0  0  0  0  0  0  0  0  0  0  0  0
    6.8667   14.0521   19.0038 H   0  0  0  0  0  0  0  0  0  0  0  0
    5.9458   15.5717   18.9800 H   0  0  0  0  0  0  0  0  0  0  0  0
    4.6041   13.7487   22.0174 H   0  0  0  0  0  0  0  0  0  0  0  0
    5.0991   12.9398   20.5410 H   0  0  0  0  0  0  0  0  0  0  0  0
    4.1341   14.4295   20.4441 H   0  0  0  0  0  0  0  0  0  0  0  0
    5.7028   15.8918   22.7457 H   0  0  0  0  0  0  0  0  0  0  0  0
    6.9594   16.6527   21.7460 H   0  0  0  0  0  0  0  0  0  0  0  0
    5.2550   16.6725   21.2389 H   0  0  0  0  0  0  0  0  0  0  0  0
   11.1122    9.4484   21.6091 H   0  0  0  0  0  0  0  0  0  0  0  0
  1  2  1  0  0  0  0
  1  5  2  0  0  0  0
  2  6  2  0  0  0  0
  3  4  1  0  0  0  0
  3  7  2  0  0  0  0
  4  8  2  0  0  0  0
  5  9  1  0  0  0  0
  6 10  1  0  0  0  0
  7 11  1  0  0  0  0
  8 12  1  0  0  0  0
  9 10  1  0  0  0  0
  9 13  2  0  0  0  0
 10 20  2  0  0  0  0
 11 12  2  0  0  0  0
 11 22  1  0  0  0  0
 12 26  1  0  0  0  0
 13 21  1  0  0  0  0
 13 22  1  0  0  0  0
 14 20  1  0  0  0  0
 14 21  2  0  0  0  0
 14 25  1  0  0  0  0
 15 22  1  0  0  0  0
 15 23  2  0  0  0  0
 15 24  1  0  0  0  0
 16 19  1  0  0  0  0
 17 19  1  0  0  0  0
 18 19  1  0  0  0  0
 19 24  1  0  0  0  0
  1 27  1  0  0  0  0
  2 28  1  0  0  0  0
  3 29  1  0  0  0  0
  4 30  1  0  0  0  0
  5 31  1  0  0  0  0
  6 32  1  0  0  0  0
  7 33  1  0  0  0  0
  8 34  1  0  0  0  0
 16 35  1  0  0  0  0
 16 36  1  0  0  0  0
 16 37  1  0  0  0  0
 17 38  1  0  0  0  0
 17 39  1  0  0  0  0
 17 40  1  0  0  0  0
 18 41  1  0  0  0  0
 18 42  1  0  0  0  0
 18 43  1  0  0  0  0
 25 44  1  0  0  0  0
M  END
> <id>
EN300-26666438

> <smiles>
CC(C)(C)OC(=O)N(C=1C=CC=CC1Cl)C=2N=C(S)N=C3C=CC=CC23

> <IUPAC Name>
tert-butyl N-(2-chlorophenyl)-N-(2-sulfanylquinazolin-4-yl)carbamate

> <CAS>
2413876-93-2

> <URL>
https://www.enaminestore.com/catalog/EN300-26666438

> <ROCS_ShapeQuery>
x0446_0A_x1080_0A_x0929_0A_x0812_0A_x0719_0A_x1140_0A_x0528_0A_x0310_0A

> <ROCS_TanimotoCombo>
0.435 

> <ROCS_ShapeTanimoto>
0.282 

> <ROCS_ColorTanimoto>
0.152 

> <ROCS_RefTversky>
0.253 

> <ROCS_RefColorTversky>
0.167 

> <ROCS_RefTverskyCombo>
0.420 

> <ROCS_FitTversky>
1.711 

> <ROCS_FitColorTversky>
0.631 

> <ROCS_FitTverskyCombo>
2.341 

> <ROCS_ColorScore>
-5.974

> <ROCS_Overlap>
2986.914

> <ROCS_Rank>
59                  

$$$$
untitled-dbase-330906_2
  -OEChem-02082415563D

 48 50  0     1  0  0  0  0  0999 V2000
    6.1419   12.6993   25.2310 C   0  0  0  0  0  0  0  0  0  0  0  0
    6.4353   11.3967   25.6035 C   0  0  0  0  0  0  0  0  0  0  0  0
    8.2484   11.3468   23.9698 C   0  0  0  0  0  0  0  0  0  0  0  0
    7.9403   12.6651   23.5704 C   0  0  0  0  0  0  0  0  0  0  0  0
    6.8867   13.3268   24.2287 C   0  0  0  0  0  0  0  0  0  0  0  0
    7.4802   10.7264   24.9773 C   0  0  0  0  0  0  0  0  0  0  0  0
   11.6351   10.1549   23.5472 C   0  0  0  0  0  0  0  0  0  0  0  0
   10.4681   10.1183   24.1988 C   0  0  0  0  0  0  0  0  0  0  0  0
   10.9645   13.3177   23.3509 C   0  0  0  0  0  0  0  0  0  0  0  0
    8.2796   14.4756   21.8719 C   0  0  0  0  0  0  0  0  0  0  0  0
   11.4633   10.6181   22.1377 C   0  0  0  0  0  0  0  0  0  0  0  0
    9.3262   10.5248   23.3105 C   0  0  2  0  0  0  0  0  0  0  0  0
   10.0608   12.7593   22.2829 C   0  0  1  0  0  0  0  0  0  0  0  0
   10.0496   11.2299   22.1532 C   0  0  1  0  0  0  0  0  0  0  0  0
    6.9468   15.7238   19.6597 C   0  0  0  0  0  0  0  0  0  0  0  0
    4.8490   15.4685   21.0174 C   0  0  0  0  0  0  0  0  0  0  0  0
    6.7286   16.8959   21.8763 C   0  0  0  0  0  0  0  0  0  0  0  0
    7.2712   15.5667   24.9292 C   0  0  0  0  0  0  0  0  0  0  0  0
    6.3644   15.6498   21.0704 C   0  0  0  0  0  0  0  0  0  0  0  0
    8.7260   13.3207   22.5527 N   0  0  0  0  0  0  0  0  0  0  0  0
   10.6242   13.5687   24.4974 O   0  0  0  0  0  0  0  0  0  0  0  0
    8.9918   15.3858   21.4543 O   0  0  0  0  0  0  0  0  0  0  0  0
   12.2160   13.5092   22.8669 O   0  0  0  0  0  0  0  0  0  0  0  0
    6.6177   14.6551   24.0516 O   0  0  0  0  0  0  0  0  0  0  0  0
    6.9135   14.5031   21.7307 O   0  0  0  0  0  0  0  0  0  0  0  0
    7.6693    9.0629   25.4461 Cl  0  0  0  0  0  0  0  0  0  0  0  0
    5.3438   13.2343   25.7396 H   0  0  0  0  0  0  0  0  0  0  0  0
    5.8370   10.9206   26.3758 H   0  0  0  0  0  0  0  0  0  0  0  0
   12.5842    9.8706   23.9774 H   0  0  0  0  0  0  0  0  0  0  0  0
   10.3886    9.7975   25.2272 H   0  0  0  0  0  0  0  0  0  0  0  0
   12.2320   11.3393   21.8452 H   0  0  0  0  0  0  0  0  0  0  0  0
   11.5167    9.7594   21.4593 H   0  0  0  0  0  0  0  0  0  0  0  0
    8.8618    9.6140   22.9052 H   0  0  0  0  0  0  0  0  0  0  0  0
   10.4497   13.1488   21.3351 H   0  0  0  0  0  0  0  0  0  0  0  0
    9.5421   10.9916   21.2077 H   0  0  0  0  0  0  0  0  0  0  0  0
    8.0344   15.8540   19.6935 H   0  0  0  0  0  0  0  0  0  0  0  0
    6.7224   14.8207   19.0828 H   0  0  0  0  0  0  0  0  0  0  0  0
    6.5486   16.5889   19.1172 H   0  0  0  0  0  0  0  0  0  0  0  0
    4.4269   15.4149   22.0274 H   0  0  0  0  0  0  0  0  0  0  0  0
    4.5857   14.5267   20.5225 H   0  0  0  0  0  0  0  0  0  0  0  0
    4.3623   16.2897   20.4814 H   0  0  0  0  0  0  0  0  0  0  0  0
    6.3110   16.8431   22.8882 H   0  0  0  0  0  0  0  0  0  0  0  0
    7.8132   17.0218   21.9562 H   0  0  0  0  0  0  0  0  0  0  0  0
    6.3067   17.7958   21.4142 H   0  0  0  0  0  0  0  0  0  0  0  0
    6.9721   16.5885   24.6830 H   0  0  0  0  0  0  0  0  0  0  0  0
    8.3540   15.4583   24.8282 H   0  0  0  0  0  0  0  0  0  0  0  0
    6.9788   15.3416   25.9576 H   0  0  0  0  0  0  0  0  0  0  0  0
   12.8202   13.8748   23.5479 H   0  0  0  0  0  0  0  0  0  0  0  0
  1  2  2  0  0  0  0
  1  5  1  0  0  0  0
  2  6  1  0  0  0  0
  3  4  1  0  0  0  0
  3  6  2  0  0  0  0
  3 12  1  0  0  0  0
  4  5  2  0  0  0  0
  4 20  1  0  0  0  0
  5 24  1  0  0  0  0
  6 26  1  0  0  0  0
  7  8  2  0  0  0  0
  7 11  1  0  0  0  0
  8 12  1  6  0  0  0
  9 13  1  6  0  0  0
  9 21  2  0  0  0  0
  9 23  1  0  0  0  0
 10 20  1  0  0  0  0
 10 22  2  0  0  0  0
 10 25  1  0  0  0  0
 11 14  1  6  0  0  0
 12 14  1  0  0  0  0
 13 14  1  0  0  0  0
 13 20  1  0  0  0  0
 15 19  1  0  0  0  0
 16 19  1  0  0  0  0
 17 19  1  0  0  0  0
 18 24  1  0  0  0  0
 19 25  1  0  0  0  0
  1 27  1  0  0  0  0
  2 28  1  0  0  0  0
  7 29  1  0  0  0  0
  8 30  1  0  0  0  0
 11 31  1  0  0  0  0
 11 32  1  0  0  0  0
 12 33  1  0  0  0  0
 13 34  1  0  0  0  0
 14 35  1  0  0  0  0
 15 36  1  0  0  0  0
 15 37  1  0  0  0  0
 15 38  1  0  0  0  0
 16 39  1  0  0  0  0
 16 40  1  0  0  0  0
 16 41  1  0  0  0  0
 17 42  1  0  0  0  0
 17 43  1  0  0  0  0
 17 44  1  0  0  0  0
 18 45  1  0  0  0  0
 18 46  1  0  0  0  0
 18 47  1  0  0  0  0
 23 48  1  0  0  0  0
M  END
> <id>
EN300-37102300

> <smiles>
COC=1C=CC(Cl)=C2[C@@H]3C=CC[C@@H]3[C@@H](N(C(=O)OC(C)(C)C)C12)C(=O)O |&1:8,12,13,r|

> <IUPAC Name>
rac-(3aR,4S,9bS)-5-[(tert-butoxy)carbonyl]-9-chloro-6-methoxy-3H,3aH,4H,5H,9bH-cyclopenta[c]quinoline-4-carboxylic acid

> <URL>
https://www.enaminestore.com/catalog/EN300-37102300

> <ROCS_ShapeQuery>
x0446_0A_x1080_0A_x0929_0A_x0812_0A_x0719_0A_x1140_0A_x0528_0A_x0310_0A

> <ROCS_TanimotoCombo>
0.434 

> <ROCS_ShapeTanimoto>
0.283 

> <ROCS_ColorTanimoto>
0.151 

> <ROCS_RefTversky>
0.253 

> <ROCS_RefColorTversky>
0.169 

> <ROCS_RefTverskyCombo>
0.423 

> <ROCS_FitTversky>
1.717 

> <ROCS_FitColorTversky>
0.580 

> <ROCS_FitTverskyCombo>
2.296 

> <ROCS_ColorScore>
-6.058

> <ROCS_Overlap>
2995.976

> <ROCS_Rank>
60                  

$$$$
untitled-dbase-420274_9
  -OEChem-02082415563D

 28 29  0     0  0  0  0  0  0999 V2000
   11.9262   10.7567   23.0567 C   0  0  0  0  0  0  0  0  0  0  0  0
   11.9524   12.1320   23.2587 C   0  0  0  0  0  0  0  0  0  0  0  0
   10.7429   10.0503   23.2607 C   0  0  0  0  0  0  0  0  0  0  0  0
   10.7967   12.8017   23.6646 C   0  0  0  0  0  0  0  0  0  0  0  0
    9.5755   10.7107   23.6688 C   0  0  0  0  0  0  0  0  0  0  0  0
    9.5995   12.0990   23.8733 C   0  0  0  0  0  0  0  0  0  0  0  0
    7.3374   10.5399   24.2327 C   0  0  0  0  0  0  0  0  0  0  0  0
    7.2366   12.0077   24.4822 C   0  0  0  0  0  0  0  0  0  0  0  0
    8.3826   14.1824   24.5097 C   0  0  0  0  0  0  0  0  0  0  0  0
    7.3391   14.8814   23.6595 C   0  0  0  0  0  0  0  0  0  0  0  0
    8.4170    9.9447   23.8575 N   0  0  0  0  0  0  0  0  0  0  0  0
    8.3983   12.7425   24.2873 N   0  0  0  0  0  0  0  0  0  0  0  0
    6.3207   15.5636   21.3040 N   0  0  0  0  0  0  0  0  0  0  0  0
    6.1379   12.4178   24.8345 O   0  0  0  0  0  0  0  0  0  0  0  0
    8.8691   15.3771   21.6002 O   0  0  0  0  0  0  0  0  0  0  0  0
    7.4627   13.2777   21.6002 O   0  0  0  0  0  0  0  0  0  0  0  0
    7.6378   14.6812   21.9308 S   0  0  0  0  0  0  0  0  0  0  0  0
   12.8243   10.2345   22.7407 H   0  0  0  0  0  0  0  0  0  0  0  0
   12.8725   12.6870   23.1001 H   0  0  0  0  0  0  0  0  0  0  0  0
   10.7347    8.9745   23.1008 H   0  0  0  0  0  0  0  0  0  0  0  0
   10.8614   13.8761   23.8108 H   0  0  0  0  0  0  0  0  0  0  0  0
    6.4087    9.9685   24.3903 H   0  0  0  0  0  0  0  0  0  0  0  0
    9.3887   14.5597   24.3019 H   0  0  0  0  0  0  0  0  0  0  0  0
    8.1684   14.3377   25.5715 H   0  0  0  0  0  0  0  0  0  0  0  0
    7.3527   15.9589   23.8494 H   0  0  0  0  0  0  0  0  0  0  0  0
    6.3325   14.5007   23.8569 H   0  0  0  0  0  0  0  0  0  0  0  0
    6.5198   16.4659   20.8548 H   0  0  0  0  0  0  0  0  0  0  0  0
    5.5620   15.0361   20.8550 H   0  0  0  0  0  0  0  0  0  0  0  0
  1  2  1  0  0  0  0
  1  3  2  0  0  0  0
  2  4  2  0  0  0  0
  3  5  1  0  0  0  0
  4  6  1  0  0  0  0
  5  6  2  0  0  0  0
  5 11  1  0  0  0  0
  6 12  1  0  0  0  0
  7  8  1  0  0  0  0
  7 11  2  0  0  0  0
  8 12  1  0  0  0  0
  8 14  2  0  0  0  0
  9 10  1  0  0  0  0
  9 12  1  0  0  0  0
 10 17  1  0  0  0  0
 13 17  1  0  0  0  0
 15 17  2  0  0  0  0
 16 17  2  0  0  0  0
  1 18  1  0  0  0  0
  2 19  1  0  0  0  0
  3 20  1  0  0  0  0
  4 21  1  0  0  0  0
  7 22  1  0  0  0  0
  9 23  1  0  0  0  0
  9 24  1  0  0  0  0
 10 25  1  0  0  0  0
 10 26  1  0  0  0  0
 13 27  1  0  0  0  0
 13 28  1  0  0  0  0
M  END
> <id>
EN300-27733407

> <smiles>
NS(=O)(=O)CCN1C(=O)C=NC=2C=CC=CC12

> <IUPAC Name>
2-(2-oxo-1,2-dihydroquinoxalin-1-yl)ethane-1-sulfonamide

> <CAS>
2757906-50-4

> <URL>
https://www.enaminestore.com/catalog/EN300-27733407

> <ROCS_ShapeQuery>
x0446_0A_x1080_0A_x0929_0A_x0812_0A_x0719_0A_x1140_0A_x0528_0A_x0310_0A

> <ROCS_TanimotoCombo>
0.434 

> <ROCS_ShapeTanimoto>
0.233 

> <ROCS_ColorTanimoto>
0.201 

> <ROCS_RefTversky>
0.210 

> <ROCS_RefColorTversky>
0.208 

> <ROCS_RefTverskyCombo>
0.418 

> <ROCS_FitTversky>
1.869 

> <ROCS_FitColorTversky>
0.870 

> <ROCS_FitTverskyCombo>
2.739 

> <ROCS_ColorScore>
-7.410

> <ROCS_Overlap>
2477.330

> <ROCS_Rank>
61                  

$$$$
untitled-dbase-342638_1
  -OEChem-02082415563D

 35 37  0     0  0  0  0  0  0999 V2000
    5.3564   11.6600   24.8093 C   0  0  0  0  0  0  0  0  0  0  0  0
    5.6940   13.0061   24.6586 C   0  0  0  0  0  0  0  0  0  0  0  0
   12.0877    9.8016   23.2887 C   0  0  0  0  0  0  0  0  0  0  0  0
   12.4252   11.1478   23.1378 C   0  0  0  0  0  0  0  0  0  0  0  0
    6.3234   10.6708   24.6282 C   0  0  0  0  0  0  0  0  0  0  0  0
    6.9998   13.3678   24.3262 C   0  0  0  0  0  0  0  0  0  0  0  0
   10.7819    9.4400   23.6211 C   0  0  0  0  0  0  0  0  0  0  0  0
   11.4582   12.1369   23.3189 C   0  0  0  0  0  0  0  0  0  0  0  0
    7.6281   11.0338   24.2960 C   0  0  0  0  0  0  0  0  0  0  0  0
    7.9653   12.3781   24.1455 C   0  0  0  0  0  0  0  0  0  0  0  0
    9.8164   10.4297   23.8017 C   0  0  0  0  0  0  0  0  0  0  0  0
   10.1535   11.7740   23.6511 C   0  0  0  0  0  0  0  0  0  0  0  0
    9.8262   14.8611   20.8473 C   0  0  0  0  0  0  0  0  0  0  0  0
   11.8424   13.5698   23.1511 C   0  0  0  0  0  0  0  0  0  0  0  0
    8.6339   14.4864   20.0046 C   0  0  0  0  0  0  0  0  0  0  0  0
   11.9917   13.9954   21.6859 C   0  0  0  0  0  0  0  0  0  0  0  0
   10.7676   13.8462   20.9455 N   0  0  0  0  0  0  0  0  0  0  0  0
    9.9299   15.9706   21.3677 O   0  0  0  0  0  0  0  0  0  0  0  0
    8.5458   10.0280   24.1278 O   0  0  0  0  0  0  0  0  0  0  0  0
    9.2359   12.7798   23.8195 O   0  0  0  0  0  0  0  0  0  0  0  0
    7.1901   14.5993   21.0232 Cl  0  0  0  0  0  0  0  0  0  0  0  0
    4.3389   11.3819   25.0681 H   0  0  0  0  0  0  0  0  0  0  0  0
    4.9383   13.7733   24.8011 H   0  0  0  0  0  0  0  0  0  0  0  0
   12.8428    9.0339   23.1467 H   0  0  0  0  0  0  0  0  0  0  0  0
   13.4464   11.4146   22.8780 H   0  0  0  0  0  0  0  0  0  0  0  0
    6.0535    9.6253   24.7464 H   0  0  0  0  0  0  0  0  0  0  0  0
    7.2555   14.4175   24.2117 H   0  0  0  0  0  0  0  0  0  0  0  0
   10.5259    8.3907   23.7374 H   0  0  0  0  0  0  0  0  0  0  0  0
   12.7982   13.7535   23.6691 H   0  0  0  0  0  0  0  0  0  0  0  0
   11.1112   14.2277   23.6504 H   0  0  0  0  0  0  0  0  0  0  0  0
    8.5060   15.1447   19.1417 H   0  0  0  0  0  0  0  0  0  0  0  0
    8.7456   13.4565   19.6547 H   0  0  0  0  0  0  0  0  0  0  0  0
   12.2733   15.0511   21.6208 H   0  0  0  0  0  0  0  0  0  0  0  0
   12.7601   13.4050   21.1761 H   0  0  0  0  0  0  0  0  0  0  0  0
   10.5847   12.9619   20.4752 H   0  0  0  0  0  0  0  0  0  0  0  0
  1  2  1  0  0  0  0
  1  5  2  0  0  0  0
  2  6  2  0  0  0  0
  3  4  2  0  0  0  0
  3  7  1  0  0  0  0
  4  8  1  0  0  0  0
  5  9  1  0  0  0  0
  6 10  1  0  0  0  0
  7 11  2  0  0  0  0
  8 12  2  0  0  0  0
  8 14  1  0  0  0  0
  9 10  2  0  0  0  0
  9 19  1  0  0  0  0
 10 20  1  0  0  0  0
 11 12  1  0  0  0  0
 11 19  1  0  0  0  0
 12 20  1  0  0  0  0
 13 15  1  0  0  0  0
 13 17  1  0  0  0  0
 13 18  2  0  0  0  0
 14 16  1  0  0  0  0
 15 21  1  0  0  0  0
 16 17  1  0  0  0  0
  1 22  1  0  0  0  0
  2 23  1  0  0  0  0
  3 24  1  0  0  0  0
  4 25  1  0  0  0  0
  5 26  1  0  0  0  0
  6 27  1  0  0  0  0
  7 28  1  0  0  0  0
 14 29  1  0  0  0  0
 14 30  1  0  0  0  0
 15 31  1  0  0  0  0
 15 32  1  0  0  0  0
 16 33  1  0  0  0  0
 16 34  1  0  0  0  0
 17 35  1  0  0  0  0
M  END
> <id>
EN300-7471205

> <smiles>
ClCC(=O)NCCC=1C=CC=C2OC=3C=CC=CC3OC12

> <MDLNUMBER>
MFCD32858842

> <IUPAC Name>
2-chloro-N-[2-(oxanthren-1-yl)ethyl]acetamide

> <CAS>
2411261-07-7

> <URL>
https://www.enaminestore.com/catalog/EN300-7471205

> <ROCS_ShapeQuery>
x0446_0A_x1080_0A_x0929_0A_x0812_0A_x0719_0A_x1140_0A_x0528_0A_x0310_0A

> <ROCS_TanimotoCombo>
0.434 

> <ROCS_ShapeTanimoto>
0.247 

> <ROCS_ColorTanimoto>
0.187 

> <ROCS_RefTversky>
0.224 

> <ROCS_RefColorTversky>
0.195 

> <ROCS_RefTverskyCombo>
0.419 

> <ROCS_FitTversky>
1.730 

> <ROCS_FitColorTversky>
0.816 

> <ROCS_FitTverskyCombo>
2.546 

> <ROCS_ColorScore>
-6.955

> <ROCS_Overlap>
2644.256

> <ROCS_Rank>
62                  

$$$$
untitled-dbase-51453_3
  -OEChem-02082415563D

 40 43  0     0  0  0  0  0  0999 V2000
   12.6499   16.2766   22.5865 C   0  0  0  0  0  0  0  0  0  0  0  0
   13.2231   15.0137   22.7355 C   0  0  0  0  0  0  0  0  0  0  0  0
   11.3273   16.3962   22.1596 C   0  0  0  0  0  0  0  0  0  0  0  0
   12.4739   13.8705   22.4575 C   0  0  0  0  0  0  0  0  0  0  0  0
   10.5780   15.2530   21.8817 C   0  0  0  0  0  0  0  0  0  0  0  0
   11.1513   13.9901   22.0306 C   0  0  0  0  0  0  0  0  0  0  0  0
    7.0341   11.1062   23.7051 C   0  0  0  0  0  0  0  0  0  0  0  0
    8.6061   11.8629   25.5066 C   0  0  0  0  0  0  0  0  0  0  0  0
    9.0249    9.7030   24.3031 C   0  0  0  0  0  0  0  0  0  0  0  0
    8.5378   13.0740   23.3121 C   0  0  0  0  0  0  0  0  0  0  0  0
    8.9568   10.9118   22.1074 C   0  0  0  0  0  0  0  0  0  0  0  0
   10.5316   11.6691   23.9116 C   0  0  0  0  0  0  0  0  0  0  0  0
    7.6925   12.3315   24.3613 C   0  0  0  0  0  0  0  0  0  0  0  0
    8.1133   10.1605   23.1517 C   0  0  0  0  0  0  0  0  0  0  0  0
    9.6937   10.9209   24.9629 C   0  0  0  0  0  0  0  0  0  0  0  0
    9.6344   12.1435   22.7480 C   0  0  0  0  0  0  0  0  0  0  0  0
    9.2407   15.3973   21.4495 N   0  0  0  0  0  0  0  0  0  0  0  0
   10.4253   12.8425   21.7602 N   0  0  0  0  0  0  0  0  0  0  0  0
   13.2332   17.1666   22.8034 H   0  0  0  0  0  0  0  0  0  0  0  0
   14.2526   14.9207   23.0687 H   0  0  0  0  0  0  0  0  0  0  0  0
   10.8916   17.3858   22.0470 H   0  0  0  0  0  0  0  0  0  0  0  0
   12.9312   12.8917   22.5779 H   0  0  0  0  0  0  0  0  0  0  0  0
    6.4132   10.5772   24.4385 H   0  0  0  0  0  0  0  0  0  0  0  0
    6.3667   11.4277   22.8960 H   0  0  0  0  0  0  0  0  0  0  0  0
    9.0701   12.7291   25.9941 H   0  0  0  0  0  0  0  0  0  0  0  0
    8.0126   11.3472   26.2716 H   0  0  0  0  0  0  0  0  0  0  0  0
    8.4389    9.1493   25.0469 H   0  0  0  0  0  0  0  0  0  0  0  0
    9.7903    9.0146   23.9243 H   0  0  0  0  0  0  0  0  0  0  0  0
    7.8857   13.4296   22.5035 H   0  0  0  0  0  0  0  0  0  0  0  0
    8.9914   13.9627   23.7700 H   0  0  0  0  0  0  0  0  0  0  0  0
    9.7143   10.2339   21.6923 H   0  0  0  0  0  0  0  0  0  0  0  0
    8.3149   11.2219   21.2723 H   0  0  0  0  0  0  0  0  0  0  0  0
   11.0291   12.5267   24.3831 H   0  0  0  0  0  0  0  0  0  0  0  0
   11.3235   11.0068   23.5379 H   0  0  0  0  0  0  0  0  0  0  0  0
    6.9194   13.0008   24.7548 H   0  0  0  0  0  0  0  0  0  0  0  0
    7.6387    9.2891   22.6869 H   0  0  0  0  0  0  0  0  0  0  0  0
   10.3398   10.5891   25.7833 H   0  0  0  0  0  0  0  0  0  0  0  0
    8.8436   16.3122   21.3968 H   0  0  0  0  0  0  0  0  0  0  0  0
    8.6895   14.5786   21.2958 H   0  0  0  0  0  0  0  0  0  0  0  0
   10.4488   12.4689   20.8188 H   0  0  0  0  0  0  0  0  0  0  0  0
  1  2  1  0  0  0  0
  1  3  2  0  0  0  0
  2  4  2  0  0  0  0
  3  5  1  0  0  0  0
  4  6  1  0  0  0  0
  5  6  2  0  0  0  0
  5 17  1  0  0  0  0
  6 18  1  0  0  0  0
  7 13  1  0  0  0  0
  7 14  1  0  0  0  0
  8 13  1  0  0  0  0
  8 15  1  0  0  0  0
  9 14  1  0  0  0  0
  9 15  1  0  0  0  0
 10 13  1  0  0  0  0
 10 16  1  0  0  0  0
 11 14  1  0  0  0  0
 11 16  1  0  0  0  0
 12 15  1  0  0  0  0
 12 16  1  0  0  0  0
 16 18  1  0  0  0  0
  1 19  1  0  0  0  0
  2 20  1  0  0  0  0
  3 21  1  0  0  0  0
  4 22  1  0  0  0  0
  7 23  1  0  0  0  0
  7 24  1  0  0  0  0
  8 25  1  0  0  0  0
  8 26  1  0  0  0  0
  9 27  1  0  0  0  0
  9 28  1  0  0  0  0
 10 29  1  0  0  0  0
 10 30  1  0  0  0  0
 11 31  1  0  0  0  0
 11 32  1  0  0  0  0
 12 33  1  0  0  0  0
 12 34  1  0  0  0  0
 13 35  1  0  0  0  0
 14 36  1  0  0  0  0
 15 37  1  0  0  0  0
 17 38  1  0  0  0  0
 17 39  1  0  0  0  0
 18 40  1  0  0  0  0
M  END
> <id>
EN300-55862

> <smiles>
NC=1C=CC=CC1NC2(CC3CC4CC(C3)C2)C4

> <IUPAC Name>
N1-(adamantan-1-yl)benzene-1,2-diamine

> <CAS>
160917-93-1

> <Purity>
95

> <URL>
https://www.enaminestore.com/catalog/EN300-55862

> <ROCS_ShapeQuery>
x0446_0A_x1080_0A_x0929_0A_x0812_0A_x0719_0A_x1140_0A_x0528_0A_x0310_0A

> <ROCS_TanimotoCombo>
0.434 

> <ROCS_ShapeTanimoto>
0.233 

> <ROCS_ColorTanimoto>
0.201 

> <ROCS_RefTversky>
0.211 

> <ROCS_RefColorTversky>
0.222 

> <ROCS_RefTverskyCombo>
0.434 

> <ROCS_FitTversky>
1.778 

> <ROCS_FitColorTversky>
0.675 

> <ROCS_FitTverskyCombo>
2.454 

> <ROCS_ColorScore>
-7.975

> <ROCS_Overlap>
2493.862

> <ROCS_Rank>
63                  

$$$$
untitled-dbase-292406_6
  -OEChem-02082415563D

 55 58  0     1  0  0  0  0  0999 V2000
    9.5780   18.2428   19.5259 C   0  0  0  0  0  0  0  0  0  0  0  0
    8.4947   15.5833   20.5028 C   0  0  0  0  0  0  0  0  0  0  0  0
    5.7475   13.3269   24.6538 C   0  0  0  0  0  0  0  0  0  0  0  0
    8.4699    9.8356   25.1886 C   0  0  0  0  0  0  0  0  0  0  0  0
    5.8770   12.6513   26.0234 C   0  0  0  0  0  0  0  0  0  0  0  0
    9.9001   10.1405   24.7782 C   0  0  0  0  0  0  0  0  0  0  0  0
    6.1678   12.4322   23.4597 C   0  0  1  0  0  0  0  0  0  0  0  0
    7.4341   10.9641   25.0506 C   0  0  1  0  0  0  0  0  0  0  0  0
    7.2150   11.9123   26.2457 C   0  0  2  0  0  0  0  0  0  0  0  0
    6.1989   13.1965   22.1098 C   0  0  2  0  0  0  0  0  0  0  0  0
    8.6150   12.8764   23.6434 C   0  0  2  0  0  0  0  0  0  0  0  0
    7.3945   14.1616   22.0422 C   0  0  1  0  0  0  0  0  0  0  0  0
    7.5489   11.7673   23.7256 C   0  0  2  0  0  0  0  0  0  0  0  0
   10.0556   11.0198   23.5322 C   0  0  2  0  0  0  0  0  0  0  0  0
    7.1722   11.2014   27.6004 C   0  0  0  0  0  0  0  0  0  0  0  0
    4.8795   13.9083   21.7981 C   0  0  0  0  0  0  0  0  0  0  0  0
   11.5021   10.9092   23.0364 C   0  0  0  0  0  0  0  0  0  0  0  0
    9.5816   16.9853   18.6922 C   0  0  0  0  0  0  0  0  0  0  0  0
    8.4251   16.0677   19.0704 C   0  0  0  0  0  0  0  0  0  0  0  0
    8.5674   18.7484   19.9967 O   0  0  0  0  0  0  0  0  0  0  0  0
    9.3334   15.9218   21.3261 O   0  0  0  0  0  0  0  0  0  0  0  0
    8.6073   13.4724   22.3383 O   0  0  0  0  0  0  0  0  0  0  0  0
    9.9068   12.3774   23.9307 O   0  0  0  0  0  0  0  0  0  0  0  0
    7.7958   10.7793   22.7076 O   0  0  0  0  0  0  0  0  0  0  0  0
    9.2377   10.6456   22.4175 O   0  0  0  0  0  0  0  0  0  0  0  0
   10.8224   18.7453   19.7193 O   0  0  0  0  0  0  0  0  0  0  0  0
    7.4664   14.7080   20.7264 O   0  0  0  0  0  0  0  0  0  0  0  0
    4.7036   13.6388   24.5291 H   0  0  0  0  0  0  0  0  0  0  0  0
    6.3343   14.2513   24.6725 H   0  0  0  0  0  0  0  0  0  0  0  0
    8.1318    9.0083   24.5463 H   0  0  0  0  0  0  0  0  0  0  0  0
    8.4645    9.4036   26.1943 H   0  0  0  0  0  0  0  0  0  0  0  0
    5.7355   13.4068   26.8063 H   0  0  0  0  0  0  0  0  0  0  0  0
    5.0487   11.9382   26.1326 H   0  0  0  0  0  0  0  0  0  0  0  0
   10.4079   10.6184   25.6262 H   0  0  0  0  0  0  0  0  0  0  0  0
   10.3956    9.1745   24.6148 H   0  0  0  0  0  0  0  0  0  0  0  0
    5.4138   11.6386   23.3540 H   0  0  0  0  0  0  0  0  0  0  0  0
    6.4977   10.3843   24.9753 H   0  0  0  0  0  0  0  0  0  0  0  0
    8.0266   12.6466   26.2965 H   0  0  0  0  0  0  0  0  0  0  0  0
    6.3365   12.4462   21.3178 H   0  0  0  0  0  0  0  0  0  0  0  0
    8.4472   13.6789   24.3670 H   0  0  0  0  0  0  0  0  0  0  0  0
    7.2713   14.9981   22.7399 H   0  0  0  0  0  0  0  0  0  0  0  0
    6.3775   10.4586   27.5989 H   0  0  0  0  0  0  0  0  0  0  0  0
    6.9840   11.9269   28.3886 H   0  0  0  0  0  0  0  0  0  0  0  0
    8.1241   10.7086   27.7852 H   0  0  0  0  0  0  0  0  0  0  0  0
    4.6872   14.6677   22.5524 H   0  0  0  0  0  0  0  0  0  0  0  0
    4.0661   13.1866   21.7989 H   0  0  0  0  0  0  0  0  0  0  0  0
    4.9412   14.3800   20.8202 H   0  0  0  0  0  0  0  0  0  0  0  0
   11.6312   11.5273   22.1518 H   0  0  0  0  0  0  0  0  0  0  0  0
   11.7232    9.8742   22.7893 H   0  0  0  0  0  0  0  0  0  0  0  0
   12.1800   11.2475   23.8156 H   0  0  0  0  0  0  0  0  0  0  0  0
    9.4652   17.3064   17.6495 H   0  0  0  0  0  0  0  0  0  0  0  0
   10.5613   16.4992   18.7497 H   0  0  0  0  0  0  0  0  0  0  0  0
    7.4617   16.5668   18.9180 H   0  0  0  0  0  0  0  0  0  0  0  0
    8.4671   15.1763   18.4335 H   0  0  0  0  0  0  0  0  0  0  0  0
   10.8631   19.5554   20.2709 H   0  0  0  0  0  0  0  0  0  0  0  0
  1 18  1  0  0  0  0
  1 20  2  0  0  0  0
  1 26  1  0  0  0  0
  2 19  1  0  0  0  0
  2 21  2  0  0  0  0
  2 27  1  0  0  0  0
  3  5  1  0  0  0  0
  3  7  1  1  0  0  0
  4  6  1  0  0  0  0
  4  8  1  1  0  0  0
  5  9  1  0  0  0  0
  6 14  1  0  0  0  0
  7 10  1  0  0  0  0
  7 13  1  0  0  0  0
  8  9  1  0  0  0  0
  8 13  1  0  0  0  0
  9 15  1  6  0  0  0
 10 12  1  0  0  0  0
 10 16  1  1  0  0  0
 11 13  1  0  0  0  0
 11 22  1  6  0  0  0
 11 23  1  0  0  0  0
 12 22  1  0  0  0  0
 12 27  1  6  0  0  0
 13 24  1  6  0  0  0
 14 17  1  1  0  0  0
 14 23  1  0  0  0  0
 14 25  1  0  0  0  0
 18 19  1  0  0  0  0
 24 25  1  0  0  0  0
  3 28  1  0  0  0  0
  3 29  1  0  0  0  0
  4 30  1  0  0  0  0
  4 31  1  0  0  0  0
  5 32  1  0  0  0  0
  5 33  1  0  0  0  0
  6 34  1  0  0  0  0
  6 35  1  0  0  0  0
  7 36  1  0  0  0  0
  8 37  1  0  0  0  0
  9 38  1  0  0  0  0
 10 39  1  0  0  0  0
 11 40  1  0  0  0  0
 12 41  1  0  0  0  0
 15 42  1  0  0  0  0
 15 43  1  0  0  0  0
 15 44  1  0  0  0  0
 16 45  1  0  0  0  0
 16 46  1  0  0  0  0
 16 47  1  0  0  0  0
 17 48  1  0  0  0  0
 17 49  1  0  0  0  0
 17 50  1  0  0  0  0
 18 51  1  0  0  0  0
 18 52  1  0  0  0  0
 19 53  1  0  0  0  0
 19 54  1  0  0  0  0
 26 55  1  0  0  0  0
M  END
> <id>
EN300-6482026

> <smiles>
C[C@@H]1CC[C@H]2[C@@H](C)[C@H](OC(=O)CCC(=O)O)O[C@@H]3O[C@@]4(C)CC[C@@H]1[C@@]23OO4

> <IUPAC Name>
4-oxo-4-{[(1R,4S,5R,8S,9R,10S,12R,13R)-1,5,9-trimethyl-11,14,15,16-tetraoxatetracyclo[10.3.1.0^{4,13}.0^{8,13}]hexadecan-10-yl]oxy}butanoic acid

> <CAS>
88495-63-0

> <URL>
https://www.enaminestore.com/catalog/EN300-6482026

> <ROCS_ShapeQuery>
x0446_0A_x1080_0A_x0929_0A_x0812_0A_x0719_0A_x1140_0A_x0528_0A_x0310_0A

> <ROCS_TanimotoCombo>
0.433 

> <ROCS_ShapeTanimoto>
0.232 

> <ROCS_ColorTanimoto>
0.201 

> <ROCS_RefTversky>
0.217 

> <ROCS_RefColorTversky>
0.237 

> <ROCS_RefTverskyCombo>
0.454 

> <ROCS_FitTversky>
1.441 

> <ROCS_FitColorTversky>
0.572 

> <ROCS_FitTverskyCombo>
2.012 

> <ROCS_ColorScore>
-8.531

> <ROCS_Overlap>
2563.351

> <ROCS_Rank>
64                  

$$$$
untitled-dbase-294496_2
  -OEChem-02082415563D

 43 47  0     1  0  0  0  0  0999 V2000
   13.6431   18.4047   21.7239 C   0  0  0  0  0  0  0  0  0  0  0  0
   14.7076   17.4860   21.8392 C   0  0  0  0  0  0  0  0  0  0  0  0
   12.3200   17.9654   21.6188 C   0  0  0  0  0  0  0  0  0  0  0  0
   14.4724   16.1080   21.8519 C   0  0  0  0  0  0  0  0  0  0  0  0
    6.3933   13.6735   23.6400 C   0  0  0  0  0  0  0  0  0  0  0  0
    5.1372   14.0257   24.1692 C   0  0  0  0  0  0  0  0  0  0  0  0
   12.1091   16.6028   21.6365 C   0  0  0  0  0  0  0  0  0  0  0  0
   13.1605   15.6955   21.7502 C   0  0  0  0  0  0  0  0  0  0  0  0
    6.7474   12.5364   24.3241 C   0  0  0  0  0  0  0  0  0  0  0  0
   10.8607   15.8401   21.5367 C   0  0  0  0  0  0  0  0  0  0  0  0
   12.5965   14.3422   21.7242 C   0  0  0  0  0  0  0  0  0  0  0  0
    9.9316   13.1720   22.9350 C   0  0  0  0  0  0  0  0  0  0  0  0
   10.0373   10.6619   24.6603 C   0  0  0  0  0  0  0  0  0  0  0  0
    8.9805   11.5425   25.3361 C   0  0  0  0  0  0  0  0  0  0  0  0
    7.9150   10.2914   23.5319 C   0  0  0  0  0  0  0  0  0  0  0  0
    8.9337   12.0105   22.8932 C   0  0  1  0  0  0  0  0  0  0  0  0
    9.4245   10.5649   23.2645 C   0  0  1  0  0  0  0  0  0  0  0  0
    8.0190   11.7305   24.1494 C   0  0  1  0  0  0  0  0  0  0  0  0
    5.6321   11.1914   26.1245 C   0  0  0  0  0  0  0  0  0  0  0  0
    4.7214   13.1807   25.1164 N   0  0  0  0  0  0  0  0  0  0  0  0
    5.7218   12.2862   25.1876 N   0  0  0  0  0  0  0  0  0  0  0  0
   11.2541   14.5428   21.6425 N   0  0  0  0  0  0  0  0  0  0  0  0
    9.7548   16.3272   21.4077 O   0  0  0  0  0  0  0  0  0  0  0  0
   13.2446   13.3160   21.7844 O   0  0  0  0  0  0  0  0  0  0  0  0
   10.2950   13.7252   23.9644 O   0  0  0  0  0  0  0  0  0  0  0  0
   10.3303   13.4752   21.6659 O   0  0  0  0  0  0  0  0  0  0  0  0
   13.8577   19.4702   21.7157 H   0  0  0  0  0  0  0  0  0  0  0  0
   15.7259   17.8581   21.9180 H   0  0  0  0  0  0  0  0  0  0  0  0
   11.5034   18.6718   21.5277 H   0  0  0  0  0  0  0  0  0  0  0  0
   15.2910   15.4033   21.9376 H   0  0  0  0  0  0  0  0  0  0  0  0
    6.9596   14.1768   22.8699 H   0  0  0  0  0  0  0  0  0  0  0  0
    4.5077   14.8630   23.9041 H   0  0  0  0  0  0  0  0  0  0  0  0
   11.0238   11.1352   24.6520 H   0  0  0  0  0  0  0  0  0  0  0  0
   10.1205    9.6830   25.1430 H   0  0  0  0  0  0  0  0  0  0  0  0
    8.5048   11.0285   26.1781 H   0  0  0  0  0  0  0  0  0  0  0  0
    9.4016   12.4890   25.6900 H   0  0  0  0  0  0  0  0  0  0  0  0
    7.2826   10.1843   22.6420 H   0  0  0  0  0  0  0  0  0  0  0  0
    7.6812    9.4725   24.2202 H   0  0  0  0  0  0  0  0  0  0  0  0
    8.3843   12.0533   21.9394 H   0  0  0  0  0  0  0  0  0  0  0  0
    9.9269    9.9714   22.5016 H   0  0  0  0  0  0  0  0  0  0  0  0
    6.0791   11.5170   27.0675 H   0  0  0  0  0  0  0  0  0  0  0  0
    4.5823   10.9230   26.2715 H   0  0  0  0  0  0  0  0  0  0  0  0
    6.1698   10.3276   25.7235 H   0  0  0  0  0  0  0  0  0  0  0  0
  1  2  1  0  0  0  0
  1  3  2  0  0  0  0
  2  4  2  0  0  0  0
  3  7  1  0  0  0  0
  4  8  1  0  0  0  0
  5  6  1  0  0  0  0
  5  9  2  0  0  0  0
  6 20  2  0  0  0  0
  7  8  2  0  0  0  0
  7 10  1  0  0  0  0
  8 11  1  0  0  0  0
  9 18  1  1  0  0  0
  9 21  1  0  0  0  0
 10 22  1  0  0  0  0
 10 23  2  0  0  0  0
 11 22  1  0  0  0  0
 11 24  2  0  0  0  0
 12 16  1  6  0  0  0
 12 25  2  0  0  0  0
 12 26  1  0  0  0  0
 13 14  1  0  0  0  0
 13 17  1  0  0  0  0
 14 18  1  0  0  0  0
 15 17  1  1  0  0  0
 15 18  1  0  0  0  0
 16 17  1  0  0  0  0
 16 18  1  0  0  0  0
 19 21  1  0  0  0  0
 20 21  1  0  0  0  0
 22 26  1  0  0  0  0
  1 27  1  0  0  0  0
  2 28  1  0  0  0  0
  3 29  1  0  0  0  0
  4 30  1  0  0  0  0
  5 31  1  0  0  0  0
  6 32  1  0  0  0  0
 13 33  1  0  0  0  0
 13 34  1  0  0  0  0
 14 35  1  0  0  0  0
 14 36  1  0  0  0  0
 15 37  1  0  0  0  0
 15 38  1  0  0  0  0
 16 39  1  0  0  0  0
 17 40  1  0  0  0  0
 19 41  1  0  0  0  0
 19 42  1  0  0  0  0
 19 43  1  0  0  0  0
M  END
> <id>
EN300-6526470

> <smiles>
CN1N=CC=C1[C@@]2(C[C@@H]3CC2)[C@H]3C(=O)ON4C(=O)C=5C=CC=CC5C4=O |&1:6,8,11,r|

> <IUPAC Name>
rac-1,3-dioxo-2,3-dihydro-1H-isoindol-2-yl (1R,4R,5R)-1-(1-methyl-1H-pyrazol-5-yl)bicyclo[2.1.1]hexane-5-carboxylate

> <CAS>
2248335-30-8

> <URL>
https://www.enaminestore.com/catalog/EN300-6526470

> <ROCS_ShapeQuery>
x0446_0A_x1080_0A_x0929_0A_x0812_0A_x0719_0A_x1140_0A_x0528_0A_x0310_0A

> <ROCS_TanimotoCombo>
0.433 

> <ROCS_ShapeTanimoto>
0.248 

> <ROCS_ColorTanimoto>
0.185 

> <ROCS_RefTversky>
0.229 

> <ROCS_RefColorTversky>
0.221 

> <ROCS_RefTverskyCombo>
0.450 

> <ROCS_FitTversky>
1.505 

> <ROCS_FitColorTversky>
0.533 

> <ROCS_FitTverskyCombo>
2.038 

> <ROCS_ColorScore>
-7.972

> <ROCS_Overlap>
2703.007

> <ROCS_Rank>
65                  

$$$$
untitled-dbase-513839_0
  -OEChem-02082415563D

 30 31  0     0  0  0  0  0  0999 V2000
    6.9506   11.2005   25.7182 C   0  0  0  0  0  0  0  0  0  0  0  0
   10.5478   13.6994   22.6089 C   0  0  0  0  0  0  0  0  0  0  0  0
    9.4540   11.7568   24.8995 C   0  0  0  0  0  0  0  0  0  0  0  0
    8.0219   12.2464   23.4817 C   0  0  0  0  0  0  0  0  0  0  0  0
    8.0115   11.1510   24.6311 C   0  0  0  0  0  0  0  0  0  0  0  0
    9.4365   11.5967   23.3447 C   0  0  0  0  0  0  0  0  0  0  0  0
    9.2440   10.1135   23.0288 C   0  0  0  0  0  0  0  0  0  0  0  0
    8.7327    9.8477   21.6173 C   0  0  0  0  0  0  0  0  0  0  0  0
   10.4674    9.2564   23.3335 C   0  0  0  0  0  0  0  0  0  0  0  0
   11.6629   14.1835   21.7295 C   0  0  0  0  0  0  0  0  0  0  0  0
   10.4302   12.3186   22.5903 N   0  0  0  0  0  0  0  0  0  0  0  0
    7.0514   10.6846   26.8214 O   0  0  0  0  0  0  0  0  0  0  0  0
    9.8429   14.4731   23.2508 O   0  0  0  0  0  0  0  0  0  0  0  0
    8.2000    9.8432   23.9906 O   0  0  0  0  0  0  0  0  0  0  0  0
    5.8664   11.8969   25.2976 O   0  0  0  0  0  0  0  0  0  0  0  0
   12.3046   13.1577   21.1144 F   0  0  0  0  0  0  0  0  0  0  0  0
   12.6002   14.8729   22.4287 F   0  0  0  0  0  0  0  0  0  0  0  0
   11.2173   15.0108   20.7501 F   0  0  0  0  0  0  0  0  0  0  0  0
    9.5042   12.7736   25.3068 H   0  0  0  0  0  0  0  0  0  0  0  0
   10.1397   11.1218   25.4648 H   0  0  0  0  0  0  0  0  0  0  0  0
    7.3120   12.0878   22.6670 H   0  0  0  0  0  0  0  0  0  0  0  0
    7.9709   13.2977   23.7893 H   0  0  0  0  0  0  0  0  0  0  0  0
    8.6182    8.7757   21.4590 H   0  0  0  0  0  0  0  0  0  0  0  0
    9.4386   10.2406   20.8861 H   0  0  0  0  0  0  0  0  0  0  0  0
    7.7672   10.3324   21.4742 H   0  0  0  0  0  0  0  0  0  0  0  0
   10.2629    8.2150   23.0864 H   0  0  0  0  0  0  0  0  0  0  0  0
   10.7167    9.3272   24.3919 H   0  0  0  0  0  0  0  0  0  0  0  0
   11.3179    9.6000   22.7451 H   0  0  0  0  0  0  0  0  0  0  0  0
   11.0790   11.7869   22.0144 H   0  0  0  0  0  0  0  0  0  0  0  0
    5.1683   11.9387   25.9855 H   0  0  0  0  0  0  0  0  0  0  0  0
  1  5  1  0  0  0  0
  1 12  2  0  0  0  0
  1 15  1  0  0  0  0
  2 10  1  0  0  0  0
  2 11  1  0  0  0  0
  2 13  2  0  0  0  0
  3  5  1  0  0  0  0
  3  6  1  0  0  0  0
  4  5  1  0  0  0  0
  4  6  1  0  0  0  0
  5 14  1  0  0  0  0
  6  7  1  0  0  0  0
  6 11  1  0  0  0  0
  7  8  1  0  0  0  0
  7  9  1  0  0  0  0
  7 14  1  0  0  0  0
 10 16  1  0  0  0  0
 10 17  1  0  0  0  0
 10 18  1  0  0  0  0
  3 19  1  0  0  0  0
  3 20  1  0  0  0  0
  4 21  1  0  0  0  0
  4 22  1  0  0  0  0
  8 23  1  0  0  0  0
  8 24  1  0  0  0  0
  8 25  1  0  0  0  0
  9 26  1  0  0  0  0
  9 27  1  0  0  0  0
  9 28  1  0  0  0  0
 11 29  1  0  0  0  0
 15 30  1  0  0  0  0
M  END
> <id>
EN300-28282407

> <smiles>
CC1(C)OC2(CC1(C2)NC(=O)C(F)(F)F)C(=O)O

> <IUPAC Name>
3,3-dimethyl-4-(2,2,2-trifluoroacetamido)-2-oxabicyclo[2.1.1]hexane-1-carboxylic acid

> <CAS>
2680660-03-9

> <URL>
https://www.enaminestore.com/catalog/EN300-28282407

> <ROCS_ShapeQuery>
x0446_0A_x1080_0A_x0929_0A_x0812_0A_x0719_0A_x1140_0A_x0528_0A_x0310_0A

> <ROCS_TanimotoCombo>
0.433 

> <ROCS_ShapeTanimoto>
0.232 

> <ROCS_ColorTanimoto>
0.200 

> <ROCS_RefTversky>
0.211 

> <ROCS_RefColorTversky>
0.236 

> <ROCS_RefTverskyCombo>
0.447 

> <ROCS_FitTversky>
1.782 

> <ROCS_FitColorTversky>
0.570 

> <ROCS_FitTverskyCombo>
2.351 

> <ROCS_ColorScore>
-8.505

> <ROCS_Overlap>
2490.289

> <ROCS_Rank>
66                  

$$$$
untitled-dbase-12117_1
  -OEChem-02082415563D

 47 50  0     1  0  0  0  0  0999 V2000
    8.2442   14.3603   22.1963 C   0  0  0  0  0  0  0  0  0  0  0  0
    6.8065   16.9482   23.4504 C   0  0  0  0  0  0  0  0  0  0  0  0
    5.1701   16.3171   21.7132 C   0  0  0  0  0  0  0  0  0  0  0  0
    9.2983   10.2093   22.7670 C   0  0  0  0  0  0  0  0  0  0  0  0
    9.6668   11.3532   24.9687 C   0  0  0  0  0  0  0  0  0  0  0  0
    7.3531   10.6717   24.2819 C   0  0  0  0  0  0  0  0  0  0  0  0
    9.9258   12.6367   22.8301 C   0  0  0  0  0  0  0  0  0  0  0  0
    7.6082   11.9539   22.1421 C   0  0  0  0  0  0  0  0  0  0  0  0
    7.9777   13.1002   24.3462 C   0  0  0  0  0  0  0  0  0  0  0  0
    5.7284   14.0303   22.1383 C   0  0  0  0  0  0  0  0  0  0  0  0
    6.6391   16.2614   22.1083 C   0  0  2  0  0  0  0  0  0  0  0  0
   10.1337   11.2697   23.5050 C   0  0  0  0  0  0  0  0  0  0  0  0
    7.8069   10.5841   22.8142 C   0  0  0  0  0  0  0  0  0  0  0  0
    8.1775   11.7352   25.0281 C   0  0  0  0  0  0  0  0  0  0  0  0
    4.5921   15.0299   22.3014 C   0  0  2  0  0  0  0  0  0  0  0  0
    8.4353   13.0281   22.8762 C   0  0  0  0  0  0  0  0  0  0  0  0
    6.5695   19.0329   24.5374 C   0  0  0  0  0  0  0  0  0  0  0  0
    6.9444   14.8372   22.1719 N   0  0  0  0  0  0  0  0  0  0  0  0
    9.2075   14.9566   21.7121 O   0  0  0  0  0  0  0  0  0  0  0  0
    7.1960   16.3849   24.4644 O   0  0  0  0  0  0  0  0  0  0  0  0
    3.4416   14.6113   21.5946 O   0  0  0  0  0  0  0  0  0  0  0  0
    6.4586   18.2616   23.3370 O   0  0  0  0  0  0  0  0  0  0  0  0
    4.6618   17.1862   22.1478 H   0  0  0  0  0  0  0  0  0  0  0  0
    5.0565   16.3565   20.6250 H   0  0  0  0  0  0  0  0  0  0  0  0
    9.6313   10.1291   21.7249 H   0  0  0  0  0  0  0  0  0  0  0  0
    9.4514    9.2258   23.2276 H   0  0  0  0  0  0  0  0  0  0  0  0
    9.8262   10.3894   25.4678 H   0  0  0  0  0  0  0  0  0  0  0  0
   10.2655   12.0954   25.5109 H   0  0  0  0  0  0  0  0  0  0  0  0
    6.2864   10.9231   24.3298 H   0  0  0  0  0  0  0  0  0  0  0  0
    7.4720    9.6961   24.7691 H   0  0  0  0  0  0  0  0  0  0  0  0
   10.5362   13.3989   23.3321 H   0  0  0  0  0  0  0  0  0  0  0  0
   10.2792   12.5964   21.7912 H   0  0  0  0  0  0  0  0  0  0  0  0
    7.9044   11.8972   21.0864 H   0  0  0  0  0  0  0  0  0  0  0  0
    6.5436   12.2225   22.1474 H   0  0  0  0  0  0  0  0  0  0  0  0
    6.9218   13.3955   24.4043 H   0  0  0  0  0  0  0  0  0  0  0  0
    8.5424   13.8725   24.8850 H   0  0  0  0  0  0  0  0  0  0  0  0
    5.7773   13.3414   22.9916 H   0  0  0  0  0  0  0  0  0  0  0  0
    5.6598   13.4556   21.2076 H   0  0  0  0  0  0  0  0  0  0  0  0
    7.2897   16.7501   21.3577 H   0  0  0  0  0  0  0  0  0  0  0  0
   11.1940   10.9965   23.4695 H   0  0  0  0  0  0  0  0  0  0  0  0
    7.2173    9.8247   22.2889 H   0  0  0  0  0  0  0  0  0  0  0  0
    7.8508   11.7917   26.0723 H   0  0  0  0  0  0  0  0  0  0  0  0
    4.3132   15.1659   23.3669 H   0  0  0  0  0  0  0  0  0  0  0  0
    6.2687   20.0643   24.3377 H   0  0  0  0  0  0  0  0  0  0  0  0
    7.6020   19.0059   24.8948 H   0  0  0  0  0  0  0  0  0  0  0  0
    5.9117   18.6046   25.2973 H   0  0  0  0  0  0  0  0  0  0  0  0
    2.7928   15.3294   21.6678 H   0  0  0  0  0  0  0  0  0  0  0  0
  1 16  1  0  0  0  0
  1 18  1  0  0  0  0
  1 19  2  0  0  0  0
  2 11  1  6  0  0  0
  2 20  2  0  0  0  0
  2 22  1  0  0  0  0
  3 11  1  0  0  0  0
  3 15  1  0  0  0  0
  4 12  1  0  0  0  0
  4 13  1  0  0  0  0
  5 12  1  0  0  0  0
  5 14  1  0  0  0  0
  6 13  1  0  0  0  0
  6 14  1  0  0  0  0
  7 12  1  0  0  0  0
  7 16  1  0  0  0  0
  8 13  1  0  0  0  0
  8 16  1  0  0  0  0
  9 14  1  0  0  0  0
  9 16  1  0  0  0  0
 10 15  1  0  0  0  0
 10 18  1  0  0  0  0
 11 18  1  0  0  0  0
 15 21  1  1  0  0  0
 17 22  1  0  0  0  0
  3 23  1  0  0  0  0
  3 24  1  0  0  0  0
  4 25  1  0  0  0  0
  4 26  1  0  0  0  0
  5 27  1  0  0  0  0
  5 28  1  0  0  0  0
  6 29  1  0  0  0  0
  6 30  1  0  0  0  0
  7 31  1  0  0  0  0
  7 32  1  0  0  0  0
  8 33  1  0  0  0  0
  8 34  1  0  0  0  0
  9 35  1  0  0  0  0
  9 36  1  0  0  0  0
 10 37  1  0  0  0  0
 10 38  1  0  0  0  0
 11 39  1  0  0  0  0
 12 40  1  0  0  0  0
 13 41  1  0  0  0  0
 14 42  1  0  0  0  0
 15 43  1  0  0  0  0
 17 44  1  0  0  0  0
 17 45  1  0  0  0  0
 17 46  1  0  0  0  0
 21 47  1  0  0  0  0
M  END
> <id>
EN300-72811

> <smiles>
COC(=O)[C@@H]1C[C@@H](O)CN1C(=O)C2(CC3CC4CC(C3)C2)C4

> <IUPAC Name>
methyl (2S,4R)-1-(adamantane-1-carbonyl)-4-hydroxypyrrolidine-2-carboxylate

> <CAS>
1093072-92-4

> <Purity>
95

> <URL>
https://www.enaminestore.com/catalog/EN300-72811

> <ROCS_ShapeQuery>
x0446_0A_x1080_0A_x0929_0A_x0812_0A_x0719_0A_x1140_0A_x0528_0A_x0310_0A

> <ROCS_TanimotoCombo>
0.433 

> <ROCS_ShapeTanimoto>
0.218 

> <ROCS_ColorTanimoto>
0.214 

> <ROCS_RefTversky>
0.203 

> <ROCS_RefColorTversky>
0.239 

> <ROCS_RefTverskyCombo>
0.442 

> <ROCS_FitTversky>
1.523 

> <ROCS_FitColorTversky>
0.674 

> <ROCS_FitTverskyCombo>
2.197 

> <ROCS_ColorScore>
-8.595

> <ROCS_Overlap>
2396.605

> <ROCS_Rank>
67                  

$$$$
untitled-dbase-44377_8
  -OEChem-02082415563D

 47 50  0     1  0  0  0  0  0999 V2000
   10.8538   14.0871   22.7381 C   0  0  0  0  0  0  0  0  0  0  0  0
   12.2223   14.3104   22.9680 C   0  0  0  0  0  0  0  0  0  0  0  0
   10.4438   15.2201   22.0868 C   0  0  0  0  0  0  0  0  0  0  0  0
    5.6089   13.3722   23.2419 C   0  0  0  0  0  0  0  0  0  0  0  0
    9.6689   10.1957   24.4353 C   0  0  0  0  0  0  0  0  0  0  0  0
   10.5083   11.5287   22.4877 C   0  0  0  0  0  0  0  0  0  0  0  0
   10.0261   12.6672   24.6687 C   0  0  0  0  0  0  0  0  0  0  0  0
    8.1885   10.5840   22.4498 C   0  0  0  0  0  0  0  0  0  0  0  0
    7.6986   11.7324   24.6288 C   0  0  0  0  0  0  0  0  0  0  0  0
    8.5342   13.0646   22.6678 C   0  0  0  0  0  0  0  0  0  0  0  0
    9.6324   10.3376   22.9084 C   0  0  2  0  0  0  0  0  0  0  0  0
    9.1435   11.4799   25.0890 C   0  0  1  0  0  0  0  0  0  0  0  0
   10.0096   12.8616   23.1244 C   0  0  0  0  0  0  0  0  0  0  0  0
    7.6381   11.8755   23.0909 C   0  0  0  0  0  0  0  0  0  0  0  0
   13.1873   13.4221   23.6377 C   0  0  0  0  0  0  0  0  0  0  0  0
    9.1565   15.6767   21.5469 C   0  0  0  0  0  0  0  0  0  0  0  0
    6.1941   12.1147   22.6387 C   0  0  0  0  0  0  0  0  0  0  0  0
   12.6300   15.4916   22.4953 N   0  0  0  0  0  0  0  0  0  0  0  0
    5.3697   15.7036   22.8114 N   0  0  0  0  0  0  0  0  0  0  0  0
    5.8340   14.4645   22.4209 N   0  0  0  0  0  0  0  0  0  0  0  0
    5.0177   13.3981   24.3183 O   0  0  0  0  0  0  0  0  0  0  0  0
   11.4949   16.0660   21.9360 O   0  0  0  0  0  0  0  0  0  0  0  0
    9.0600    9.3383   24.7477 H   0  0  0  0  0  0  0  0  0  0  0  0
   10.6943    9.9960   24.7700 H   0  0  0  0  0  0  0  0  0  0  0  0
   11.5502   11.3403   22.7810 H   0  0  0  0  0  0  0  0  0  0  0  0
   10.5115   11.6145   21.3924 H   0  0  0  0  0  0  0  0  0  0  0  0
    9.6734   13.5813   25.1652 H   0  0  0  0  0  0  0  0  0  0  0  0
   11.0545   12.5060   25.0192 H   0  0  0  0  0  0  0  0  0  0  0  0
    8.1559   10.6586   21.3552 H   0  0  0  0  0  0  0  0  0  0  0  0
    7.5623    9.7255   22.7253 H   0  0  0  0  0  0  0  0  0  0  0  0
    7.0585   10.9036   24.9575 H   0  0  0  0  0  0  0  0  0  0  0  0
    7.3110   12.6393   25.1106 H   0  0  0  0  0  0  0  0  0  0  0  0
    8.1419   13.9976   23.0963 H   0  0  0  0  0  0  0  0  0  0  0  0
    8.4966   13.1932   21.5768 H   0  0  0  0  0  0  0  0  0  0  0  0
   10.0132    9.4205   22.4450 H   0  0  0  0  0  0  0  0  0  0  0  0
    9.1679   11.3738   26.1795 H   0  0  0  0  0  0  0  0  0  0  0  0
   13.6730   12.7421   22.9169 H   0  0  0  0  0  0  0  0  0  0  0  0
   13.9857   13.9858   24.1525 H   0  0  0  0  0  0  0  0  0  0  0  0
   12.7102   12.7976   24.4141 H   0  0  0  0  0  0  0  0  0  0  0  0
    8.5786   16.2407   22.3011 H   0  0  0  0  0  0  0  0  0  0  0  0
    9.2787   16.3350   20.6664 H   0  0  0  0  0  0  0  0  0  0  0  0
    8.5214   14.8374   21.2060 H   0  0  0  0  0  0  0  0  0  0  0  0
    6.1736   12.1979   21.5506 H   0  0  0  0  0  0  0  0  0  0  0  0
    5.5847   11.2591   22.9351 H   0  0  0  0  0  0  0  0  0  0  0  0
    5.1089   16.2028   21.9619 H   0  0  0  0  0  0  0  0  0  0  0  0
    4.5020   15.5464   23.3225 H   0  0  0  0  0  0  0  0  0  0  0  0
    6.3336   14.3550   21.5440 H   0  0  0  0  0  0  0  0  0  0  0  0
  1  2  1  0  0  0  0
  1  3  2  0  0  0  0
  1 13  1  0  0  0  0
  2 15  1  0  0  0  0
  2 18  2  0  0  0  0
  3 16  1  0  0  0  0
  3 22  1  0  0  0  0
  4 17  1  0  0  0  0
  4 20  1  0  0  0  0
  4 21  2  0  0  0  0
  5 11  1  0  0  0  0
  5 12  1  0  0  0  0
  6 11  1  0  0  0  0
  6 13  1  0  0  0  0
  7 12  1  0  0  0  0
  7 13  1  0  0  0  0
  8 11  1  0  0  0  0
  8 14  1  0  0  0  0
  9 12  1  0  0  0  0
  9 14  1  0  0  0  0
 10 13  1  0  0  0  0
 10 14  1  0  0  0  0
 14 17  1  0  0  0  0
 18 22  1  0  0  0  0
 19 20  1  0  0  0  0
  5 23  1  0  0  0  0
  5 24  1  0  0  0  0
  6 25  1  0  0  0  0
  6 26  1  0  0  0  0
  7 27  1  0  0  0  0
  7 28  1  0  0  0  0
  8 29  1  0  0  0  0
  8 30  1  0  0  0  0
  9 31  1  0  0  0  0
  9 32  1  0  0  0  0
 10 33  1  0  0  0  0
 10 34  1  0  0  0  0
 11 35  1  0  0  0  0
 12 36  1  0  0  0  0
 15 37  1  0  0  0  0
 15 38  1  0  0  0  0
 15 39  1  0  0  0  0
 16 40  1  0  0  0  0
 16 41  1  0  0  0  0
 16 42  1  0  0  0  0
 17 43  1  0  0  0  0
 17 44  1  0  0  0  0
 19 45  1  0  0  0  0
 19 46  1  0  0  0  0
 20 47  1  0  0  0  0
M  END
> <id>
EN300-228837

> <smiles>
CC1=NOC(C)=C1C2(CC3CC4CC(CC(=O)NN)(C3)C2)C4

> <MDLNUMBER>
MFCD03423233

> <IUPAC Name>
2-[3-(3,5-dimethyl-1,2-oxazol-4-yl)adamantan-1-yl]acetohydrazide

> <CAS>
438220-49-6

> <Purity>
58

> <URL>
https://www.enaminestore.com/catalog/EN300-228837

> <ROCS_ShapeQuery>
x0446_0A_x1080_0A_x0929_0A_x0812_0A_x0719_0A_x1140_0A_x0528_0A_x0310_0A

> <ROCS_TanimotoCombo>
0.433 

> <ROCS_ShapeTanimoto>
0.254 

> <ROCS_ColorTanimoto>
0.178 

> <ROCS_RefTversky>
0.230 

> <ROCS_RefColorTversky>
0.206 

> <ROCS_RefTverskyCombo>
0.436 

> <ROCS_FitTversky>
1.727 

> <ROCS_FitColorTversky>
0.569 

> <ROCS_FitTverskyCombo>
2.296 

> <ROCS_ColorScore>
-7.409

> <ROCS_Overlap>
2712.162

> <ROCS_Rank>
68                  

$$$$
untitled-dbase-589350_5
  -OEChem-02082415563D

 56 61  0     1  0  0  0  0  0999 V2000
   12.9283   18.8589   21.2468 C   0  0  0  0  0  0  0  0  0  0  0  0
   14.1680   18.3360   21.6712 C   0  0  0  0  0  0  0  0  0  0  0  0
   11.7894   18.0507   21.1813 C   0  0  0  0  0  0  0  0  0  0  0  0
   14.2961   16.9935   22.0393 C   0  0  0  0  0  0  0  0  0  0  0  0
    4.6760   12.8803   22.2211 C   0  0  0  0  0  0  0  0  0  0  0  0
    6.2346   12.6732   20.3868 C   0  0  0  0  0  0  0  0  0  0  0  0
    3.7120   13.3801   21.3456 C   0  0  0  0  0  0  0  0  0  0  0  0
    5.2707   13.1730   19.5112 C   0  0  0  0  0  0  0  0  0  0  0  0
   11.9361   16.7305   21.5516 C   0  0  0  0  0  0  0  0  0  0  0  0
   13.1605   16.2141   21.9706 C   0  0  0  0  0  0  0  0  0  0  0  0
    5.9373   12.5268   21.7417 C   0  0  0  0  0  0  0  0  0  0  0  0
    4.0093   13.5265   19.9906 C   0  0  0  0  0  0  0  0  0  0  0  0
   10.9512   15.6445   21.5829 C   0  0  0  0  0  0  0  0  0  0  0  0
   12.9728   14.7918   22.2744 C   0  0  0  0  0  0  0  0  0  0  0  0
   10.5615   13.2422   23.5865 C   0  0  0  0  0  0  0  0  0  0  0  0
    8.0180    9.9150   24.6205 C   0  0  0  0  0  0  0  0  0  0  0  0
    6.5157   11.8720   24.1851 C   0  0  0  0  0  0  0  0  0  0  0  0
    7.4338   10.5470   22.2637 C   0  0  0  0  0  0  0  0  0  0  0  0
    8.8355   12.2452   25.0559 C   0  0  0  0  0  0  0  0  0  0  0  0
    9.7575   10.9283   23.1284 C   0  0  0  0  0  0  0  0  0  0  0  0
    8.2562   12.8970   22.6996 C   0  0  0  0  0  0  0  0  0  0  0  0
    7.6154   11.3147   25.1050 C   0  0  2  0  0  0  0  0  0  0  0  0
    8.5392    9.9922   23.1790 C   0  0  1  0  0  0  0  0  0  0  0  0
    7.0001   11.9759   22.7057 C   0  0  0  0  0  0  0  0  0  0  0  0
    9.3636   12.3358   23.6147 C   0  0  0  0  0  0  0  0  0  0  0  0
    2.9775   14.0594   19.0548 C   0  0  0  0  0  0  0  0  0  0  0  0
   11.6476   14.5776   22.0581 N   0  0  0  0  0  0  0  0  0  0  0  0
    9.7849   15.7518   21.2589 O   0  0  0  0  0  0  0  0  0  0  0  0
   13.8492   14.0377   22.6487 O   0  0  0  0  0  0  0  0  0  0  0  0
   11.0183   13.8036   24.5734 O   0  0  0  0  0  0  0  0  0  0  0  0
   11.0353   13.3305   22.3100 O   0  0  0  0  0  0  0  0  0  0  0  0
   12.8604   19.9068   20.9657 H   0  0  0  0  0  0  0  0  0  0  0  0
   15.0361   18.9891   21.7103 H   0  0  0  0  0  0  0  0  0  0  0  0
   10.8383   18.4528   20.8528 H   0  0  0  0  0  0  0  0  0  0  0  0
   15.2493   16.5923   22.3623 H   0  0  0  0  0  0  0  0  0  0  0  0
    4.4357   12.7702   23.2753 H   0  0  0  0  0  0  0  0  0  0  0  0
    7.2145   12.3991   20.0046 H   0  0  0  0  0  0  0  0  0  0  0  0
    2.7315   13.6515   21.7275 H   0  0  0  0  0  0  0  0  0  0  0  0
    5.5107   13.2840   18.4571 H   0  0  0  0  0  0  0  0  0  0  0  0
    8.7911    9.4984   25.2775 H   0  0  0  0  0  0  0  0  0  0  0  0
    7.1569    9.2375   24.6726 H   0  0  0  0  0  0  0  0  0  0  0  0
    5.6269   11.2291   24.2435 H   0  0  0  0  0  0  0  0  0  0  0  0
    6.2004   12.8605   24.5461 H   0  0  0  0  0  0  0  0  0  0  0  0
    7.7928   10.5697   21.2259 H   0  0  0  0  0  0  0  0  0  0  0  0
    6.5695    9.8694   22.2748 H   0  0  0  0  0  0  0  0  0  0  0  0
    8.5623   13.2416   25.4277 H   0  0  0  0  0  0  0  0  0  0  0  0
    9.6187   11.8717   25.7289 H   0  0  0  0  0  0  0  0  0  0  0  0
   10.5651   10.5198   23.7502 H   0  0  0  0  0  0  0  0  0  0  0  0
   10.1531   10.9744   22.1052 H   0  0  0  0  0  0  0  0  0  0  0  0
    8.6364   13.0041   21.6736 H   0  0  0  0  0  0  0  0  0  0  0  0
    7.9788   13.9120   23.0183 H   0  0  0  0  0  0  0  0  0  0  0  0
    7.2396   11.2547   26.1326 H   0  0  0  0  0  0  0  0  0  0  0  0
    8.8295    8.9919   22.8384 H   0  0  0  0  0  0  0  0  0  0  0  0
    3.0471   15.1523   18.9918 H   0  0  0  0  0  0  0  0  0  0  0  0
    3.1017   13.6441   18.0464 H   0  0  0  0  0  0  0  0  0  0  0  0
    1.9648   13.7937   19.3852 H   0  0  0  0  0  0  0  0  0  0  0  0
  1  2  1  0  0  0  0
  1  3  2  0  0  0  0
  2  4  2  0  0  0  0
  3  9  1  0  0  0  0
  4 10  1  0  0  0  0
  5  7  2  0  0  0  0
  5 11  1  0  0  0  0
  6  8  1  0  0  0  0
  6 11  2  0  0  0  0
  7 12  1  0  0  0  0
  8 12  2  0  0  0  0
  9 10  2  0  0  0  0
  9 13  1  0  0  0  0
 10 14  1  0  0  0  0
 11 24  1  0  0  0  0
 12 26  1  0  0  0  0
 13 27  1  0  0  0  0
 13 28  2  0  0  0  0
 14 27  1  0  0  0  0
 14 29  2  0  0  0  0
 15 25  1  0  0  0  0
 15 30  2  0  0  0  0
 15 31  1  0  0  0  0
 16 22  1  0  0  0  0
 16 23  1  0  0  0  0
 17 22  1  0  0  0  0
 17 24  1  0  0  0  0
 18 23  1  0  0  0  0
 18 24  1  0  0  0  0
 19 22  1  0  0  0  0
 19 25  1  0  0  0  0
 20 23  1  0  0  0  0
 20 25  1  0  0  0  0
 21 24  1  0  0  0  0
 21 25  1  0  0  0  0
 27 31  1  0  0  0  0
  1 32  1  0  0  0  0
  2 33  1  0  0  0  0
  3 34  1  0  0  0  0
  4 35  1  0  0  0  0
  5 36  1  0  0  0  0
  6 37  1  0  0  0  0
  7 38  1  0  0  0  0
  8 39  1  0  0  0  0
 16 40  1  0  0  0  0
 16 41  1  0  0  0  0
 17 42  1  0  0  0  0
 17 43  1  0  0  0  0
 18 44  1  0  0  0  0
 18 45  1  0  0  0  0
 19 46  1  0  0  0  0
 19 47  1  0  0  0  0
 20 48  1  0  0  0  0
 20 49  1  0  0  0  0
 21 50  1  0  0  0  0
 21 51  1  0  0  0  0
 22 52  1  0  0  0  0
 23 53  1  0  0  0  0
 26 54  1  0  0  0  0
 26 55  1  0  0  0  0
 26 56  1  0  0  0  0
M  END
> <id>
EN300-6524632

> <smiles>
CC=1C=CC(=CC1)C2(CC3CC4CC(C3)(C2)C(=O)ON5C(=O)C=6C=CC=CC6C5=O)C4

> <IUPAC Name>
1,3-dioxo-2,3-dihydro-1H-isoindol-2-yl 3-(4-methylphenyl)adamantane-1-carboxylate

> <CAS>
2248342-55-2

> <URL>
https://www.enaminestore.com/catalog/EN300-6524632

> <ROCS_ShapeQuery>
x0446_0A_x1080_0A_x0929_0A_x0812_0A_x0719_0A_x1140_0A_x0528_0A_x0310_0A

> <ROCS_TanimotoCombo>
0.432 

> <ROCS_ShapeTanimoto>
0.254 

> <ROCS_ColorTanimoto>
0.178 

> <ROCS_RefTversky>
0.237 

> <ROCS_RefColorTversky>
0.209 

> <ROCS_RefTverskyCombo>
0.446 

> <ROCS_FitTversky>
1.395 

> <ROCS_FitColorTversky>
0.548 

> <ROCS_FitTverskyCombo>
1.943 

> <ROCS_ColorScore>
-7.509

> <ROCS_Overlap>
2807.934

> <ROCS_Rank>
69                  

$$$$
untitled-dbase-258411_1
  -OEChem-02082415563D

 60 65  0     1  0  0  0  0  0999 V2000
   12.6352   14.6256   22.3588 C   0  0  0  0  0  0  0  0  0  0  0  0
   11.7008   14.0513   23.1355 C   0  0  0  0  0  0  0  0  0  0  0  0
   13.6778   13.8263   21.6760 C   0  0  0  0  0  0  0  0  0  0  0  0
    4.3219   10.0111   23.4679 C   0  0  0  0  0  0  0  0  0  0  0  0
    8.7161   14.7181   22.3988 C   0  0  0  0  0  0  0  0  0  0  0  0
   10.7155   14.9351   23.8771 C   0  0  0  0  0  0  0  0  0  0  0  0
   13.7243   12.3435   21.9311 C   0  0  0  0  0  0  0  0  0  0  0  0
    4.1911    9.3681   24.8147 C   0  0  0  0  0  0  0  0  0  0  0  0
   12.3254   11.7994   22.1815 C   0  0  0  0  0  0  0  0  0  0  0  0
    5.5949    9.4961   25.3603 C   0  0  0  0  0  0  0  0  0  0  0  0
    6.7201   13.1276   25.1558 C   0  0  0  0  0  0  0  0  0  0  0  0
    5.6476   12.0669   25.4639 C   0  0  0  0  0  0  0  0  0  0  0  0
    8.2860   10.1173   23.4717 C   0  0  0  0  0  0  0  0  0  0  0  0
    9.2595   14.4629   23.7772 C   0  0  2  0  0  0  0  0  0  0  0  0
    7.7039   12.4469   24.2022 C   0  0  1  0  0  0  0  0  0  0  0  0
    9.1426   12.9894   24.2023 C   0  0  1  0  0  0  0  0  0  0  0  0
    9.6325   10.6659   23.0778 C   0  0  2  0  0  0  0  0  0  0  0  0
   11.5597   12.5317   23.3257 C   0  0  2  0  0  0  0  0  0  0  0  0
    7.6288   10.9466   24.5913 C   0  0  1  0  0  0  0  0  0  0  0  0
    6.0925   10.7815   24.7275 C   0  0  1  0  0  0  0  0  0  0  0  0
   10.0692   12.1074   23.3684 C   0  0  2  0  0  0  0  0  0  0  0  0
   12.2063   12.1425   24.6776 C   0  0  0  0  0  0  0  0  0  0  0  0
    8.3364   10.6218   25.9323 C   0  0  0  0  0  0  0  0  0  0  0  0
    6.7544   14.5536   21.0918 C   0  0  0  0  0  0  0  0  0  0  0  0
   14.5150   14.3878   20.9719 O   0  0  0  0  0  0  0  0  0  0  0  0
    3.5300    9.8969   22.5456 O   0  0  0  0  0  0  0  0  0  0  0  0
    9.3760   15.1774   21.4764 O   0  0  0  0  0  0  0  0  0  0  0  0
    5.4531   10.7795   23.4321 O   0  0  0  0  0  0  0  0  0  0  0  0
    9.5298   11.7139   22.0985 O   0  0  0  0  0  0  0  0  0  0  0  0
    7.4010   14.3613   22.3540 O   0  0  0  0  0  0  0  0  0  0  0  0
   12.6941   15.7023   22.2377 H   0  0  0  0  0  0  0  0  0  0  0  0
   11.0090   14.9552   24.9348 H   0  0  0  0  0  0  0  0  0  0  0  0
   10.7809   15.9718   23.5216 H   0  0  0  0  0  0  0  0  0  0  0  0
   14.1442   11.8534   21.0455 H   0  0  0  0  0  0  0  0  0  0  0  0
   14.3953   12.1516   22.7737 H   0  0  0  0  0  0  0  0  0  0  0  0
    3.4670    9.9288   25.4125 H   0  0  0  0  0  0  0  0  0  0  0  0
    3.8906    8.3219   24.7243 H   0  0  0  0  0  0  0  0  0  0  0  0
   11.7672   11.8909   21.2398 H   0  0  0  0  0  0  0  0  0  0  0  0
   12.4015   10.7260   22.3918 H   0  0  0  0  0  0  0  0  0  0  0  0
    5.6230    9.4964   26.4538 H   0  0  0  0  0  0  0  0  0  0  0  0
    6.1874    8.6420   25.0090 H   0  0  0  0  0  0  0  0  0  0  0  0
    6.2759   14.0189   24.7002 H   0  0  0  0  0  0  0  0  0  0  0  0
    7.2099   13.4446   26.0835 H   0  0  0  0  0  0  0  0  0  0  0  0
    5.6001   11.9132   26.5480 H   0  0  0  0  0  0  0  0  0  0  0  0
    4.6647   12.4179   25.1304 H   0  0  0  0  0  0  0  0  0  0  0  0
    7.6553   10.0865   22.5754 H   0  0  0  0  0  0  0  0  0  0  0  0
    8.4001    9.0750   23.7935 H   0  0  0  0  0  0  0  0  0  0  0  0
    8.6569   15.0797   24.4560 H   0  0  0  0  0  0  0  0  0  0  0  0
    7.2944   12.5600   23.1869 H   0  0  0  0  0  0  0  0  0  0  0  0
    9.4999   12.9455   25.2391 H   0  0  0  0  0  0  0  0  0  0  0  0
   10.3662    9.8926   22.9048 H   0  0  0  0  0  0  0  0  0  0  0  0
   12.1091   11.0739   24.8152 H   0  0  0  0  0  0  0  0  0  0  0  0
   11.6948   12.6688   25.4724 H   0  0  0  0  0  0  0  0  0  0  0  0
   13.2512   12.4223   24.6571 H   0  0  0  0  0  0  0  0  0  0  0  0
    7.8744   11.2044   26.7170 H   0  0  0  0  0  0  0  0  0  0  0  0
    9.3827   10.8782   25.8420 H   0  0  0  0  0  0  0  0  0  0  0  0
    8.2254    9.5656   26.1348 H   0  0  0  0  0  0  0  0  0  0  0  0
    5.7106   14.2383   21.1645 H   0  0  0  0  0  0  0  0  0  0  0  0
    7.2698   13.9702   20.3247 H   0  0  0  0  0  0  0  0  0  0  0  0
    6.7950   15.6134   20.8294 H   0  0  0  0  0  0  0  0  0  0  0  0
  1  2  2  0  0  0  0
  1  3  1  0  0  0  0
  2  6  1  0  0  0  0
  2 18  1  0  0  0  0
  3  7  1  0  0  0  0
  3 25  2  0  0  0  0
  4  8  1  0  0  0  0
  4 26  2  0  0  0  0
  4 28  1  0  0  0  0
  5 14  1  6  0  0  0
  5 27  2  0  0  0  0
  5 30  1  0  0  0  0
  6 14  1  0  0  0  0
  7  9  1  0  0  0  0
  8 10  1  0  0  0  0
  9 18  1  0  0  0  0
 10 20  1  0  0  0  0
 11 12  1  0  0  0  0
 11 15  1  1  0  0  0
 12 20  1  0  0  0  0
 13 17  1  0  0  0  0
 13 19  1  0  0  0  0
 14 16  1  0  0  0  0
 15 16  1  6  0  0  0
 15 19  1  0  0  0  0
 16 21  1  0  0  0  0
 17 21  1  0  0  0  0
 17 29  1  6  0  0  0
 18 21  1  0  0  0  0
 18 22  1  1  0  0  0
 19 20  1  0  0  0  0
 19 23  1  1  0  0  0
 20 28  1  6  0  0  0
 21 29  1  6  0  0  0
 24 30  1  0  0  0  0
  1 31  1  0  0  0  0
  6 32  1  0  0  0  0
  6 33  1  0  0  0  0
  7 34  1  0  0  0  0
  7 35  1  0  0  0  0
  8 36  1  0  0  0  0
  8 37  1  0  0  0  0
  9 38  1  0  0  0  0
  9 39  1  0  0  0  0
 10 40  1  0  0  0  0
 10 41  1  0  0  0  0
 11 42  1  0  0  0  0
 11 43  1  0  0  0  0
 12 44  1  0  0  0  0
 12 45  1  0  0  0  0
 13 46  1  0  0  0  0
 13 47  1  0  0  0  0
 14 48  1  0  0  0  0
 15 49  1  0  0  0  0
 16 50  1  0  0  0  0
 17 51  1  0  0  0  0
 22 52  1  0  0  0  0
 22 53  1  0  0  0  0
 22 54  1  0  0  0  0
 23 55  1  0  0  0  0
 23 56  1  0  0  0  0
 23 57  1  0  0  0  0
 24 58  1  0  0  0  0
 24 59  1  0  0  0  0
 24 60  1  0  0  0  0
M  END
> <id>
EN300-7358835

> <smiles>
COC(=O)[C@@H]1CC2=CC(=O)CC[C@]2(C)[C@]34O[C@@H]4C[C@@]5(C)[C@@H](CC[C@@]65CCC(=O)O6)[C@H]13

> <MDLNUMBER>
MFCD07783647

> <IUPAC Name>
methyl (1'R,2S,2'S,9'R,10'R,11'S,15'S,17'R)-2',15'-dimethyl-5,5'-dioxo-18'-oxaspiro[oxolane-2,14'-pentacyclo[8.8.0.0^{1,17}.0^{2,7}.0^{11,15}]octadecan]-6'-ene-9'-carboxylate

> <CAS>
395665-48-2

> <URL>
https://www.enaminestore.com/catalog/EN300-7358835

> <ROCS_ShapeQuery>
x0446_0A_x1080_0A_x0929_0A_x0812_0A_x0719_0A_x1140_0A_x0528_0A_x0310_0A

> <ROCS_TanimotoCombo>
0.432 

> <ROCS_ShapeTanimoto>
0.275 

> <ROCS_ColorTanimoto>
0.158 

> <ROCS_RefTversky>
0.251 

> <ROCS_RefColorTversky>
0.186 

> <ROCS_RefTverskyCombo>
0.437 

> <ROCS_FitTversky>
1.530 

> <ROCS_FitColorTversky>
0.508 

> <ROCS_FitTverskyCombo>
2.038 

> <ROCS_ColorScore>
-6.690

> <ROCS_Overlap>
2967.286

> <ROCS_Rank>
70                  

$$$$
untitled-dbase-292412_5
  -OEChem-02082415563D

 46 48  0     0  0  0  0  0  0999 V2000
    7.1960   13.8213   23.0108 C   0  0  0  0  0  0  0  0  0  0  0  0
    9.6338   15.2495   22.8409 C   0  0  0  0  0  0  0  0  0  0  0  0
    9.2632    9.6782   23.8531 C   0  0  0  0  0  0  0  0  0  0  0  0
    7.2866   11.1007   24.4314 C   0  0  0  0  0  0  0  0  0  0  0  0
    8.1681   11.0649   22.0750 C   0  0  0  0  0  0  0  0  0  0  0  0
    9.5546   11.7265   25.2674 C   0  0  0  0  0  0  0  0  0  0  0  0
   10.4353   11.6763   22.9068 C   0  0  0  0  0  0  0  0  0  0  0  0
    7.9202   10.2219   23.3391 C   0  0  0  0  0  0  0  0  0  0  0  0
   10.2055   10.8473   24.1834 C   0  0  0  0  0  0  0  0  0  0  0  0
    8.2096   12.2976   24.7592 C   0  0  0  0  0  0  0  0  0  0  0  0
    9.0951   12.2616   22.4004 C   0  0  0  0  0  0  0  0  0  0  0  0
    8.4543   13.1558   23.4937 C   0  0  0  0  0  0  0  0  0  0  0  0
   11.6029   16.7339   21.4024 C   0  0  0  0  0  0  0  0  0  0  0  0
   12.4177   17.4828   23.6573 C   0  0  0  0  0  0  0  0  0  0  0  0
   12.4798   15.0463   23.0510 C   0  0  0  0  0  0  0  0  0  0  0  0
   11.7265   16.3647   22.8800 C   0  0  0  0  0  0  0  0  0  0  0  0
    9.2773   14.3100   23.7836 N   0  0  0  0  0  0  0  0  0  0  0  0
    6.6917   13.6543   21.9102 O   0  0  0  0  0  0  0  0  0  0  0  0
    9.3111   15.2371   21.6575 O   0  0  0  0  0  0  0  0  0  0  0  0
    6.6912   14.6407   23.9652 O   0  0  0  0  0  0  0  0  0  0  0  0
   10.4103   16.2115   23.4231 O   0  0  0  0  0  0  0  0  0  0  0  0
    9.1018    9.0610   24.7455 H   0  0  0  0  0  0  0  0  0  0  0  0
    9.7202    9.0291   23.0960 H   0  0  0  0  0  0  0  0  0  0  0  0
    6.3041   11.4568   24.0996 H   0  0  0  0  0  0  0  0  0  0  0  0
    7.1128   10.5054   25.3365 H   0  0  0  0  0  0  0  0  0  0  0  0
    8.6229   10.4423   21.2943 H   0  0  0  0  0  0  0  0  0  0  0  0
    7.2131   11.4224   21.6720 H   0  0  0  0  0  0  0  0  0  0  0  0
    9.3866   11.1336   26.1753 H   0  0  0  0  0  0  0  0  0  0  0  0
   10.2347   12.5390   25.5493 H   0  0  0  0  0  0  0  0  0  0  0  0
   11.1496   12.4829   23.1101 H   0  0  0  0  0  0  0  0  0  0  0  0
   10.8869   11.0490   22.1281 H   0  0  0  0  0  0  0  0  0  0  0  0
    7.2517    9.3867   23.1020 H   0  0  0  0  0  0  0  0  0  0  0  0
   11.1623   10.4578   24.5483 H   0  0  0  0  0  0  0  0  0  0  0  0
    7.7403   12.8974   25.5490 H   0  0  0  0  0  0  0  0  0  0  0  0
    9.2658   12.8347   21.4806 H   0  0  0  0  0  0  0  0  0  0  0  0
   11.1073   15.9338   20.8410 H   0  0  0  0  0  0  0  0  0  0  0  0
   11.0345   17.6594   21.2641 H   0  0  0  0  0  0  0  0  0  0  0  0
   12.5917   16.8638   20.9478 H   0  0  0  0  0  0  0  0  0  0  0  0
   12.5085   17.2221   24.7180 H   0  0  0  0  0  0  0  0  0  0  0  0
   11.8308   18.4075   23.6159 H   0  0  0  0  0  0  0  0  0  0  0  0
   13.4183   17.6894   23.2641 H   0  0  0  0  0  0  0  0  0  0  0  0
   12.5686   14.7812   24.1107 H   0  0  0  0  0  0  0  0  0  0  0  0
   11.9778   14.2245   22.5301 H   0  0  0  0  0  0  0  0  0  0  0  0
   13.5027   15.1292   22.6662 H   0  0  0  0  0  0  0  0  0  0  0  0
    9.6103   14.4344   24.7335 H   0  0  0  0  0  0  0  0  0  0  0  0
    5.8695   15.0866   23.6681 H   0  0  0  0  0  0  0  0  0  0  0  0
  1 12  1  0  0  0  0
  1 18  2  0  0  0  0
  1 20  1  0  0  0  0
  2 17  1  0  0  0  0
  2 19  2  0  0  0  0
  2 21  1  0  0  0  0
  3  8  1  0  0  0  0
  3  9  1  0  0  0  0
  4  8  1  0  0  0  0
  4 10  1  0  0  0  0
  5  8  1  0  0  0  0
  5 11  1  0  0  0  0
  6  9  1  0  0  0  0
  6 10  1  0  0  0  0
  7  9  1  0  0  0  0
  7 11  1  0  0  0  0
 10 12  1  0  0  0  0
 11 12  1  0  0  0  0
 12 17  1  0  0  0  0
 13 16  1  0  0  0  0
 14 16  1  0  0  0  0
 15 16  1  0  0  0  0
 16 21  1  0  0  0  0
  3 22  1  0  0  0  0
  3 23  1  0  0  0  0
  4 24  1  0  0  0  0
  4 25  1  0  0  0  0
  5 26  1  0  0  0  0
  5 27  1  0  0  0  0
  6 28  1  0  0  0  0
  6 29  1  0  0  0  0
  7 30  1  0  0  0  0
  7 31  1  0  0  0  0
  8 32  1  0  0  0  0
  9 33  1  0  0  0  0
 10 34  1  0  0  0  0
 11 35  1  0  0  0  0
 13 36  1  0  0  0  0
 13 37  1  0  0  0  0
 13 38  1  0  0  0  0
 14 39  1  0  0  0  0
 14 40  1  0  0  0  0
 14 41  1  0  0  0  0
 15 42  1  0  0  0  0
 15 43  1  0  0  0  0
 15 44  1  0  0  0  0
 17 45  1  0  0  0  0
 20 46  1  0  0  0  0
M  END
> <id>
EN300-1071128

> <smiles>
CC(C)(C)OC(=O)NC1(C2CC3CC(C2)CC1C3)C(=O)O

> <MDLNUMBER>
MFCD31736621

> <IUPAC Name>
2-{[(tert-butoxy)carbonyl]amino}adamantane-2-carboxylic acid

> <CAS>
1411614-11-3

> <Purity>
95

> <URL>
https://www.enaminestore.com/catalog/EN300-1071128

> <ROCS_ShapeQuery>
x0446_0A_x1080_0A_x0929_0A_x0812_0A_x0719_0A_x1140_0A_x0528_0A_x0310_0A

> <ROCS_TanimotoCombo>
0.432 

> <ROCS_ShapeTanimoto>
0.246 

> <ROCS_ColorTanimoto>
0.186 

> <ROCS_RefTversky>
0.223 

> <ROCS_RefColorTversky>
0.217 

> <ROCS_RefTverskyCombo>
0.440 

> <ROCS_FitTversky>
1.727 

> <ROCS_FitColorTversky>
0.569 

> <ROCS_FitTverskyCombo>
2.295 

> <ROCS_ColorScore>
-7.789

> <ROCS_Overlap>
2635.247

> <ROCS_Rank>
71                  

$$$$
untitled-dbase-48433_3
  -OEChem-02082415563D

 50 54  0     0  0  0  0  0  0999 V2000
    7.4012   10.5590   24.5938 C   0  0  0  0  0  0  0  0  0  0  0  0
    7.6181   11.9378   24.4881 C   0  0  0  0  0  0  0  0  0  0  0  0
    8.8451   12.0567   23.8762 C   0  0  0  0  0  0  0  0  0  0  0  0
   11.2902   11.5700   22.6559 C   0  0  0  0  0  0  0  0  0  0  0  0
   10.5386   10.5224   23.0286 C   0  0  0  0  0  0  0  0  0  0  0  0
   10.7207   12.9203   22.9432 C   0  0  0  0  0  0  0  0  0  0  0  0
    6.7782   13.0185   24.9090 C   0  0  0  0  0  0  0  0  0  0  0  0
   13.9883   15.2167   21.3102 C   0  0  0  0  0  0  0  0  0  0  0  0
   11.9088   16.5749   20.9595 C   0  0  0  0  0  0  0  0  0  0  0  0
   13.0358   16.5636   23.1999 C   0  0  0  0  0  0  0  0  0  0  0  0
   11.7774   14.0713   21.0107 C   0  0  0  0  0  0  0  0  0  0  0  0
   12.9064   14.0600   23.2549 C   0  0  0  0  0  0  0  0  0  0  0  0
   10.8235   15.4190   22.9034 C   0  0  0  0  0  0  0  0  0  0  0  0
   12.6357   15.2731   20.5793 C   0  0  0  0  0  0  0  0  0  0  0  0
   13.7692   15.2619   22.8323 C   0  0  0  0  0  0  0  0  0  0  0  0
   11.6775   16.6271   22.4798 C   0  0  0  0  0  0  0  0  0  0  0  0
   11.5442   14.1076   22.5343 C   0  0  0  0  0  0  0  0  0  0  0  0
    5.8548   14.5037   27.5653 C   0  0  0  0  0  0  0  0  0  0  0  0
    5.1236   13.6912   26.5180 C   0  0  0  0  0  0  0  0  0  0  0  0
   10.9757    9.1060   22.8070 C   0  0  0  0  0  0  0  0  0  0  0  0
    8.4020    9.8375   24.0928 N   0  0  0  0  0  0  0  0  0  0  0  0
    9.5746   13.1475   23.5144 N   0  0  0  0  0  0  0  0  0  0  0  0
    9.3016   10.7576   23.6460 N   0  0  0  0  0  0  0  0  0  0  0  0
    6.7241   14.1449   24.3675 O   0  0  0  0  0  0  0  0  0  0  0  0
    6.0085   12.6909   26.0023 O   0  0  0  0  0  0  0  0  0  0  0  0
   12.1813    9.0630   22.2052 F   0  0  0  0  0  0  0  0  0  0  0  0
   11.0722    8.4418   23.9762 F   0  0  0  0  0  0  0  0  0  0  0  0
   10.0987    8.4438   22.0258 F   0  0  0  0  0  0  0  0  0  0  0  0
    6.5520   10.0410   25.0166 H   0  0  0  0  0  0  0  0  0  0  0  0
   12.2545   11.4766   22.1745 H   0  0  0  0  0  0  0  0  0  0  0  0
   14.5239   14.2995   21.0361 H   0  0  0  0  0  0  0  0  0  0  0  0
   14.6174   16.0591   20.9978 H   0  0  0  0  0  0  0  0  0  0  0  0
   12.5018   17.4411   20.6412 H   0  0  0  0  0  0  0  0  0  0  0  0
   10.9487   16.6352   20.4325 H   0  0  0  0  0  0  0  0  0  0  0  0
   12.8870   16.6160   24.2854 H   0  0  0  0  0  0  0  0  0  0  0  0
   13.6483   17.4298   22.9208 H   0  0  0  0  0  0  0  0  0  0  0  0
   10.8178   14.0856   20.4774 H   0  0  0  0  0  0  0  0  0  0  0  0
   12.2747   13.1359   20.7216 H   0  0  0  0  0  0  0  0  0  0  0  0
   13.4311   13.1243   23.0212 H   0  0  0  0  0  0  0  0  0  0  0  0
   12.7625   14.0668   24.3433 H   0  0  0  0  0  0  0  0  0  0  0  0
   10.6305   15.4587   23.9835 H   0  0  0  0  0  0  0  0  0  0  0  0
    9.8416   15.4665   22.4142 H   0  0  0  0  0  0  0  0  0  0  0  0
   12.7983   15.2425   19.4963 H   0  0  0  0  0  0  0  0  0  0  0  0
   14.7356   15.2233   23.3470 H   0  0  0  0  0  0  0  0  0  0  0  0
   11.1611   17.5564   22.7443 H   0  0  0  0  0  0  0  0  0  0  0  0
    6.1835   13.8685   28.3926 H   0  0  0  0  0  0  0  0  0  0  0  0
    6.7295   14.9975   27.1295 H   0  0  0  0  0  0  0  0  0  0  0  0
    5.2081   15.2935   27.9618 H   0  0  0  0  0  0  0  0  0  0  0  0
    4.7976   14.3323   25.6936 H   0  0  0  0  0  0  0  0  0  0  0  0
    4.2504   13.1979   26.9553 H   0  0  0  0  0  0  0  0  0  0  0  0
  1  2  1  0  0  0  0
  1 21  2  0  0  0  0
  2  3  2  0  0  0  0
  2  7  1  0  0  0  0
  3 22  1  0  0  0  0
  3 23  1  0  0  0  0
  4  5  2  0  0  0  0
  4  6  1  0  0  0  0
  5 20  1  0  0  0  0
  5 23  1  0  0  0  0
  6 17  1  0  0  0  0
  6 22  2  0  0  0  0
  7 24  2  0  0  0  0
  7 25  1  0  0  0  0
  8 14  1  0  0  0  0
  8 15  1  0  0  0  0
  9 14  1  0  0  0  0
  9 16  1  0  0  0  0
 10 15  1  0  0  0  0
 10 16  1  0  0  0  0
 11 14  1  0  0  0  0
 11 17  1  0  0  0  0
 12 15  1  0  0  0  0
 12 17  1  0  0  0  0
 13 16  1  0  0  0  0
 13 17  1  0  0  0  0
 18 19  1  0  0  0  0
 19 25  1  0  0  0  0
 20 26  1  0  0  0  0
 20 27  1  0  0  0  0
 20 28  1  0  0  0  0
 21 23  1  0  0  0  0
  1 29  1  0  0  0  0
  4 30  1  0  0  0  0
  8 31  1  0  0  0  0
  8 32  1  0  0  0  0
  9 33  1  0  0  0  0
  9 34  1  0  0  0  0
 10 35  1  0  0  0  0
 10 36  1  0  0  0  0
 11 37  1  0  0  0  0
 11 38  1  0  0  0  0
 12 39  1  0  0  0  0
 12 40  1  0  0  0  0
 13 41  1  0  0  0  0
 13 42  1  0  0  0  0
 14 43  1  0  0  0  0
 15 44  1  0  0  0  0
 16 45  1  0  0  0  0
 18 46  1  0  0  0  0
 18 47  1  0  0  0  0
 18 48  1  0  0  0  0
 19 49  1  0  0  0  0
 19 50  1  0  0  0  0
M  END
> <id>
EN300-229017

> <smiles>
CCOC(=O)C=1C=NN2C(=CC(=NC12)C3(CC4CC5CC(C4)C3)C5)C(F)(F)F

> <MDLNUMBER>
MFCD03468334

> <IUPAC Name>
ethyl 5-(adamantan-1-yl)-7-(trifluoromethyl)pyrazolo[1,5-a]pyrimidine-3-carboxylate

> <CAS>
676589-12-1

> <URL>
https://www.enaminestore.com/catalog/EN300-229017

> <ROCS_ShapeQuery>
x0446_0A_x1080_0A_x0929_0A_x0812_0A_x0719_0A_x1140_0A_x0528_0A_x0310_0A

> <ROCS_TanimotoCombo>
0.432 

> <ROCS_ShapeTanimoto>
0.278 

> <ROCS_ColorTanimoto>
0.155 

> <ROCS_RefTversky>
0.252 

> <ROCS_RefColorTversky>
0.182 

> <ROCS_RefTverskyCombo>
0.433 

> <ROCS_FitTversky>
1.588 

> <ROCS_FitColorTversky>
0.510 

> <ROCS_FitTverskyCombo>
2.098 

> <ROCS_ColorScore>
-6.519

> <ROCS_Overlap>
2977.042

> <ROCS_Rank>
72                  

$$$$
untitled-dbase-275386_7
  -OEChem-02082415563D

 38 41  0     1  0  0  0  0  0999 V2000
    5.8921   13.2279   24.8402 C   0  0  0  0  0  0  0  0  0  0  0  0
    5.4495   11.9245   25.0093 C   0  0  0  0  0  0  0  0  0  0  0  0
    7.2018   13.4580   24.4244 C   0  0  0  0  0  0  0  0  0  0  0  0
    6.3216   10.8663   24.7600 C   0  0  0  0  0  0  0  0  0  0  0  0
   11.2952   15.4056   23.5252 C   0  0  0  0  0  0  0  0  0  0  0  0
   10.1741   14.3229   21.7287 C   0  0  0  0  0  0  0  0  0  0  0  0
   11.1686   14.2989   22.6932 C   0  0  0  0  0  0  0  0  0  0  0  0
    8.0758   12.4022   24.1741 C   0  0  0  0  0  0  0  0  0  0  0  0
    7.6319   11.0919   24.3427 C   0  0  0  0  0  0  0  0  0  0  0  0
   10.4356   16.4874   23.3696 C   0  0  0  0  0  0  0  0  0  0  0  0
   10.1694   11.6068   23.5216 C   0  0  0  0  0  0  0  0  0  0  0  0
    9.7347   10.2924   23.6866 C   0  0  0  0  0  0  0  0  0  0  0  0
    9.4740   16.4135   22.3747 C   0  0  0  0  0  0  0  0  0  0  0  0
   12.0623   13.1380   22.8332 C   0  0  0  0  0  0  0  0  0  0  0  0
   12.4508   10.7381   23.1762 C   0  0  0  0  0  0  0  0  0  0  0  0
   11.8037    9.4519   22.7014 C   0  0  0  0  0  0  0  0  0  0  0  0
   10.0465    7.8634   23.5107 C   0  0  0  0  0  0  0  0  0  0  0  0
    9.3205   15.3554   21.5474 N   0  0  0  0  0  0  0  0  0  0  0  0
    9.3320   12.6388   23.7760 N   0  0  0  0  0  0  0  0  0  0  0  0
    8.4612   10.0654   24.1037 N   0  0  0  0  0  0  0  0  0  0  0  0
   11.5262   11.8699   23.1235 N   0  0  0  0  0  0  0  0  0  0  0  0
   10.5802    9.2130   23.4431 N   0  0  2  0  0  0  0  0  0  0  0  0
   13.2561   13.3590   22.6207 O   0  0  0  0  0  0  0  0  0  0  0  0
   10.6088   17.8499   24.4076 Cl  0  0  0  0  0  0  0  0  0  0  0  0
    8.3430   17.6756   22.0661 Cl  0  0  0  0  0  0  0  0  0  0  0  0
    5.2239   14.0623   25.0294 H   0  0  0  0  0  0  0  0  0  0  0  0
    4.4320   11.7291   25.3338 H   0  0  0  0  0  0  0  0  0  0  0  0
    7.5393   14.4840   24.2948 H   0  0  0  0  0  0  0  0  0  0  0  0
    5.9640    9.8480   24.8973 H   0  0  0  0  0  0  0  0  0  0  0  0
   12.0660   15.4194   24.2925 H   0  0  0  0  0  0  0  0  0  0  0  0
   10.0258   13.4888   21.0494 H   0  0  0  0  0  0  0  0  0  0  0  0
   12.8130   10.5899   24.1957 H   0  0  0  0  0  0  0  0  0  0  0  0
   13.3142   10.9919   22.5530 H   0  0  0  0  0  0  0  0  0  0  0  0
   11.5932    9.5333   21.6289 H   0  0  0  0  0  0  0  0  0  0  0  0
   12.4902    8.6060   22.8327 H   0  0  0  0  0  0  0  0  0  0  0  0
   10.8468    7.1408   23.2928 H   0  0  0  0  0  0  0  0  0  0  0  0
    9.6486    7.6767   24.5190 H   0  0  0  0  0  0  0  0  0  0  0  0
    9.2398    7.7508   22.7714 H   0  0  0  0  0  0  0  0  0  0  0  0
  1  2  1  0  0  0  0
  1  3  2  0  0  0  0
  2  4  2  0  0  0  0
  3  8  1  0  0  0  0
  4  9  1  0  0  0  0
  5  7  2  0  0  0  0
  5 10  1  0  0  0  0
  6  7  1  0  0  0  0
  6 18  2  0  0  0  0
  7 14  1  0  0  0  0
  8  9  1  0  0  0  0
  8 19  2  0  0  0  0
  9 20  2  0  0  0  0
 10 13  2  0  0  0  0
 10 24  1  0  0  0  0
 11 12  2  0  0  0  0
 11 19  1  0  0  0  0
 11 21  1  0  0  0  0
 12 20  1  0  0  0  0
 12 22  1  0  0  0  0
 13 18  1  0  0  0  0
 13 25  1  0  0  0  0
 14 21  1  0  0  0  0
 14 23  2  0  0  0  0
 15 16  1  0  0  0  0
 15 21  1  0  0  0  0
 16 22  1  0  0  0  0
 17 22  1  0  0  0  0
  1 26  1  0  0  0  0
  2 27  1  0  0  0  0
  3 28  1  0  0  0  0
  4 29  1  0  0  0  0
  5 30  1  0  0  0  0
  6 31  1  0  0  0  0
 15 32  1  0  0  0  0
 15 33  1  0  0  0  0
 16 34  1  0  0  0  0
 16 35  1  0  0  0  0
 17 36  1  0  0  0  0
 17 37  1  0  0  0  0
 17 38  1  0  0  0  0
M  END
> <id>
EN300-18488813

> <smiles>
CN1CCN(C(=O)C=2C=NC(Cl)=C(Cl)C2)C=3N=C4C=CC=CC4=NC13

> <MDLNUMBER>
MFCD09530718

> <IUPAC Name>
2,3-dichloro-5-{4-methyl-1H,2H,3H,4H-pyrazino[2,3-b]quinoxaline-1-carbonyl}pyridine

> <CAS>
938749-26-9

> <URL>
https://www.enaminestore.com/catalog/EN300-18488813

> <ROCS_ShapeQuery>
x0446_0A_x1080_0A_x0929_0A_x0812_0A_x0719_0A_x1140_0A_x0528_0A_x0310_0A

> <ROCS_TanimotoCombo>
0.432 

> <ROCS_ShapeTanimoto>
0.262 

> <ROCS_ColorTanimoto>
0.170 

> <ROCS_RefTversky>
0.238 

> <ROCS_RefColorTversky>
0.184 

> <ROCS_RefTverskyCombo>
0.422 

> <ROCS_FitTversky>
1.630 

> <ROCS_FitColorTversky>
0.694 

> <ROCS_FitTverskyCombo>
2.324 

> <ROCS_ColorScore>
-6.580

> <ROCS_Overlap>
2810.030

> <ROCS_Rank>
73                  

$$$$
untitled-dbase-301815_6
  -OEChem-02082415563D

 32 34  0     1  0  0  0  0  0999 V2000
    7.3273   10.5742   24.7252 C   0  0  0  0  0  0  0  0  0  0  0  0
    9.1043    9.6631   23.2038 C   0  0  0  0  0  0  0  0  0  0  0  0
    9.7309   11.1999   25.0919 C   0  0  0  0  0  0  0  0  0  0  0  0
    7.5154   11.3588   22.3479 C   0  0  0  0  0  0  0  0  0  0  0  0
    8.1431   12.8984   24.2396 C   0  0  0  0  0  0  0  0  0  0  0  0
    7.6500   10.1470   23.2807 C   0  0  2  0  0  0  0  0  0  0  0  0
    8.2810   11.6946   25.1823 C   0  0  1  0  0  0  0  0  0  0  0  0
   10.0293   10.8021   23.6433 C   0  0  0  0  0  0  0  0  0  0  0  0
    8.4907   12.4592   22.8052 C   0  0  0  0  0  0  0  0  0  0  0  0
    8.4441   13.6501   21.8513 C   0  0  0  0  0  0  0  0  0  0  0  0
   10.9840   13.7318   21.0811 N   0  0  0  0  0  0  0  0  0  0  0  0
    9.6454   15.9132   21.3389 O   0  0  0  0  0  0  0  0  0  0  0  0
   10.3128   14.6154   23.4018 O   0  0  0  0  0  0  0  0  0  0  0  0
    9.8364   11.9387   22.7824 O   0  0  0  0  0  0  0  0  0  0  0  0
    9.8844   14.6457   22.0119 S   0  0  0  0  0  0  0  0  0  0  0  0
    6.2888   10.9219   24.7869 H   0  0  0  0  0  0  0  0  0  0  0  0
    7.4169    9.7119   25.3974 H   0  0  0  0  0  0  0  0  0  0  0  0
    9.2502    8.7812   23.8383 H   0  0  0  0  0  0  0  0  0  0  0  0
    9.3376    9.3728   22.1722 H   0  0  0  0  0  0  0  0  0  0  0  0
   10.4099   12.0028   25.4035 H   0  0  0  0  0  0  0  0  0  0  0  0
    9.8899   10.3501   25.7658 H   0  0  0  0  0  0  0  0  0  0  0  0
    7.7508   11.0479   21.3220 H   0  0  0  0  0  0  0  0  0  0  0  0
    6.4826   11.7280   22.3501 H   0  0  0  0  0  0  0  0  0  0  0  0
    7.1252   13.3043   24.2870 H   0  0  0  0  0  0  0  0  0  0  0  0
    8.8281   13.6903   24.5688 H   0  0  0  0  0  0  0  0  0  0  0  0
    6.9692    9.3495   22.9642 H   0  0  0  0  0  0  0  0  0  0  0  0
    8.0463   11.9912   26.2102 H   0  0  0  0  0  0  0  0  0  0  0  0
   11.0747   10.4903   23.5502 H   0  0  0  0  0  0  0  0  0  0  0  0
    7.5817   14.2766   22.0719 H   0  0  0  0  0  0  0  0  0  0  0  0
    8.3922   13.3057   20.8202 H   0  0  0  0  0  0  0  0  0  0  0  0
   11.2766   14.1165   20.1744 H   0  0  0  0  0  0  0  0  0  0  0  0
   11.7309   13.2325   21.5794 H   0  0  0  0  0  0  0  0  0  0  0  0
  1  6  1  0  0  0  0
  1  7  1  0  0  0  0
  2  6  1  0  0  0  0
  2  8  1  0  0  0  0
  3  7  1  0  0  0  0
  3  8  1  0  0  0  0
  4  6  1  0  0  0  0
  4  9  1  0  0  0  0
  5  7  1  0  0  0  0
  5  9  1  0  0  0  0
  8 14  1  0  0  0  0
  9 10  1  0  0  0  0
  9 14  1  0  0  0  0
 10 15  1  0  0  0  0
 11 15  1  0  0  0  0
 12 15  2  0  0  0  0
 13 15  2  0  0  0  0
  1 16  1  0  0  0  0
  1 17  1  0  0  0  0
  2 18  1  0  0  0  0
  2 19  1  0  0  0  0
  3 20  1  0  0  0  0
  3 21  1  0  0  0  0
  4 22  1  0  0  0  0
  4 23  1  0  0  0  0
  5 24  1  0  0  0  0
  5 25  1  0  0  0  0
  6 26  1  0  0  0  0
  7 27  1  0  0  0  0
  8 28  1  0  0  0  0
 10 29  1  0  0  0  0
 10 30  1  0  0  0  0
 11 31  1  0  0  0  0
 11 32  1  0  0  0  0
M  END
> <id>
EN300-6729883

> <smiles>
NS(=O)(=O)CC1(CC2CC3CC(C2)O1)C3

> <IUPAC Name>
{2-oxatricyclo[3.3.1.1,3,7]decan-1-yl}methanesulfonamide

> <CAS>
2287335-32-2

> <Purity>
95

> <URL>
https://www.enaminestore.com/catalog/EN300-6729883

> <ROCS_ShapeQuery>
x0446_0A_x1080_0A_x0929_0A_x0812_0A_x0719_0A_x1140_0A_x0528_0A_x0310_0A

> <ROCS_TanimotoCombo>
0.432 

> <ROCS_ShapeTanimoto>
0.209 

> <ROCS_ColorTanimoto>
0.223 

> <ROCS_RefTversky>
0.191 

> <ROCS_RefColorTversky>
0.243 

> <ROCS_RefTverskyCombo>
0.434 

> <ROCS_FitTversky>
1.809 

> <ROCS_FitColorTversky>
0.732 

> <ROCS_FitTverskyCombo>
2.540 

> <ROCS_ColorScore>
-8.713

> <ROCS_Overlap>
2254.759

> <ROCS_Rank>
74                  

$$$$
untitled-dbase-518919_4
  -OEChem-02082415563D

 56 60  0     0  0  0  0  0  0999 V2000
   11.4706   14.4388   20.2978 C   0  0  0  0  0  0  0  0  0  0  0  0
   11.3457   14.2748   21.6728 C   0  0  0  0  0  0  0  0  0  0  0  0
   10.2753   11.5876   23.4961 C   0  0  0  0  0  0  0  0  0  0  0  0
    9.2883    9.4263   23.7197 C   0  0  0  0  0  0  0  0  0  0  0  0
    9.2457   15.2778   20.2482 C   0  0  0  0  0  0  0  0  0  0  0  0
   10.3870   10.2020   23.3877 C   0  0  0  0  0  0  0  0  0  0  0  0
    9.0776   12.1595   23.9302 C   0  0  0  0  0  0  0  0  0  0  0  0
   10.4052   14.9493   19.5645 C   0  0  0  0  0  0  0  0  0  0  0  0
    8.0434   11.2775   24.2350 C   0  0  0  0  0  0  0  0  0  0  0  0
   10.1442   14.6336   22.2621 C   0  0  0  0  0  0  0  0  0  0  0  0
    6.7988   11.8358   24.6842 C   0  0  0  0  0  0  0  0  0  0  0  0
    5.3967   13.3996   25.2370 C   0  0  0  0  0  0  0  0  0  0  0  0
    7.6592   14.1445   24.5104 C   0  0  0  0  0  0  0  0  0  0  0  0
   12.4905   10.2765   22.0310 C   0  0  0  0  0  0  0  0  0  0  0  0
   12.1912    8.5298   23.7257 C   0  0  0  0  0  0  0  0  0  0  0  0
   13.6885   10.7928   22.8206 C   0  0  0  0  0  0  0  0  0  0  0  0
   13.4101    9.0984   24.4535 C   0  0  0  0  0  0  0  0  0  0  0  0
    3.3235   14.6108   25.9989 C   0  0  0  0  0  0  0  0  0  0  0  0
    4.7904   15.6242   24.2219 C   0  0  0  0  0  0  0  0  0  0  0  0
    5.5281   15.5932   26.5960 C   0  0  0  0  0  0  0  0  0  0  0  0
    9.9742   14.4702   23.7449 C   0  0  0  0  0  0  0  0  0  0  0  0
    4.8047   14.7250   25.5039 C   0  0  0  0  0  0  0  0  0  0  0  0
    8.1105    9.9310   24.1436 N   0  0  0  0  0  0  0  0  0  0  0  0
    9.0871   15.1326   21.5829 N   0  0  0  0  0  0  0  0  0  0  0  0
    5.6735   11.2535   25.0353 N   0  0  0  0  0  0  0  0  0  0  0  0
    4.7843   12.2465   25.3860 N   0  0  0  0  0  0  0  0  0  0  0  0
    6.6760   13.1966   24.7946 N   0  0  0  0  0  0  0  0  0  0  0  0
    8.8693   13.5746   24.0726 N   0  0  0  0  0  0  0  0  0  0  0  0
   11.5705    9.6149   22.9586 N   0  0  0  0  0  0  0  0  0  0  0  0
    7.3975   15.3304   24.6582 O   0  0  0  0  0  0  0  0  0  0  0  0
   14.3115    9.7121   23.5253 O   0  0  0  0  0  0  0  0  0  0  0  0
   10.5234   15.1666   17.8676 Cl  0  0  0  0  0  0  0  0  0  0  0  0
   12.4028   14.1655   19.8107 H   0  0  0  0  0  0  0  0  0  0  0  0
   12.1693   13.8776   22.2564 H   0  0  0  0  0  0  0  0  0  0  0  0
   11.1333   12.2015   23.2371 H   0  0  0  0  0  0  0  0  0  0  0  0
    9.3208    8.3432   23.6535 H   0  0  0  0  0  0  0  0  0  0  0  0
    8.3789   15.6808   19.7331 H   0  0  0  0  0  0  0  0  0  0  0  0
   12.0025   11.1105   21.5175 H   0  0  0  0  0  0  0  0  0  0  0  0
   12.8286    9.5539   21.2801 H   0  0  0  0  0  0  0  0  0  0  0  0
   12.5084    7.7387   23.0414 H   0  0  0  0  0  0  0  0  0  0  0  0
   11.4937    8.1099   24.4525 H   0  0  0  0  0  0  0  0  0  0  0  0
   14.4298   11.2132   22.1377 H   0  0  0  0  0  0  0  0  0  0  0  0
   13.3997   11.5769   23.5263 H   0  0  0  0  0  0  0  0  0  0  0  0
   13.1169    9.8246   25.2207 H   0  0  0  0  0  0  0  0  0  0  0  0
   13.9504    8.2895   24.9547 H   0  0  0  0  0  0  0  0  0  0  0  0
    2.8596   15.5826   26.2046 H   0  0  0  0  0  0  0  0  0  0  0  0
    2.6948   14.1070   25.2566 H   0  0  0  0  0  0  0  0  0  0  0  0
    3.2818   14.0193   26.9211 H   0  0  0  0  0  0  0  0  0  0  0  0
    4.3494   16.6051   24.4302 H   0  0  0  0  0  0  0  0  0  0  0  0
    5.7895   15.8038   23.8078 H   0  0  0  0  0  0  0  0  0  0  0  0
    4.1852   15.1508   23.4397 H   0  0  0  0  0  0  0  0  0  0  0  0
    5.0516   16.5676   26.7581 H   0  0  0  0  0  0  0  0  0  0  0  0
    5.5329   15.0730   27.5610 H   0  0  0  0  0  0  0  0  0  0  0  0
    6.5677   15.7875   26.3074 H   0  0  0  0  0  0  0  0  0  0  0  0
   10.8851   14.0609   24.1952 H   0  0  0  0  0  0  0  0  0  0  0  0
    9.7781   15.4339   24.2265 H   0  0  0  0  0  0  0  0  0  0  0  0
  1  2  2  0  0  0  0
  1  8  1  0  0  0  0
  2 10  1  0  0  0  0
  3  6  2  0  0  0  0
  3  7  1  0  0  0  0
  4  6  1  0  0  0  0
  4 23  2  0  0  0  0
  5  8  2  0  0  0  0
  5 24  1  0  0  0  0
  6 29  1  0  0  0  0
  7  9  2  0  0  0  0
  7 28  1  0  0  0  0
  8 32  1  0  0  0  0
  9 11  1  0  0  0  0
  9 23  1  0  0  0  0
 10 21  1  0  0  0  0
 10 24  2  0  0  0  0
 11 25  2  0  0  0  0
 11 27  1  0  0  0  0
 12 22  1  0  0  0  0
 12 26  2  0  0  0  0
 12 27  1  0  0  0  0
 13 27  1  0  0  0  0
 13 28  1  0  0  0  0
 13 30  2  0  0  0  0
 14 16  1  0  0  0  0
 14 29  1  0  0  0  0
 15 17  1  0  0  0  0
 15 29  1  0  0  0  0
 16 31  1  0  0  0  0
 17 31  1  0  0  0  0
 18 22  1  0  0  0  0
 19 22  1  0  0  0  0
 20 22  1  0  0  0  0
 21 28  1  0  0  0  0
 25 26  1  0  0  0  0
  1 33  1  0  0  0  0
  2 34  1  0  0  0  0
  3 35  1  0  0  0  0
  4 36  1  0  0  0  0
  5 37  1  0  0  0  0
 14 38  1  0  0  0  0
 14 39  1  0  0  0  0
 15 40  1  0  0  0  0
 15 41  1  0  0  0  0
 16 42  1  0  0  0  0
 16 43  1  0  0  0  0
 17 44  1  0  0  0  0
 17 45  1  0  0  0  0
 18 46  1  0  0  0  0
 18 47  1  0  0  0  0
 18 48  1  0  0  0  0
 19 49  1  0  0  0  0
 19 50  1  0  0  0  0
 19 51  1  0  0  0  0
 20 52  1  0  0  0  0
 20 53  1  0  0  0  0
 20 54  1  0  0  0  0
 21 55  1  0  0  0  0
 21 56  1  0  0  0  0
M  END
> <id>
EN300-26674597

> <smiles>
CC(C)(C)C1=NN=C2C=3N=CC(=CC3N(CC=4C=CC(Cl)=CN4)C(=O)N12)N5CCOCC5

> <MDLNUMBER>
MFCD34550844

> <IUPAC Name>
5-tert-butyl-8-[(5-chloropyridin-2-yl)methyl]-11-(morpholin-4-yl)-3,4,6,8,13-pentaazatricyclo[7.4.0.0,2,6]trideca-1(9),2,4,10,12-pentaen-7-one

> <CAS>
2408770-93-2

> <Purity>
95

> <URL>
https://www.enaminestore.com/catalog/EN300-26674597

> <ROCS_ShapeQuery>
x0446_0A_x1080_0A_x0929_0A_x0812_0A_x0719_0A_x1140_0A_x0528_0A_x0310_0A

> <ROCS_TanimotoCombo>
0.432 

> <ROCS_ShapeTanimoto>
0.267 

> <ROCS_ColorTanimoto>
0.165 

> <ROCS_RefTversky>
0.247 

> <ROCS_RefColorTversky>
0.195 

> <ROCS_RefTverskyCombo>
0.442 

> <ROCS_FitTversky>
1.432 

> <ROCS_FitColorTversky>
0.516 

> <ROCS_FitTverskyCombo>
1.948 

> <ROCS_ColorScore>
-7.005

> <ROCS_Overlap>
2926.889

> <ROCS_Rank>
75                  

$$$$
untitled-dbase-520358_4
  -OEChem-02082415563D

 56 60  0     0  0  0  0  0  0999 V2000
   11.4701   14.4394   20.2976 C   0  0  0  0  0  0  0  0  0  0  0  0
   11.3450   14.2740   21.6725 C   0  0  0  0  0  0  0  0  0  0  0  0
   10.2750   11.5870   23.4965 C   0  0  0  0  0  0  0  0  0  0  0  0
    9.2879    9.4258   23.7204 C   0  0  0  0  0  0  0  0  0  0  0  0
    9.2456   15.2795   20.2488 C   0  0  0  0  0  0  0  0  0  0  0  0
   10.3866   10.2014   23.3882 C   0  0  0  0  0  0  0  0  0  0  0  0
    9.0773   12.1590   23.9307 C   0  0  0  0  0  0  0  0  0  0  0  0
   10.4049   14.9511   19.5649 C   0  0  0  0  0  0  0  0  0  0  0  0
    8.0431   11.2771   24.2357 C   0  0  0  0  0  0  0  0  0  0  0  0
   10.1436   14.6329   22.2622 C   0  0  0  0  0  0  0  0  0  0  0  0
    6.7986   11.8354   24.6850 C   0  0  0  0  0  0  0  0  0  0  0  0
    5.3966   13.3993   25.2379 C   0  0  0  0  0  0  0  0  0  0  0  0
    7.6590   14.1441   24.5108 C   0  0  0  0  0  0  0  0  0  0  0  0
   12.4899   10.2757   22.0311 C   0  0  0  0  0  0  0  0  0  0  0  0
   12.1908    8.5292   23.7261 C   0  0  0  0  0  0  0  0  0  0  0  0
   13.6880   10.7922   22.8206 C   0  0  0  0  0  0  0  0  0  0  0  0
   13.4098    9.0979   24.4537 C   0  0  0  0  0  0  0  0  0  0  0  0
    3.3235   14.6106   25.9999 C   0  0  0  0  0  0  0  0  0  0  0  0
    4.7901   15.6238   24.2226 C   0  0  0  0  0  0  0  0  0  0  0  0
    5.5282   15.5930   26.5966 C   0  0  0  0  0  0  0  0  0  0  0  0
    9.9739   14.4697   23.7450 C   0  0  0  0  0  0  0  0  0  0  0  0
    4.8047   14.7247   25.5047 C   0  0  0  0  0  0  0  0  0  0  0  0
    8.1102    9.9305   24.1445 N   0  0  0  0  0  0  0  0  0  0  0  0
    9.0869   15.1331   21.5833 N   0  0  0  0  0  0  0  0  0  0  0  0
    5.6733   11.2531   25.0364 N   0  0  0  0  0  0  0  0  0  0  0  0
    4.7842   12.2462   25.3871 N   0  0  0  0  0  0  0  0  0  0  0  0
    6.6758   13.1962   24.7953 N   0  0  0  0  0  0  0  0  0  0  0  0
    8.8691   13.5741   24.0729 N   0  0  0  0  0  0  0  0  0  0  0  0
   11.5700    9.6143   22.9590 N   0  0  0  0  0  0  0  0  0  0  0  0
    7.3973   15.3300   24.6586 O   0  0  0  0  0  0  0  0  0  0  0  0
   14.3111    9.7115   23.5253 O   0  0  0  0  0  0  0  0  0  0  0  0
   10.4968   15.1216   18.2412 F   0  0  0  0  0  0  0  0  0  0  0  0
   12.3952   14.1703   19.7973 H   0  0  0  0  0  0  0  0  0  0  0  0
   12.1693   13.8781   22.2560 H   0  0  0  0  0  0  0  0  0  0  0  0
   11.1329   12.2009   23.2372 H   0  0  0  0  0  0  0  0  0  0  0  0
    9.3204    8.3426   23.6544 H   0  0  0  0  0  0  0  0  0  0  0  0
    8.3858   15.6814   19.7231 H   0  0  0  0  0  0  0  0  0  0  0  0
   12.0018   11.1096   21.5176 H   0  0  0  0  0  0  0  0  0  0  0  0
   12.8279    9.5531   21.2803 H   0  0  0  0  0  0  0  0  0  0  0  0
   12.5079    7.7380   23.0419 H   0  0  0  0  0  0  0  0  0  0  0  0
   11.4934    8.1094   24.4531 H   0  0  0  0  0  0  0  0  0  0  0  0
   14.4292   11.2125   22.1375 H   0  0  0  0  0  0  0  0  0  0  0  0
   13.3994   11.5763   23.5262 H   0  0  0  0  0  0  0  0  0  0  0  0
   13.1168    9.8242   25.2209 H   0  0  0  0  0  0  0  0  0  0  0  0
   13.9502    8.2891   24.9549 H   0  0  0  0  0  0  0  0  0  0  0  0
    2.8597   15.5824   26.2056 H   0  0  0  0  0  0  0  0  0  0  0  0
    2.6947   14.1067   25.2577 H   0  0  0  0  0  0  0  0  0  0  0  0
    3.2820   14.0191   26.9222 H   0  0  0  0  0  0  0  0  0  0  0  0
    4.3491   16.6047   24.4309 H   0  0  0  0  0  0  0  0  0  0  0  0
    5.7892   15.8033   23.8083 H   0  0  0  0  0  0  0  0  0  0  0  0
    4.1849   15.1503   23.4405 H   0  0  0  0  0  0  0  0  0  0  0  0
    5.0517   16.5674   26.7586 H   0  0  0  0  0  0  0  0  0  0  0  0
    5.5331   15.0730   27.5616 H   0  0  0  0  0  0  0  0  0  0  0  0
    6.5678   15.7873   26.3078 H   0  0  0  0  0  0  0  0  0  0  0  0
   10.8848   14.0604   24.1951 H   0  0  0  0  0  0  0  0  0  0  0  0
    9.7778   15.4334   24.2265 H   0  0  0  0  0  0  0  0  0  0  0  0
  1  2  2  0  0  0  0
  1  8  1  0  0  0  0
  2 10  1  0  0  0  0
  3  6  2  0  0  0  0
  3  7  1  0  0  0  0
  4  6  1  0  0  0  0
  4 23  2  0  0  0  0
  5  8  2  0  0  0  0
  5 24  1  0  0  0  0
  6 29  1  0  0  0  0
  7  9  2  0  0  0  0
  7 28  1  0  0  0  0
  8 32  1  0  0  0  0
  9 11  1  0  0  0  0
  9 23  1  0  0  0  0
 10 21  1  0  0  0  0
 10 24  2  0  0  0  0
 11 25  2  0  0  0  0
 11 27  1  0  0  0  0
 12 22  1  0  0  0  0
 12 26  2  0  0  0  0
 12 27  1  0  0  0  0
 13 27  1  0  0  0  0
 13 28  1  0  0  0  0
 13 30  2  0  0  0  0
 14 16  1  0  0  0  0
 14 29  1  0  0  0  0
 15 17  1  0  0  0  0
 15 29  1  0  0  0  0
 16 31  1  0  0  0  0
 17 31  1  0  0  0  0
 18 22  1  0  0  0  0
 19 22  1  0  0  0  0
 20 22  1  0  0  0  0
 21 28  1  0  0  0  0
 25 26  1  0  0  0  0
  1 33  1  0  0  0  0
  2 34  1  0  0  0  0
  3 35  1  0  0  0  0
  4 36  1  0  0  0  0
  5 37  1  0  0  0  0
 14 38  1  0  0  0  0
 14 39  1  0  0  0  0
 15 40  1  0  0  0  0
 15 41  1  0  0  0  0
 16 42  1  0  0  0  0
 16 43  1  0  0  0  0
 17 44  1  0  0  0  0
 17 45  1  0  0  0  0
 18 46  1  0  0  0  0
 18 47  1  0  0  0  0
 18 48  1  0  0  0  0
 19 49  1  0  0  0  0
 19 50  1  0  0  0  0
 19 51  1  0  0  0  0
 20 52  1  0  0  0  0
 20 53  1  0  0  0  0
 20 54  1  0  0  0  0
 21 55  1  0  0  0  0
 21 56  1  0  0  0  0
M  END
> <id>
EN300-26674831

> <smiles>
CC(C)(C)C1=NN=C2C=3N=CC(=CC3N(CC=4C=CC(F)=CN4)C(=O)N12)N5CCOCC5

> <MDLNUMBER>
MFCD34551205

> <IUPAC Name>
5-tert-butyl-8-[(5-fluoropyridin-2-yl)methyl]-11-(morpholin-4-yl)-3,4,6,8,13-pentaazatricyclo[7.4.0.0,2,6]trideca-1(9),2,4,10,12-pentaen-7-one

> <CAS>
2703780-61-2

> <Purity>
95

> <URL>
https://www.enaminestore.com/catalog/EN300-26674831

> <ROCS_ShapeQuery>
x0446_0A_x1080_0A_x0929_0A_x0812_0A_x0719_0A_x1140_0A_x0528_0A_x0310_0A

> <ROCS_TanimotoCombo>
0.432 

> <ROCS_ShapeTanimoto>
0.267 

> <ROCS_ColorTanimoto>
0.165 

> <ROCS_RefTversky>
0.247 

> <ROCS_RefColorTversky>
0.195 

> <ROCS_RefTverskyCombo>
0.442 

> <ROCS_FitTversky>
1.425 

> <ROCS_FitColorTversky>
0.516 

> <ROCS_FitTverskyCombo>
1.941 

> <ROCS_ColorScore>
-7.006

> <ROCS_Overlap>
2927.602

> <ROCS_Rank>
76                  

$$$$
untitled-dbase-282361_7
  -OEChem-02082415563D

 41 44  0     0  0  0  0  0  0999 V2000
    9.3135   17.4451   21.7671 C   0  0  0  0  0  0  0  0  0  0  0  0
   10.6818   15.7691   21.5995 C   0  0  0  0  0  0  0  0  0  0  0  0
   10.8377   13.2380   23.4104 C   0  0  0  0  0  0  0  0  0  0  0  0
    8.5457    9.9326   24.9719 C   0  0  0  0  0  0  0  0  0  0  0  0
    6.8932   11.5983   24.0851 C   0  0  0  0  0  0  0  0  0  0  0  0
    8.0696   10.0398   22.5114 C   0  0  0  0  0  0  0  0  0  0  0  0
    9.1060   12.3772   24.9711 C   0  0  0  0  0  0  0  0  0  0  0  0
   10.2844   10.8158   23.3948 C   0  0  0  0  0  0  0  0  0  0  0  0
    8.6303   12.4848   22.5073 C   0  0  0  0  0  0  0  0  0  0  0  0
    7.9748   11.3499   25.1510 C   0  0  0  0  0  0  0  0  0  0  0  0
    9.1577    9.7824   23.5684 C   0  0  0  0  0  0  0  0  0  0  0  0
    7.4965   11.4581   22.6765 C   0  0  0  0  0  0  0  0  0  0  0  0
    9.7245   12.2422   23.5653 C   0  0  0  0  0  0  0  0  0  0  0  0
   11.7007   17.9884   22.2540 C   0  0  0  0  0  0  0  0  0  0  0  0
   11.5321   13.2061   22.0699 C   0  0  0  0  0  0  0  0  0  0  0  0
    8.6075   16.3922   21.4213 N   0  0  0  0  0  0  0  0  0  0  0  0
    9.4781   15.3260   21.3146 N   0  0  0  0  0  0  0  0  0  0  0  0
   10.6247   17.0983   21.8904 N   0  0  0  0  0  0  0  0  0  0  0  0
   11.1105   13.9865   24.3397 O   0  0  0  0  0  0  0  0  0  0  0  0
   12.1801   14.8312   21.6158 S   0  0  0  0  0  0  0  0  0  0  0  0
    8.9398   18.4451   21.9346 H   0  0  0  0  0  0  0  0  0  0  0  0
    9.3083    9.7369   25.7357 H   0  0  0  0  0  0  0  0  0  0  0  0
    7.7523    9.1891   25.1153 H   0  0  0  0  0  0  0  0  0  0  0  0
    6.0709   10.8837   24.2129 H   0  0  0  0  0  0  0  0  0  0  0  0
    6.4664   12.6008   24.2114 H   0  0  0  0  0  0  0  0  0  0  0  0
    8.4894    9.9203   21.5049 H   0  0  0  0  0  0  0  0  0  0  0  0
    7.2678    9.2980   22.6115 H   0  0  0  0  0  0  0  0  0  0  0  0
    8.7170   13.3929   25.1209 H   0  0  0  0  0  0  0  0  0  0  0  0
    9.8725   12.2256   25.7428 H   0  0  0  0  0  0  0  0  0  0  0  0
   11.0799   10.6262   24.1274 H   0  0  0  0  0  0  0  0  0  0  0  0
   10.7463   10.7033   22.4051 H   0  0  0  0  0  0  0  0  0  0  0  0
    9.0525   12.4113   21.4964 H   0  0  0  0  0  0  0  0  0  0  0  0
    8.2287   13.5025   22.5989 H   0  0  0  0  0  0  0  0  0  0  0  0
    7.5390   11.4501   26.1511 H   0  0  0  0  0  0  0  0  0  0  0  0
    9.5608    8.7710   23.4463 H   0  0  0  0  0  0  0  0  0  0  0  0
    6.7217   11.6348   21.9224 H   0  0  0  0  0  0  0  0  0  0  0  0
   11.7985   17.9722   23.3427 H   0  0  0  0  0  0  0  0  0  0  0  0
   12.6276   17.6511   21.7819 H   0  0  0  0  0  0  0  0  0  0  0  0
   11.4679   18.9983   21.9050 H   0  0  0  0  0  0  0  0  0  0  0  0
   10.8196   12.8838   21.3054 H   0  0  0  0  0  0  0  0  0  0  0  0
   12.3622   12.4956   22.1166 H   0  0  0  0  0  0  0  0  0  0  0  0
  1 16  2  0  0  0  0
  1 18  1  0  0  0  0
  2 17  2  0  0  0  0
  2 18  1  0  0  0  0
  2 20  1  0  0  0  0
  3 13  1  0  0  0  0
  3 15  1  0  0  0  0
  3 19  2  0  0  0  0
  4 10  1  0  0  0  0
  4 11  1  0  0  0  0
  5 10  1  0  0  0  0
  5 12  1  0  0  0  0
  6 11  1  0  0  0  0
  6 12  1  0  0  0  0
  7 10  1  0  0  0  0
  7 13  1  0  0  0  0
  8 11  1  0  0  0  0
  8 13  1  0  0  0  0
  9 12  1  0  0  0  0
  9 13  1  0  0  0  0
 14 18  1  0  0  0  0
 15 20  1  0  0  0  0
 16 17  1  0  0  0  0
  1 21  1  0  0  0  0
  4 22  1  0  0  0  0
  4 23  1  0  0  0  0
  5 24  1  0  0  0  0
  5 25  1  0  0  0  0
  6 26  1  0  0  0  0
  6 27  1  0  0  0  0
  7 28  1  0  0  0  0
  7 29  1  0  0  0  0
  8 30  1  0  0  0  0
  8 31  1  0  0  0  0
  9 32  1  0  0  0  0
  9 33  1  0  0  0  0
 10 34  1  0  0  0  0
 11 35  1  0  0  0  0
 12 36  1  0  0  0  0
 14 37  1  0  0  0  0
 14 38  1  0  0  0  0
 14 39  1  0  0  0  0
 15 40  1  0  0  0  0
 15 41  1  0  0  0  0
M  END
> <id>
EN300-26868797

> <smiles>
CN1C=NN=C1SCC(=O)C2(CC3CC4CC(C3)C2)C4

> <IUPAC Name>
1-(adamantan-1-yl)-2-[(4-methyl-4H-1,2,4-triazol-3-yl)sulfanyl]ethan-1-one

> <CAS>
778589-71-2

> <URL>
https://www.enaminestore.com/catalog/EN300-26868797

> <ROCS_ShapeQuery>
x0446_0A_x1080_0A_x0929_0A_x0812_0A_x0719_0A_x1140_0A_x0528_0A_x0310_0A

> <ROCS_TanimotoCombo>
0.432 

> <ROCS_ShapeTanimoto>
0.228 

> <ROCS_ColorTanimoto>
0.203 

> <ROCS_RefTversky>
0.209 

> <ROCS_RefColorTversky>
0.226 

> <ROCS_RefTverskyCombo>
0.435 

> <ROCS_FitTversky>
1.677 

> <ROCS_FitColorTversky>
0.670 

> <ROCS_FitTverskyCombo>
2.347 

> <ROCS_ColorScore>
-8.103

> <ROCS_Overlap>
2469.833

> <ROCS_Rank>
77                  

$$$$
untitled-dbase-551909_9
  -OEChem-02082415563D

 44 48  0     0  0  0  0  0  0999 V2000
   11.7305   19.0490   21.2246 C   0  0  0  0  0  0  0  0  0  0  0  0
   13.0555   18.8063   21.6440 C   0  0  0  0  0  0  0  0  0  0  0  0
   10.4558    6.4156   22.3741 C   0  0  0  0  0  0  0  0  0  0  0  0
   10.7856   18.0192   21.1888 C   0  0  0  0  0  0  0  0  0  0  0  0
   13.4646   17.5285   22.0370 C   0  0  0  0  0  0  0  0  0  0  0  0
    5.7154   12.4283   25.1408 C   0  0  0  0  0  0  0  0  0  0  0  0
    6.1953   11.1820   24.7305 C   0  0  0  0  0  0  0  0  0  0  0  0
   10.7374    7.7891   22.5669 C   0  0  0  0  0  0  0  0  0  0  0  0
    7.8571   13.4033   24.6517 C   0  0  0  0  0  0  0  0  0  0  0  0
   10.1001   10.7320   23.3812 C   0  0  0  0  0  0  0  0  0  0  0  0
    9.1478    6.2360   22.7601 C   0  0  0  0  0  0  0  0  0  0  0  0
    8.3396   12.1496   24.2390 C   0  0  0  0  0  0  0  0  0  0  0  0
   11.2082   16.7673   21.5834 C   0  0  0  0  0  0  0  0  0  0  0  0
   12.5168   16.5276   21.9975 C   0  0  0  0  0  0  0  0  0  0  0  0
    9.6538   11.9831   23.7819 C   0  0  0  0  0  0  0  0  0  0  0  0
    6.5471   13.5405   25.1015 C   0  0  0  0  0  0  0  0  0  0  0  0
    7.5008   11.0161   24.2761 C   0  0  0  0  0  0  0  0  0  0  0  0
    9.2066    9.6826   23.4532 C   0  0  0  0  0  0  0  0  0  0  0  0
    9.5815    8.3510   23.0568 C   0  0  0  0  0  0  0  0  0  0  0  0
   10.4727   15.5004   21.6480 C   0  0  0  0  0  0  0  0  0  0  0  0
   12.6333   15.1045   22.3316 C   0  0  0  0  0  0  0  0  0  0  0  0
   10.6057   13.0870   23.7010 C   0  0  0  0  0  0  0  0  0  0  0  0
    6.0392   14.8721   25.5389 C   0  0  0  0  0  0  0  0  0  0  0  0
    7.9311    9.8007   23.8880 N   0  0  0  0  0  0  0  0  0  0  0  0
   11.3806   14.6133   22.1356 N   0  0  0  0  0  0  0  0  0  0  0  0
    9.3073   15.3543   21.3362 O   0  0  0  0  0  0  0  0  0  0  0  0
   13.6510   14.5587   22.7100 O   0  0  0  0  0  0  0  0  0  0  0  0
   10.9695   13.7620   24.6698 O   0  0  0  0  0  0  0  0  0  0  0  0
    8.6077    7.4110   23.1775 O   0  0  0  0  0  0  0  0  0  0  0  0
   11.0449   13.2713   22.4196 O   0  0  0  0  0  0  0  0  0  0  0  0
   11.4426   20.0531   20.9237 H   0  0  0  0  0  0  0  0  0  0  0  0
   13.7679   19.6271   21.6598 H   0  0  0  0  0  0  0  0  0  0  0  0
   11.1228    5.6522   22.0005 H   0  0  0  0  0  0  0  0  0  0  0  0
    9.7689   18.2063   20.8641 H   0  0  0  0  0  0  0  0  0  0  0  0
   14.4831   17.3427   22.3563 H   0  0  0  0  0  0  0  0  0  0  0  0
    4.6901   12.5161   25.4904 H   0  0  0  0  0  0  0  0  0  0  0  0
    5.5239   10.3264   24.7719 H   0  0  0  0  0  0  0  0  0  0  0  0
   11.6693    8.3008   22.3712 H   0  0  0  0  0  0  0  0  0  0  0  0
    8.4934   14.2853   24.6281 H   0  0  0  0  0  0  0  0  0  0  0  0
   11.1154   10.5849   23.0250 H   0  0  0  0  0  0  0  0  0  0  0  0
    8.4897    5.3802   22.7962 H   0  0  0  0  0  0  0  0  0  0  0  0
    6.2183   15.0163   26.6117 H   0  0  0  0  0  0  0  0  0  0  0  0
    6.5319   15.6866   24.9918 H   0  0  0  0  0  0  0  0  0  0  0  0
    4.9618   14.9698   25.3504 H   0  0  0  0  0  0  0  0  0  0  0  0
  1  2  1  0  0  0  0
  1  4  2  0  0  0  0
  2  5  2  0  0  0  0
  3  8  1  0  0  0  0
  3 11  2  0  0  0  0
  4 13  1  0  0  0  0
  5 14  1  0  0  0  0
  6  7  2  0  0  0  0
  6 16  1  0  0  0  0
  7 17  1  0  0  0  0
  8 19  2  0  0  0  0
  9 12  1  0  0  0  0
  9 16  2  0  0  0  0
 10 15  2  0  0  0  0
 10 18  1  0  0  0  0
 11 29  1  0  0  0  0
 12 15  1  0  0  0  0
 12 17  2  0  0  0  0
 13 14  2  0  0  0  0
 13 20  1  0  0  0  0
 14 21  1  0  0  0  0
 15 22  1  0  0  0  0
 16 23  1  0  0  0  0
 17 24  1  0  0  0  0
 18 19  1  0  0  0  0
 18 24  2  0  0  0  0
 19 29  1  0  0  0  0
 20 25  1  0  0  0  0
 20 26  2  0  0  0  0
 21 25  1  0  0  0  0
 21 27  2  0  0  0  0
 22 28  2  0  0  0  0
 22 30  1  0  0  0  0
 25 30  1  0  0  0  0
  1 31  1  0  0  0  0
  2 32  1  0  0  0  0
  3 33  1  0  0  0  0
  4 34  1  0  0  0  0
  5 35  1  0  0  0  0
  6 36  1  0  0  0  0
  7 37  1  0  0  0  0
  8 38  1  0  0  0  0
  9 39  1  0  0  0  0
 10 40  1  0  0  0  0
 11 41  1  0  0  0  0
 23 42  1  0  0  0  0
 23 43  1  0  0  0  0
 23 44  1  0  0  0  0
M  END
> <id>
EN300-6524207

> <smiles>
CC=1C=CC=2N=C(C=C(C(=O)ON3C(=O)C=4C=CC=CC4C3=O)C2C1)C5=CC=CO5

> <IUPAC Name>
1,3-dioxo-2,3-dihydro-1H-isoindol-2-yl 2-(furan-2-yl)-6-methylquinoline-4-carboxylate

> <CAS>
2248283-69-2

> <URL>
https://www.enaminestore.com/catalog/EN300-6524207

> <ROCS_ShapeQuery>
x0446_0A_x1080_0A_x0929_0A_x0812_0A_x0719_0A_x1140_0A_x0528_0A_x0310_0A

> <ROCS_TanimotoCombo>
0.432 

> <ROCS_ShapeTanimoto>
0.269 

> <ROCS_ColorTanimoto>
0.163 

> <ROCS_RefTversky>
0.248 

> <ROCS_RefColorTversky>
0.184 

> <ROCS_RefTverskyCombo>
0.432 

> <ROCS_FitTversky>
1.472 

> <ROCS_FitColorTversky>
0.580 

> <ROCS_FitTverskyCombo>
2.052 

> <ROCS_ColorScore>
-6.608

> <ROCS_Overlap>
2929.704

> <ROCS_Rank>
78                  

$$$$
untitled-dbase-265548_1
  -OEChem-02082415563D

 60 65  0     1  0  0  0  0  0999 V2000
   12.6352   14.6305   22.3842 C   0  0  0  0  0  0  0  0  0  0  0  0
   11.6961   14.0561   23.1550 C   0  0  0  0  0  0  0  0  0  0  0  0
   13.6858   13.8319   21.7129 C   0  0  0  0  0  0  0  0  0  0  0  0
    4.4898    9.1695   25.1963 C   0  0  0  0  0  0  0  0  0  0  0  0
    8.7137   14.7130   22.3921 C   0  0  0  0  0  0  0  0  0  0  0  0
   10.7016   14.9392   23.8851 C   0  0  0  0  0  0  0  0  0  0  0  0
   13.7370   12.3510   21.9775 C   0  0  0  0  0  0  0  0  0  0  0  0
    3.9624    9.9621   24.0388 C   0  0  0  0  0  0  0  0  0  0  0  0
   12.3379   11.8021   22.2160 C   0  0  0  0  0  0  0  0  0  0  0  0
    5.2261   10.6014   23.5011 C   0  0  0  0  0  0  0  0  0  0  0  0
    6.7285   13.1237   25.1798 C   0  0  0  0  0  0  0  0  0  0  0  0
    5.6772   12.0610   25.5280 C   0  0  0  0  0  0  0  0  0  0  0  0
    8.2778   10.1241   23.4499 C   0  0  0  0  0  0  0  0  0  0  0  0
    9.2477   14.4624   23.7748 C   0  0  2  0  0  0  0  0  0  0  0  0
    7.6909   12.4460   24.2017 C   0  0  1  0  0  0  0  0  0  0  0  0
    9.1315   12.9889   24.2010 C   0  0  1  0  0  0  0  0  0  0  0  0
    9.6346   10.6686   23.0824 C   0  0  2  0  0  0  0  0  0  0  0  0
   11.5576   12.5367   23.3491 C   0  0  2  0  0  0  0  0  0  0  0  0
    7.6129   10.9435   24.5723 C   0  0  1  0  0  0  0  0  0  0  0  0
    6.0752   10.7751   24.7569 C   0  0  2  0  0  0  0  0  0  0  0  0
   10.0673   12.1096   23.3762 C   0  0  2  0  0  0  0  0  0  0  0  0
   12.1909   12.1536   24.7090 C   0  0  0  0  0  0  0  0  0  0  0  0
    8.3442   10.5982   25.9016 C   0  0  0  0  0  0  0  0  0  0  0  0
    6.7620   14.5397   21.0711 C   0  0  0  0  0  0  0  0  0  0  0  0
   14.5251   14.3929   21.0110 O   0  0  0  0  0  0  0  0  0  0  0  0
    3.8944    8.2722   25.7720 O   0  0  0  0  0  0  0  0  0  0  0  0
    9.3789   15.1722   21.4735 O   0  0  0  0  0  0  0  0  0  0  0  0
    5.7375    9.6168   25.5348 O   0  0  0  0  0  0  0  0  0  0  0  0
    9.5452   11.7167   22.1002 O   0  0  0  0  0  0  0  0  0  0  0  0
    7.4000   14.3521   22.3384 O   0  0  0  0  0  0  0  0  0  0  0  0
   12.6917   15.7069   22.2595 H   0  0  0  0  0  0  0  0  0  0  0  0
   10.9860   14.9638   24.9452 H   0  0  0  0  0  0  0  0  0  0  0  0
   10.7669   15.9749   23.5267 H   0  0  0  0  0  0  0  0  0  0  0  0
   14.1684   11.8576   21.0993 H   0  0  0  0  0  0  0  0  0  0  0  0
   14.4001   12.1673   22.8282 H   0  0  0  0  0  0  0  0  0  0  0  0
    3.4981    9.3094   23.2958 H   0  0  0  0  0  0  0  0  0  0  0  0
    3.2446   10.7021   24.4022 H   0  0  0  0  0  0  0  0  0  0  0  0
   11.7894   11.8870   21.2681 H   0  0  0  0  0  0  0  0  0  0  0  0
   12.4157   10.7300   22.4324 H   0  0  0  0  0  0  0  0  0  0  0  0
    5.6718    9.8857   22.8039 H   0  0  0  0  0  0  0  0  0  0  0  0
    5.0333   11.5294   22.9552 H   0  0  0  0  0  0  0  0  0  0  0  0
    6.2644   14.0072   24.7287 H   0  0  0  0  0  0  0  0  0  0  0  0
    7.2405   13.4533   26.0911 H   0  0  0  0  0  0  0  0  0  0  0  0
    5.6648   11.8842   26.6105 H   0  0  0  0  0  0  0  0  0  0  0  0
    4.6750   12.4173   25.2658 H   0  0  0  0  0  0  0  0  0  0  0  0
    7.6791   10.1279   22.5345 H   0  0  0  0  0  0  0  0  0  0  0  0
    8.3698    9.0736   23.7508 H   0  0  0  0  0  0  0  0  0  0  0  0
    8.6383   15.0788   24.4479 H   0  0  0  0  0  0  0  0  0  0  0  0
    7.2706   12.5706   23.1927 H   0  0  0  0  0  0  0  0  0  0  0  0
    9.4846   12.9473   25.2395 H   0  0  0  0  0  0  0  0  0  0  0  0
   10.3694    9.8941   22.9199 H   0  0  0  0  0  0  0  0  0  0  0  0
   12.0953   11.0851   24.8489 H   0  0  0  0  0  0  0  0  0  0  0  0
   11.6695   12.6808   25.4967 H   0  0  0  0  0  0  0  0  0  0  0  0
   13.2352   12.4363   24.6987 H   0  0  0  0  0  0  0  0  0  0  0  0
    7.8883   11.1660   26.6983 H   0  0  0  0  0  0  0  0  0  0  0  0
    9.3853   10.8628   25.7959 H   0  0  0  0  0  0  0  0  0  0  0  0
    8.2390    9.5394   26.0829 H   0  0  0  0  0  0  0  0  0  0  0  0
    5.7187   14.2215   21.1369 H   0  0  0  0  0  0  0  0  0  0  0  0
    7.2848   13.9562   20.3091 H   0  0  0  0  0  0  0  0  0  0  0  0
    6.8014   15.5991   20.8067 H   0  0  0  0  0  0  0  0  0  0  0  0
  1  2  2  0  0  0  0
  1  3  1  0  0  0  0
  2  6  1  0  0  0  0
  2 18  1  0  0  0  0
  3  7  1  0  0  0  0
  3 25  2  0  0  0  0
  4  8  1  0  0  0  0
  4 26  2  0  0  0  0
  4 28  1  0  0  0  0
  5 14  1  6  0  0  0
  5 27  2  0  0  0  0
  5 30  1  0  0  0  0
  6 14  1  0  0  0  0
  7  9  1  0  0  0  0
  8 10  1  0  0  0  0
  9 18  1  0  0  0  0
 10 20  1  0  0  0  0
 11 12  1  0  0  0  0
 11 15  1  1  0  0  0
 12 20  1  0  0  0  0
 13 17  1  0  0  0  0
 13 19  1  0  0  0  0
 14 16  1  0  0  0  0
 15 16  1  6  0  0  0
 15 19  1  0  0  0  0
 16 21  1  0  0  0  0
 17 21  1  0  0  0  0
 17 29  1  6  0  0  0
 18 21  1  0  0  0  0
 18 22  1  1  0  0  0
 19 20  1  0  0  0  0
 19 23  1  1  0  0  0
 20 28  1  1  0  0  0
 21 29  1  6  0  0  0
 24 30  1  0  0  0  0
  1 31  1  0  0  0  0
  6 32  1  0  0  0  0
  6 33  1  0  0  0  0
  7 34  1  0  0  0  0
  7 35  1  0  0  0  0
  8 36  1  0  0  0  0
  8 37  1  0  0  0  0
  9 38  1  0  0  0  0
  9 39  1  0  0  0  0
 10 40  1  0  0  0  0
 10 41  1  0  0  0  0
 11 42  1  0  0  0  0
 11 43  1  0  0  0  0
 12 44  1  0  0  0  0
 12 45  1  0  0  0  0
 13 46  1  0  0  0  0
 13 47  1  0  0  0  0
 14 48  1  0  0  0  0
 15 49  1  0  0  0  0
 16 50  1  0  0  0  0
 17 51  1  0  0  0  0
 22 52  1  0  0  0  0
 22 53  1  0  0  0  0
 22 54  1  0  0  0  0
 23 55  1  0  0  0  0
 23 56  1  0  0  0  0
 23 57  1  0  0  0  0
 24 58  1  0  0  0  0
 24 59  1  0  0  0  0
 24 60  1  0  0  0  0
M  END
> <id>
EN300-6492952

> <smiles>
COC(=O)[C@@H]1CC2=CC(=O)CC[C@]2(C)[C@]34O[C@@H]4C[C@@]5(C)[C@@H](CC[C@]65CCC(=O)O6)[C@H]13

> <MDLNUMBER>
MFCD05662207

> <IUPAC Name>
methyl (1'R,2R,2'S,9'R,10'R,11'S,15'S,17'R)-2',15'-dimethyl-5,5'-dioxo-18'-oxaspiro[oxolane-2,14'-pentacyclo[8.8.0.0^{1,17}.0^{2,7}.0^{11,15}]octadecan]-6'-ene-9'-carboxylate

> <CAS>
107724-20-9

> <URL>
https://www.enaminestore.com/catalog/EN300-6492952

> <ROCS_ShapeQuery>
x0446_0A_x1080_0A_x0929_0A_x0812_0A_x0719_0A_x1140_0A_x0528_0A_x0310_0A

> <ROCS_TanimotoCombo>
0.431 

> <ROCS_ShapeTanimoto>
0.274 

> <ROCS_ColorTanimoto>
0.158 

> <ROCS_RefTversky>
0.250 

> <ROCS_RefColorTversky>
0.186 

> <ROCS_RefTverskyCombo>
0.436 

> <ROCS_FitTversky>
1.528 

> <ROCS_FitColorTversky>
0.508 

> <ROCS_FitTverskyCombo>
2.036 

> <ROCS_ColorScore>
-6.680

> <ROCS_Overlap>
2961.242

> <ROCS_Rank>
79                  

$$$$
untitled-dbase-351497_1
  -OEChem-02082415563D

 35 37  0     0  0  0  0  0  0999 V2000
    6.4819   13.4232   25.1702 C   0  0  0  0  0  0  0  0  0  0  0  0
   11.9452   18.6134   19.2569 C   0  0  0  0  0  0  0  0  0  0  0  0
    5.7785   12.2653   25.4780 C   0  0  0  0  0  0  0  0  0  0  0  0
   13.2626   18.6746   19.7111 C   0  0  0  0  0  0  0  0  0  0  0  0
    7.7024   13.3301   24.5076 C   0  0  0  0  0  0  0  0  0  0  0  0
   11.1049   17.5878   19.6904 C   0  0  0  0  0  0  0  0  0  0  0  0
    6.2969   11.0175   25.1227 C   0  0  0  0  0  0  0  0  0  0  0  0
   13.7398   17.7103   20.5987 C   0  0  0  0  0  0  0  0  0  0  0  0
    9.9372   10.6984   23.1437 C   0  0  0  0  0  0  0  0  0  0  0  0
    8.2235   12.0750   24.1503 C   0  0  0  0  0  0  0  0  0  0  0  0
   11.5821   16.6235   20.5781 C   0  0  0  0  0  0  0  0  0  0  0  0
    9.4497   11.9523   23.4829 C   0  0  0  0  0  0  0  0  0  0  0  0
    7.5148   10.8951   24.4595 C   0  0  0  0  0  0  0  0  0  0  0  0
   12.8996   16.6847   21.0323 C   0  0  0  0  0  0  0  0  0  0  0  0
    9.1728    9.6020   23.4879 C   0  0  0  0  0  0  0  0  0  0  0  0
   10.6835   15.5327   21.0373 C   0  0  0  0  0  0  0  0  0  0  0  0
   10.2645   13.1063   23.1144 C   0  0  0  0  0  0  0  0  0  0  0  0
    7.9854    9.6769   24.1316 N   0  0  0  0  0  0  0  0  0  0  0  0
   11.3022   14.3354   21.3422 N   0  0  0  0  0  0  0  0  0  0  0  0
   10.5267   13.2782   21.7569 N   0  0  0  0  0  0  0  0  0  0  0  0
    9.4742   15.7375   21.1067 O   0  0  0  0  0  0  0  0  0  0  0  0
   10.7020   13.8716   23.9885 O   0  0  0  0  0  0  0  0  0  0  0  0
   13.3697   15.7632   21.8854 F   0  0  0  0  0  0  0  0  0  0  0  0
    9.6865    8.0082   23.1142 Cl  0  0  0  0  0  0  0  0  0  0  0  0
    6.0818   14.3946   25.4441 H   0  0  0  0  0  0  0  0  0  0  0  0
   11.5737   19.3641   18.5656 H   0  0  0  0  0  0  0  0  0  0  0  0
    4.8258   12.3294   25.9956 H   0  0  0  0  0  0  0  0  0  0  0  0
   13.9168   19.4732   19.3736 H   0  0  0  0  0  0  0  0  0  0  0  0
    8.2314   14.2523   24.2800 H   0  0  0  0  0  0  0  0  0  0  0  0
   10.0802   17.5505   19.3298 H   0  0  0  0  0  0  0  0  0  0  0  0
    5.7262   10.1254   25.3746 H   0  0  0  0  0  0  0  0  0  0  0  0
   14.7654   17.7578   20.9525 H   0  0  0  0  0  0  0  0  0  0  0  0
   10.8851   10.5841   22.6268 H   0  0  0  0  0  0  0  0  0  0  0  0
   12.2951   14.1523   21.2474 H   0  0  0  0  0  0  0  0  0  0  0  0
   10.2125   12.6420   21.0324 H   0  0  0  0  0  0  0  0  0  0  0  0
  1  3  1  0  0  0  0
  1  5  2  0  0  0  0
  2  4  1  0  0  0  0
  2  6  2  0  0  0  0
  3  7  2  0  0  0  0
  4  8  2  0  0  0  0
  5 10  1  0  0  0  0
  6 11  1  0  0  0  0
  7 13  1  0  0  0  0
  8 14  1  0  0  0  0
  9 12  1  0  0  0  0
  9 15  2  0  0  0  0
 10 12  2  0  0  0  0
 10 13  1  0  0  0  0
 11 14  2  0  0  0  0
 11 16  1  0  0  0  0
 12 17  1  0  0  0  0
 13 18  2  0  0  0  0
 14 23  1  0  0  0  0
 15 18  1  0  0  0  0
 15 24  1  0  0  0  0
 16 19  1  0  0  0  0
 16 21  2  0  0  0  0
 17 20  1  0  0  0  0
 17 22  2  0  0  0  0
 19 20  1  0  0  0  0
  1 25  1  0  0  0  0
  2 26  1  0  0  0  0
  3 27  1  0  0  0  0
  4 28  1  0  0  0  0
  5 29  1  0  0  0  0
  6 30  1  0  0  0  0
  7 31  1  0  0  0  0
  8 32  1  0  0  0  0
  9 33  1  0  0  0  0
 19 34  1  0  0  0  0
 20 35  1  0  0  0  0
M  END
> <id>
EN300-26585638

> <smiles>
FC=1C=CC=CC1C(=O)NNC(=O)C=2C=C(Cl)N=C3C=CC=CC23

> <IUPAC Name>
2-chloro-N'-(2-fluorobenzoyl)quinoline-4-carbohydrazide

> <CAS>
1090874-21-7

> <URL>
https://www.enaminestore.com/catalog/EN300-26585638

> <ROCS_ShapeQuery>
x0446_0A_x1080_0A_x0929_0A_x0812_0A_x0719_0A_x1140_0A_x0528_0A_x0310_0A

> <ROCS_TanimotoCombo>
0.431 

> <ROCS_ShapeTanimoto>
0.248 

> <ROCS_ColorTanimoto>
0.184 

> <ROCS_RefTversky>
0.226 

> <ROCS_RefColorTversky>
0.198 

> <ROCS_RefTverskyCombo>
0.424 

> <ROCS_FitTversky>
1.604 

> <ROCS_FitColorTversky>
0.724 

> <ROCS_FitTverskyCombo>
2.328 

> <ROCS_ColorScore>
-7.063

> <ROCS_Overlap>
2676.801

> <ROCS_Rank>
80                  

$$$$
untitled-dbase-562247_6
  -OEChem-02082415563D

 58 63  0     1  0  0  0  0  0999 V2000
    4.2133   11.5017   18.3826 C   0  0  0  0  0  0  0  0  0  0  0  0
    5.6934   15.8687   22.1936 C   0  0  0  0  0  0  0  0  0  0  0  0
    3.3766   10.5900   19.0474 C   0  0  0  0  0  0  0  0  0  0  0  0
    5.0791   15.6124   23.4306 C   0  0  0  0  0  0  0  0  0  0  0  0
   10.1716   16.5758   23.4783 C   0  0  0  0  0  0  0  0  0  0  0  0
    4.7144   12.6283   19.0412 C   0  0  0  0  0  0  0  0  0  0  0  0
    5.5185   15.0009   21.1117 C   0  0  0  0  0  0  0  0  0  0  0  0
    3.0258   10.7860   20.3844 C   0  0  0  0  0  0  0  0  0  0  0  0
    4.2791   14.4826   23.6107 C   0  0  0  0  0  0  0  0  0  0  0  0
   10.0111   15.2408   23.8324 C   0  0  0  0  0  0  0  0  0  0  0  0
    9.8735   16.9415   22.1756 C   0  0  0  0  0  0  0  0  0  0  0  0
    9.2926   14.7919   21.6101 C   0  0  0  0  0  0  0  0  0  0  0  0
    4.3667   12.8231   20.3681 C   0  0  0  0  0  0  0  0  0  0  0  0
    4.7248   13.8794   21.2900 C   0  0  0  0  0  0  0  0  0  0  0  0
    9.5637   14.3253   22.8863 C   0  0  0  0  0  0  0  0  0  0  0  0
    3.5292   11.9007   21.0351 C   0  0  0  0  0  0  0  0  0  0  0  0
    4.1129   13.6223   22.5376 C   0  0  0  0  0  0  0  0  0  0  0  0
    5.9325   11.3283   24.3929 C   0  0  0  0  0  0  0  0  0  0  0  0
    9.3089   10.0675   24.6097 C   0  0  0  0  0  0  0  0  0  0  0  0
    8.9234    9.7800   23.1457 C   0  0  0  0  0  0  0  0  0  0  0  0
    8.9949   12.6057   24.7470 C   0  0  0  0  0  0  0  0  0  0  0  0
    8.3644   12.1260   22.2888 C   0  0  0  0  0  0  0  0  0  0  0  0
    3.2911   12.3428   22.4719 C   0  0  0  0  0  0  0  0  0  0  0  0
    8.3901   11.2159   25.0383 C   0  0  1  0  0  0  0  0  0  0  0  0
    7.8145   10.7878   22.8287 C   0  0  2  0  0  0  0  0  0  0  0  0
    9.3756   12.8452   23.2455 C   0  0  0  0  0  0  0  0  0  0  0  0
    3.7390   11.3087   23.4827 C   0  0  0  0  0  0  0  0  0  0  0  0
    9.4366   16.0809   21.2289 N   0  0  0  0  0  0  0  0  0  0  0  0
    7.2630   11.0612   24.1380 N   0  0  0  0  0  0  0  0  0  0  0  0
    5.5061   11.7519   25.4648 O   0  0  0  0  0  0  0  0  0  0  0  0
   10.6613   12.2402   23.0235 O   0  0  0  0  0  0  0  0  0  0  0  0
    5.1390   11.0632   23.3098 O   0  0  0  0  0  0  0  0  0  0  0  0
    4.4722   11.3289   17.3412 H   0  0  0  0  0  0  0  0  0  0  0  0
    6.3121   16.7546   22.0765 H   0  0  0  0  0  0  0  0  0  0  0  0
    2.9972    9.7238   18.5118 H   0  0  0  0  0  0  0  0  0  0  0  0
    5.2290   16.3042   24.2553 H   0  0  0  0  0  0  0  0  0  0  0  0
   10.5188   17.3069   24.1993 H   0  0  0  0  0  0  0  0  0  0  0  0
    5.3583   13.3244   18.5141 H   0  0  0  0  0  0  0  0  0  0  0  0
    5.9979   15.2131   20.1618 H   0  0  0  0  0  0  0  0  0  0  0  0
    2.3760   10.0820   20.8923 H   0  0  0  0  0  0  0  0  0  0  0  0
    3.8028   14.2915   24.5660 H   0  0  0  0  0  0  0  0  0  0  0  0
   10.2366   14.9232   24.8468 H   0  0  0  0  0  0  0  0  0  0  0  0
    9.9826   17.9707   21.8496 H   0  0  0  0  0  0  0  0  0  0  0  0
    8.9406   14.1242   20.8298 H   0  0  0  0  0  0  0  0  0  0  0  0
    9.1067    9.1761   25.2156 H   0  0  0  0  0  0  0  0  0  0  0  0
   10.3714   10.3045   24.7183 H   0  0  0  0  0  0  0  0  0  0  0  0
    9.7803    9.8588   22.4699 H   0  0  0  0  0  0  0  0  0  0  0  0
    8.5379    8.7562   23.0709 H   0  0  0  0  0  0  0  0  0  0  0  0
    8.2621   13.3617   25.0627 H   0  0  0  0  0  0  0  0  0  0  0  0
    9.8829   12.7459   25.3772 H   0  0  0  0  0  0  0  0  0  0  0  0
    8.8386   11.9482   21.3148 H   0  0  0  0  0  0  0  0  0  0  0  0
    7.5060   12.7872   22.1046 H   0  0  0  0  0  0  0  0  0  0  0  0
    2.2307   12.5902   22.6006 H   0  0  0  0  0  0  0  0  0  0  0  0
    8.0947   11.1398   26.0889 H   0  0  0  0  0  0  0  0  0  0  0  0
    7.0611   10.3811   22.1469 H   0  0  0  0  0  0  0  0  0  0  0  0
    3.1961   10.3700   23.3377 H   0  0  0  0  0  0  0  0  0  0  0  0
    3.5674   11.6682   24.5017 H   0  0  0  0  0  0  0  0  0  0  0  0
   11.2833   12.6952   23.6110 H   0  0  0  0  0  0  0  0  0  0  0  0
  1  3  1  0  0  0  0
  1  6  2  0  0  0  0
  2  4  1  0  0  0  0
  2  7  2  0  0  0  0
  3  8  2  0  0  0  0
  4  9  2  0  0  0  0
  5 10  2  0  0  0  0
  5 11  1  0  0  0  0
  6 13  1  0  0  0  0
  7 14  1  0  0  0  0
  8 16  1  0  0  0  0
  9 17  1  0  0  0  0
 10 15  1  0  0  0  0
 11 28  2  0  0  0  0
 12 15  2  0  0  0  0
 12 28  1  0  0  0  0
 13 14  1  0  0  0  0
 13 16  2  0  0  0  0
 14 17  2  0  0  0  0
 15 26  1  6  0  0  0
 16 23  1  0  0  0  0
 17 23  1  0  0  0  0
 18 29  1  0  0  0  0
 18 30  2  0  0  0  0
 18 32  1  0  0  0  0
 19 20  1  0  0  0  0
 19 24  1  0  0  0  0
 20 25  1  0  0  0  0
 21 24  1  0  0  0  0
 21 26  1  0  0  0  0
 22 25  1  0  0  0  0
 22 26  1  0  0  0  0
 23 27  1  0  0  0  0
 24 29  1  6  0  0  0
 25 29  1  6  0  0  0
 26 31  1  1  0  0  0
 27 32  1  0  0  0  0
  1 33  1  0  0  0  0
  2 34  1  0  0  0  0
  3 35  1  0  0  0  0
  4 36  1  0  0  0  0
  5 37  1  0  0  0  0
  6 38  1  0  0  0  0
  7 39  1  0  0  0  0
  8 40  1  0  0  0  0
  9 41  1  0  0  0  0
 10 42  1  0  0  0  0
 11 43  1  0  0  0  0
 12 44  1  0  0  0  0
 19 45  1  0  0  0  0
 19 46  1  0  0  0  0
 20 47  1  0  0  0  0
 20 48  1  0  0  0  0
 21 49  1  0  0  0  0
 21 50  1  0  0  0  0
 22 51  1  0  0  0  0
 22 52  1  0  0  0  0
 23 53  1  0  0  0  0
 24 54  1  0  0  0  0
 25 55  1  0  0  0  0
 27 56  1  0  0  0  0
 27 57  1  0  0  0  0
 31 58  1  0  0  0  0
M  END
> <id>
EN300-37389856

> <smiles>
O[C@@]1(C[C@@H]2CC[C@H](C1)N2C(=O)OCC3C=4C=CC=CC4C=5C=CC=CC35)C=6C=CC=NC6

> <IUPAC Name>
(9H-fluoren-9-yl)methyl (1R,3S,5S)-3-hydroxy-3-(pyridin-3-yl)-8-azabicyclo[3.2.1]octane-8-carboxylate

> <URL>
https://www.enaminestore.com/catalog/EN300-37389856

> <ROCS_ShapeQuery>
x0446_0A_x1080_0A_x0929_0A_x0812_0A_x0719_0A_x1140_0A_x0528_0A_x0310_0A

> <ROCS_TanimotoCombo>
0.431 

> <ROCS_ShapeTanimoto>
0.235 

> <ROCS_ColorTanimoto>
0.197 

> <ROCS_RefTversky>
0.223 

> <ROCS_RefColorTversky>
0.233 

> <ROCS_RefTverskyCombo>
0.456 

> <ROCS_FitTversky>
1.290 

> <ROCS_FitColorTversky>
0.559 

> <ROCS_FitTverskyCombo>
1.849 

> <ROCS_ColorScore>
-8.388

> <ROCS_Overlap>
2637.738

> <ROCS_Rank>
81                  

$$$$
untitled-dbase-341143_0
  -OEChem-02082415563D

 41 44  0     1  0  0  0  0  0999 V2000
    6.0249   13.2480   24.8300 C   0  0  0  0  0  0  0  0  0  0  0  0
    5.4858   11.9747   24.9352 C   0  0  0  0  0  0  0  0  0  0  0  0
    7.3636   13.3973   24.4737 C   0  0  0  0  0  0  0  0  0  0  0  0
    6.2910   10.8662   24.6795 C   0  0  0  0  0  0  0  0  0  0  0  0
   11.2007   15.1119   23.0276 C   0  0  0  0  0  0  0  0  0  0  0  0
   10.4689   13.5752   21.3284 C   0  0  0  0  0  0  0  0  0  0  0  0
   10.3290   16.0425   22.4855 C   0  0  0  0  0  0  0  0  0  0  0  0
   11.2660   13.8571   22.4322 C   0  0  0  0  0  0  0  0  0  0  0  0
    8.1705   12.2902   24.2199 C   0  0  0  0  0  0  0  0  0  0  0  0
    7.6295   11.0119   24.3200 C   0  0  0  0  0  0  0  0  0  0  0  0
   10.2392   11.3641   23.6428 C   0  0  0  0  0  0  0  0  0  0  0  0
    9.6926   10.0760   23.6860 C   0  0  0  0  0  0  0  0  0  0  0  0
    9.6298   14.5745   20.8624 C   0  0  0  0  0  0  0  0  0  0  0  0
   12.1780   12.8294   22.9697 C   0  0  0  0  0  0  0  0  0  0  0  0
   12.7387    9.4631   22.8473 C   0  0  0  0  0  0  0  0  0  0  0  0
   12.5837   10.5724   23.8779 C   0  0  0  0  0  0  0  0  0  0  0  0
   11.4054    9.0118   22.2683 C   0  0  0  0  0  0  0  0  0  0  0  0
    9.7928    7.6268   23.5847 C   0  0  0  0  0  0  0  0  0  0  0  0
    9.5390   15.8053   21.4144 N   0  0  0  0  0  0  0  0  0  0  0  0
    9.4581   12.4462   23.8926 N   0  0  0  0  0  0  0  0  0  0  0  0
    8.3908    9.9389   24.0611 N   0  0  0  0  0  0  0  0  0  0  0  0
   11.6482   11.6093   23.4334 N   0  0  0  0  0  0  0  0  0  0  0  0
   10.3910    8.9256   23.3133 N   0  0  2  0  0  0  0  0  0  0  0  0
   13.3789   13.0969   22.9077 O   0  0  0  0  0  0  0  0  0  0  0  0
    8.6103   14.3164   19.5068 Cl  0  0  0  0  0  0  0  0  0  0  0  0
    5.4111   14.1216   25.0264 H   0  0  0  0  0  0  0  0  0  0  0  0
    4.4451   11.8411   25.2138 H   0  0  0  0  0  0  0  0  0  0  0  0
    7.7788   14.4003   24.3984 H   0  0  0  0  0  0  0  0  0  0  0  0
    5.8574    9.8716   24.7618 H   0  0  0  0  0  0  0  0  0  0  0  0
   11.8088   15.3644   23.8900 H   0  0  0  0  0  0  0  0  0  0  0  0
   10.5046   12.6014   20.8492 H   0  0  0  0  0  0  0  0  0  0  0  0
   10.2406   17.0357   22.9132 H   0  0  0  0  0  0  0  0  0  0  0  0
   13.3864    9.8005   22.0292 H   0  0  0  0  0  0  0  0  0  0  0  0
   13.2453    8.6125   23.3193 H   0  0  0  0  0  0  0  0  0  0  0  0
   12.2424   10.1762   24.8431 H   0  0  0  0  0  0  0  0  0  0  0  0
   13.5684   11.0134   24.0718 H   0  0  0  0  0  0  0  0  0  0  0  0
   11.0775    9.6906   21.4698 H   0  0  0  0  0  0  0  0  0  0  0  0
   11.5481    8.0394   21.7803 H   0  0  0  0  0  0  0  0  0  0  0  0
   10.4660    6.8315   23.2320 H   0  0  0  0  0  0  0  0  0  0  0  0
    9.6311    7.5167   24.6672 H   0  0  0  0  0  0  0  0  0  0  0  0
    8.8289    7.5504   23.0603 H   0  0  0  0  0  0  0  0  0  0  0  0
  1  2  1  0  0  0  0
  1  3  2  0  0  0  0
  2  4  2  0  0  0  0
  3  9  1  0  0  0  0
  4 10  1  0  0  0  0
  5  7  2  0  0  0  0
  5  8  1  0  0  0  0
  6  8  2  0  0  0  0
  6 13  1  0  0  0  0
  7 19  1  0  0  0  0
  8 14  1  0  0  0  0
  9 10  1  0  0  0  0
  9 20  2  0  0  0  0
 10 21  2  0  0  0  0
 11 12  2  0  0  0  0
 11 20  1  0  0  0  0
 11 22  1  0  0  0  0
 12 21  1  0  0  0  0
 12 23  1  0  0  0  0
 13 19  2  0  0  0  0
 13 25  1  0  0  0  0
 14 22  1  0  0  0  0
 14 24  2  0  0  0  0
 15 16  1  0  0  0  0
 15 17  1  0  0  0  0
 16 22  1  0  0  0  0
 17 23  1  0  0  0  0
 18 23  1  0  0  0  0
  1 26  1  0  0  0  0
  2 27  1  0  0  0  0
  3 28  1  0  0  0  0
  4 29  1  0  0  0  0
  5 30  1  0  0  0  0
  6 31  1  0  0  0  0
  7 32  1  0  0  0  0
 15 33  1  0  0  0  0
 15 34  1  0  0  0  0
 16 35  1  0  0  0  0
 16 36  1  0  0  0  0
 17 37  1  0  0  0  0
 17 38  1  0  0  0  0
 18 39  1  0  0  0  0
 18 40  1  0  0  0  0
 18 41  1  0  0  0  0
M  END
> <id>
EN300-26611487

> <smiles>
CN1CCCN(C(=O)C=2C=CN=C(Cl)C2)C=3N=C4C=CC=CC4=NC13

> <IUPAC Name>
2-chloro-4-{5-methyl-1H,2H,3H,4H,5H-[1,4]diazepino[2,3-b]quinoxaline-1-carbonyl}pyridine

> <CAS>
1043376-57-3

> <URL>
https://www.enaminestore.com/catalog/EN300-26611487

> <ROCS_ShapeQuery>
x0446_0A_x1080_0A_x0929_0A_x0812_0A_x0719_0A_x1140_0A_x0528_0A_x0310_0A

> <ROCS_TanimotoCombo>
0.431 

> <ROCS_ShapeTanimoto>
0.265 

> <ROCS_ColorTanimoto>
0.166 

> <ROCS_RefTversky>
0.240 

> <ROCS_RefColorTversky>
0.181 

> <ROCS_RefTverskyCombo>
0.420 

> <ROCS_FitTversky>
1.640 

> <ROCS_FitColorTversky>
0.681 

> <ROCS_FitTverskyCombo>
2.321 

> <ROCS_ColorScore>
-6.451

> <ROCS_Overlap>
2836.798

> <ROCS_Rank>
82                  

$$$$
untitled-dbase-320322_0
  -OEChem-02082415563D

 33 35  0     0  0  0  0  0  0999 V2000
   13.4761   15.3815   22.2102 C   0  0  0  0  0  0  0  0  0  0  0  0
   12.8385   16.4733   21.6212 C   0  0  0  0  0  0  0  0  0  0  0  0
   12.7359   14.2597   22.5835 C   0  0  0  0  0  0  0  0  0  0  0  0
   11.4607   16.4434   21.4055 C   0  0  0  0  0  0  0  0  0  0  0  0
    7.6450   10.4495   24.7921 C   0  0  0  0  0  0  0  0  0  0  0  0
   11.3582   14.2297   22.3679 C   0  0  0  0  0  0  0  0  0  0  0  0
    7.9050   11.8230   24.8625 C   0  0  0  0  0  0  0  0  0  0  0  0
   10.7205   15.3216   21.7789 C   0  0  0  0  0  0  0  0  0  0  0  0
    8.9476   12.0302   23.9886 C   0  0  0  0  0  0  0  0  0  0  0  0
   10.9843   11.7337   22.1249 C   0  0  0  0  0  0  0  0  0  0  0  0
   10.5885   13.0239   22.7736 C   0  0  0  0  0  0  0  0  0  0  0  0
   10.2885   10.6476   22.4982 C   0  0  0  0  0  0  0  0  0  0  0  0
    7.2568   12.8249   25.6540 C   0  0  0  0  0  0  0  0  0  0  0  0
    8.9294   14.7979   20.3046 C   0  0  0  0  0  0  0  0  0  0  0  0
   10.5683    9.2871   21.9338 C   0  0  0  0  0  0  0  0  0  0  0  0
    8.4502    9.8134   23.9433 N   0  0  0  0  0  0  0  0  0  0  0  0
    9.6253   13.1573   23.6395 N   0  0  0  0  0  0  0  0  0  0  0  0
    9.2609   10.7860   23.4412 N   0  0  0  0  0  0  0  0  0  0  0  0
    7.6350   14.0245   25.5820 O   0  0  0  0  0  0  0  0  0  0  0  0
    9.3756   15.3104   21.5582 O   0  0  0  0  0  0  0  0  0  0  0  0
   11.5945    9.3456   21.0554 F   0  0  0  0  0  0  0  0  0  0  0  0
   10.9351    8.4373   22.9190 F   0  0  0  0  0  0  0  0  0  0  0  0
    5.9111   12.4303   26.7577 Cl  0  0  0  0  0  0  0  0  0  0  0  0
   14.5491   15.4052   22.3780 H   0  0  0  0  0  0  0  0  0  0  0  0
   13.4153   17.3467   21.3312 H   0  0  0  0  0  0  0  0  0  0  0  0
   13.2435   13.4144   23.0414 H   0  0  0  0  0  0  0  0  0  0  0  0
   10.9702   17.2972   20.9461 H   0  0  0  0  0  0  0  0  0  0  0  0
    6.8991    9.8764   25.3246 H   0  0  0  0  0  0  0  0  0  0  0  0
   11.7916   11.7102   21.4040 H   0  0  0  0  0  0  0  0  0  0  0  0
    7.8388   14.8459   20.2578 H   0  0  0  0  0  0  0  0  0  0  0  0
    9.2645   13.7637   20.1927 H   0  0  0  0  0  0  0  0  0  0  0  0
    9.3533   15.4051   19.5012 H   0  0  0  0  0  0  0  0  0  0  0  0
    9.6868    8.8980   21.4323 H   0  0  0  0  0  0  0  0  0  0  0  0
  1  2  1  0  0  0  0
  1  3  2  0  0  0  0
  2  4  2  0  0  0  0
  3  6  1  0  0  0  0
  4  8  1  0  0  0  0
  5  7  1  0  0  0  0
  5 16  2  0  0  0  0
  6  8  2  0  0  0  0
  6 11  1  0  0  0  0
  7  9  2  0  0  0  0
  7 13  1  0  0  0  0
  8 20  1  0  0  0  0
  9 17  1  0  0  0  0
  9 18  1  0  0  0  0
 10 11  1  0  0  0  0
 10 12  2  0  0  0  0
 11 17  2  0  0  0  0
 12 15  1  0  0  0  0
 12 18  1  0  0  0  0
 13 19  2  0  0  0  0
 13 23  1  0  0  0  0
 14 20  1  0  0  0  0
 15 21  1  0  0  0  0
 15 22  1  0  0  0  0
 16 18  1  0  0  0  0
  1 24  1  0  0  0  0
  2 25  1  0  0  0  0
  3 26  1  0  0  0  0
  4 27  1  0  0  0  0
  5 28  1  0  0  0  0
 10 29  1  0  0  0  0
 14 30  1  0  0  0  0
 14 31  1  0  0  0  0
 14 32  1  0  0  0  0
 15 33  1  0  0  0  0
M  END
> <id>
EN300-228780

> <smiles>
COC=1C=CC=CC1C=2C=C(C(F)F)N3N=CC(C(=O)Cl)=C3N2

> <MDLNUMBER>
MFCD03422924

> <IUPAC Name>
7-(difluoromethyl)-5-(2-methoxyphenyl)pyrazolo[1,5-a]pyrimidine-3-carbonyl chloride

> <CAS>
862705-28-0

> <URL>
https://www.enaminestore.com/catalog/EN300-228780

> <ROCS_ShapeQuery>
x0446_0A_x1080_0A_x0929_0A_x0812_0A_x0719_0A_x1140_0A_x0528_0A_x0310_0A

> <ROCS_TanimotoCombo>
0.431 

> <ROCS_ShapeTanimoto>
0.261 

> <ROCS_ColorTanimoto>
0.170 

> <ROCS_RefTversky>
0.236 

> <ROCS_RefColorTversky>
0.176 

> <ROCS_RefTverskyCombo>
0.412 

> <ROCS_FitTversky>
1.709 

> <ROCS_FitColorTversky>
0.828 

> <ROCS_FitTverskyCombo>
2.537 

> <ROCS_ColorScore>
-6.281

> <ROCS_Overlap>
2782.767

> <ROCS_Rank>
83                  

$$$$
untitled-dbase-508605_1
  -OEChem-02082415563D

 39 41  0     0  0  0  0  0  0999 V2000
   11.5398   13.6802   23.1188 C   0  0  0  0  0  0  0  0  0  0  0  0
    8.4718   15.0064   22.2937 C   0  0  0  0  0  0  0  0  0  0  0  0
    7.7133    9.6630   24.1626 C   0  0  0  0  0  0  0  0  0  0  0  0
    8.7682   10.6115   22.0981 C   0  0  0  0  0  0  0  0  0  0  0  0
   10.0232   10.6246   24.2773 C   0  0  0  0  0  0  0  0  0  0  0  0
    6.8664   11.8055   23.1831 C   0  0  0  0  0  0  0  0  0  0  0  0
    8.1244   11.8186   25.3673 C   0  0  0  0  0  0  0  0  0  0  0  0
    9.0368    9.8353   23.3992 C   0  0  0  0  0  0  0  0  0  0  0  0
    7.1210   11.0429   24.4954 C   0  0  0  0  0  0  0  0  0  0  0  0
    8.1927   12.0121   22.4187 C   0  0  0  0  0  0  0  0  0  0  0  0
    9.4500   12.0251   24.6017 C   0  0  0  0  0  0  0  0  0  0  0  0
    9.2087   12.8216   23.2823 C   0  0  0  0  0  0  0  0  0  0  0  0
    8.6923   14.2473   23.5668 C   0  0  0  0  0  0  0  0  0  0  0  0
   12.7069   13.7146   22.1765 C   0  0  0  0  0  0  0  0  0  0  0  0
   10.4751   13.0003   22.5755 N   0  0  0  0  0  0  0  0  0  0  0  0
   11.5809   14.2116   24.2248 O   0  0  0  0  0  0  0  0  0  0  0  0
    9.3080   15.2818   21.4466 O   0  0  0  0  0  0  0  0  0  0  0  0
    7.1638   15.3602   22.2061 O   0  0  0  0  0  0  0  0  0  0  0  0
   12.4380   13.0687   21.0133 F   0  0  0  0  0  0  0  0  0  0  0  0
   13.8087   13.1270   22.7087 F   0  0  0  0  0  0  0  0  0  0  0  0
   13.0594   14.9835   21.8479 F   0  0  0  0  0  0  0  0  0  0  0  0
    7.0032    9.0846   23.5588 H   0  0  0  0  0  0  0  0  0  0  0  0
    7.8827    9.0941   25.0850 H   0  0  0  0  0  0  0  0  0  0  0  0
    9.6822   10.6781   21.4998 H   0  0  0  0  0  0  0  0  0  0  0  0
    8.0500   10.0552   21.4817 H   0  0  0  0  0  0  0  0  0  0  0  0
   10.2102   10.0767   25.2094 H   0  0  0  0  0  0  0  0  0  0  0  0
   10.9922   10.7095   23.7721 H   0  0  0  0  0  0  0  0  0  0  0  0
    6.1655   11.2378   22.5575 H   0  0  0  0  0  0  0  0  0  0  0  0
    6.3755   12.7619   23.3891 H   0  0  0  0  0  0  0  0  0  0  0  0
    7.6955   12.7772   25.6776 H   0  0  0  0  0  0  0  0  0  0  0  0
    8.3167   11.2608   26.2931 H   0  0  0  0  0  0  0  0  0  0  0  0
    9.4560    8.8507   23.1639 H   0  0  0  0  0  0  0  0  0  0  0  0
    6.1783   10.9161   25.0393 H   0  0  0  0  0  0  0  0  0  0  0  0
    7.9874   12.5424   21.4807 H   0  0  0  0  0  0  0  0  0  0  0  0
   10.1547   12.5651   25.2463 H   0  0  0  0  0  0  0  0  0  0  0  0
    7.7534   14.1655   24.1089 H   0  0  0  0  0  0  0  0  0  0  0  0
    9.4343   14.7614   24.1728 H   0  0  0  0  0  0  0  0  0  0  0  0
   10.5723   12.6089   21.6512 H   0  0  0  0  0  0  0  0  0  0  0  0
    6.9747   15.8609   21.3839 H   0  0  0  0  0  0  0  0  0  0  0  0
  1 14  1  0  0  0  0
  1 15  1  0  0  0  0
  1 16  2  0  0  0  0
  2 13  1  0  0  0  0
  2 17  2  0  0  0  0
  2 18  1  0  0  0  0
  3  8  1  0  0  0  0
  3  9  1  0  0  0  0
  4  8  1  0  0  0  0
  4 10  1  0  0  0  0
  5  8  1  0  0  0  0
  5 11  1  0  0  0  0
  6  9  1  0  0  0  0
  6 10  1  0  0  0  0
  7  9  1  0  0  0  0
  7 11  1  0  0  0  0
 10 12  1  0  0  0  0
 11 12  1  0  0  0  0
 12 13  1  0  0  0  0
 12 15  1  0  0  0  0
 14 19  1  0  0  0  0
 14 20  1  0  0  0  0
 14 21  1  0  0  0  0
  3 22  1  0  0  0  0
  3 23  1  0  0  0  0
  4 24  1  0  0  0  0
  4 25  1  0  0  0  0
  5 26  1  0  0  0  0
  5 27  1  0  0  0  0
  6 28  1  0  0  0  0
  6 29  1  0  0  0  0
  7 30  1  0  0  0  0
  7 31  1  0  0  0  0
  8 32  1  0  0  0  0
  9 33  1  0  0  0  0
 10 34  1  0  0  0  0
 11 35  1  0  0  0  0
 13 36  1  0  0  0  0
 13 37  1  0  0  0  0
 15 38  1  0  0  0  0
 18 39  1  0  0  0  0
M  END
> <id>
EN300-28291283

> <smiles>
OC(=O)CC1(NC(=O)C(F)(F)F)C2CC3CC(C2)CC1C3

> <IUPAC Name>
2-[2-(2,2,2-trifluoroacetamido)adamantan-2-yl]acetic acid

> <CAS>
2680680-57-1

> <URL>
https://www.enaminestore.com/catalog/EN300-28291283

> <ROCS_ShapeQuery>
x0446_0A_x1080_0A_x0929_0A_x0812_0A_x0719_0A_x1140_0A_x0528_0A_x0310_0A

> <ROCS_TanimotoCombo>
0.431 

> <ROCS_ShapeTanimoto>
0.250 

> <ROCS_ColorTanimoto>
0.180 

> <ROCS_RefTversky>
0.226 

> <ROCS_RefColorTversky>
0.207 

> <ROCS_RefTverskyCombo>
0.433 

> <ROCS_FitTversky>
1.746 

> <ROCS_FitColorTversky>
0.583 

> <ROCS_FitTverskyCombo>
2.329 

> <ROCS_ColorScore>
-7.430

> <ROCS_Overlap>
2672.035

> <ROCS_Rank>
84                  

$$$$
untitled-dbase-288288_9
  -OEChem-02082415563D

 42 45  0     1  0  0  0  0  0999 V2000
   11.6170   19.2646   21.4263 C   0  0  0  0  0  0  0  0  0  0  0  0
   12.9763   19.0529   21.7396 C   0  0  0  0  0  0  0  0  0  0  0  0
   10.7186   18.1958   21.3555 C   0  0  0  0  0  0  0  0  0  0  0  0
   13.4668   17.7677   21.9890 C   0  0  0  0  0  0  0  0  0  0  0  0
   11.2216   16.9369   21.6080 C   0  0  0  0  0  0  0  0  0  0  0  0
   12.5639   16.7278   21.9173 C   0  0  0  0  0  0  0  0  0  0  0  0
   10.5490   15.6339   21.6026 C   0  0  0  0  0  0  0  0  0  0  0  0
   12.7654   15.2886   22.1131 C   0  0  0  0  0  0  0  0  0  0  0  0
   10.9274   13.0864   23.4204 C   0  0  0  0  0  0  0  0  0  0  0  0
    7.4178   10.1827   23.1148 C   0  0  0  0  0  0  0  0  0  0  0  0
    7.9898    9.7575   24.4835 C   0  0  0  0  0  0  0  0  0  0  0  0
    8.7443   12.3004   22.6030 C   0  0  0  0  0  0  0  0  0  0  0  0
    9.7211   11.5743   24.9398 C   0  0  0  0  0  0  0  0  0  0  0  0
    7.3965   11.7179   23.0553 C   0  0  2  0  0  0  0  0  0  0  0  0
    8.3271   11.0260   25.2821 C   0  0  1  0  0  0  0  0  0  0  0  0
    9.9963   11.8922   23.4382 C   0  0  0  0  0  0  0  0  0  0  0  0
   10.7643   10.7428   22.7601 C   0  0  0  0  0  0  0  0  0  0  0  0
   11.5256   14.7541   21.9509 N   0  0  0  0  0  0  0  0  0  0  0  0
    9.3733   15.4574   21.3512 O   0  0  0  0  0  0  0  0  0  0  0  0
   13.8291   14.7634   22.3770 O   0  0  0  0  0  0  0  0  0  0  0  0
   11.2973   13.6807   24.4242 O   0  0  0  0  0  0  0  0  0  0  0  0
    7.5260   13.5519   24.9863 O   0  0  0  0  0  0  0  0  0  0  0  0
    5.7796   11.7276   25.1494 O   0  0  0  0  0  0  0  0  0  0  0  0
   11.2694   13.3774   22.1320 O   0  0  0  0  0  0  0  0  0  0  0  0
    7.0903   12.1935   24.7464 S   0  0  0  0  0  0  0  0  0  0  0  0
   11.2656   20.2755   21.2360 H   0  0  0  0  0  0  0  0  0  0  0  0
   13.6509   19.9039   21.7858 H   0  0  0  0  0  0  0  0  0  0  0  0
    9.6754   18.3594   21.1123 H   0  0  0  0  0  0  0  0  0  0  0  0
   14.5114   17.6060   22.2268 H   0  0  0  0  0  0  0  0  0  0  0  0
    7.9680    9.7410   22.2787 H   0  0  0  0  0  0  0  0  0  0  0  0
    6.3905    9.8036   23.0380 H   0  0  0  0  0  0  0  0  0  0  0  0
    7.2181    9.1885   25.0177 H   0  0  0  0  0  0  0  0  0  0  0  0
    8.8485    9.0867   24.3850 H   0  0  0  0  0  0  0  0  0  0  0  0
    8.9038   12.0304   21.5501 H   0  0  0  0  0  0  0  0  0  0  0  0
    8.6446   13.3947   22.5973 H   0  0  0  0  0  0  0  0  0  0  0  0
    9.8761   12.4793   25.5437 H   0  0  0  0  0  0  0  0  0  0  0  0
   10.4737   10.8632   25.3066 H   0  0  0  0  0  0  0  0  0  0  0  0
    6.5813   12.0886   22.4278 H   0  0  0  0  0  0  0  0  0  0  0  0
    8.2243   10.8671   26.3591 H   0  0  0  0  0  0  0  0  0  0  0  0
   10.1397    9.8562   22.7455 H   0  0  0  0  0  0  0  0  0  0  0  0
   11.6721   10.5422   23.3186 H   0  0  0  0  0  0  0  0  0  0  0  0
   11.0148   11.0314   21.7449 H   0  0  0  0  0  0  0  0  0  0  0  0
  1  2  1  0  0  0  0
  1  3  2  0  0  0  0
  2  4  2  0  0  0  0
  3  5  1  0  0  0  0
  4  6  1  0  0  0  0
  5  6  2  0  0  0  0
  5  7  1  0  0  0  0
  6  8  1  0  0  0  0
  7 18  1  0  0  0  0
  7 19  2  0  0  0  0
  8 18  1  0  0  0  0
  8 20  2  0  0  0  0
  9 16  1  0  0  0  0
  9 21  2  0  0  0  0
  9 24  1  0  0  0  0
 10 11  1  0  0  0  0
 10 14  1  0  0  0  0
 11 15  1  0  0  0  0
 12 14  1  0  0  0  0
 12 16  1  0  0  0  0
 13 15  1  0  0  0  0
 13 16  1  0  0  0  0
 14 25  1  0  0  0  0
 15 25  1  0  0  0  0
 16 17  1  0  0  0  0
 18 24  1  0  0  0  0
 22 25  2  0  0  0  0
 23 25  2  0  0  0  0
  1 26  1  0  0  0  0
  2 27  1  0  0  0  0
  3 28  1  0  0  0  0
  4 29  1  0  0  0  0
 10 30  1  0  0  0  0
 10 31  1  0  0  0  0
 11 32  1  0  0  0  0
 11 33  1  0  0  0  0
 12 34  1  0  0  0  0
 12 35  1  0  0  0  0
 13 36  1  0  0  0  0
 13 37  1  0  0  0  0
 14 38  1  0  0  0  0
 15 39  1  0  0  0  0
 17 40  1  0  0  0  0
 17 41  1  0  0  0  0
 17 42  1  0  0  0  0
M  END
> <id>
EN300-6525891

> <smiles>
CC1(CC2CCC(C1)S2(=O)=O)C(=O)ON3C(=O)C=4C=CC=CC4C3=O

> <IUPAC Name>
1,3-dioxo-2,3-dihydro-1H-isoindol-2-yl 3-methyl-8,8-dioxo-8lambda6-thiabicyclo[3.2.1]octane-3-carboxylate

> <CAS>
2248383-85-7

> <URL>
https://www.enaminestore.com/catalog/EN300-6525891

> <ROCS_ShapeQuery>
x0446_0A_x1080_0A_x0929_0A_x0812_0A_x0719_0A_x1140_0A_x0528_0A_x0310_0A

> <ROCS_TanimotoCombo>
0.431 

> <ROCS_ShapeTanimoto>
0.243 

> <ROCS_ColorTanimoto>
0.188 

> <ROCS_RefTversky>
0.224 

> <ROCS_RefColorTversky>
0.219 

> <ROCS_RefTverskyCombo>
0.443 

> <ROCS_FitTversky>
1.546 

> <ROCS_FitColorTversky>
0.567 

> <ROCS_FitTverskyCombo>
2.113 

> <ROCS_ColorScore>
-7.888

> <ROCS_Overlap>
2642.441

> <ROCS_Rank>
85                  

$$$$
untitled-dbase-563933_3
  -OEChem-02082415563D

 42 44  0     0  0  0  0  0  0999 V2000
    9.9206   11.4445   22.9539 C   0  0  0  0  0  0  0  0  0  0  0  0
    7.9031   12.3514   23.8497 C   0  0  0  0  0  0  0  0  0  0  0  0
    9.0895   12.5505   23.1327 C   0  0  0  0  0  0  0  0  0  0  0  0
    9.5349   10.2197   23.4882 C   0  0  0  0  0  0  0  0  0  0  0  0
    6.7958   13.1130   24.2729 C   0  0  0  0  0  0  0  0  0  0  0  0
    7.6396   11.0775   24.3283 C   0  0  0  0  0  0  0  0  0  0  0  0
    9.4086   13.8516   22.6160 C   0  0  0  0  0  0  0  0  0  0  0  0
   10.4502   15.7201   22.2514 C   0  0  0  0  0  0  0  0  0  0  0  0
   10.4364    9.0435   23.2881 C   0  0  0  0  0  0  0  0  0  0  0  0
    6.5342   14.5462   24.0475 C   0  0  0  0  0  0  0  0  0  0  0  0
   15.1242   12.6830   23.3959 C   0  0  0  0  0  0  0  0  0  0  0  0
    5.7459   10.0878   25.6473 C   0  0  0  0  0  0  0  0  0  0  0  0
   13.8929   13.2056   24.1185 C   0  0  0  0  0  0  0  0  0  0  0  0
   12.8131   13.6518   23.1339 C   0  0  0  0  0  0  0  0  0  0  0  0
   11.5640   14.1379   23.8673 C   0  0  0  0  0  0  0  0  0  0  0  0
    8.3998    9.9776   24.1877 N   0  0  0  0  0  0  0  0  0  0  0  0
    5.9036   12.3924   24.9604 N   0  0  0  0  0  0  0  0  0  0  0  0
    8.6916   14.5424   21.7587 N   0  0  0  0  0  0  0  0  0  0  0  0
    9.3543   15.7312   21.5268 N   0  0  0  0  0  0  0  0  0  0  0  0
    6.4433   11.1602   24.9777 N   0  0  0  0  0  0  0  0  0  0  0  0
   10.5248   14.5553   22.9532 N   0  0  0  0  0  0  0  0  0  0  0  0
   11.6423   16.9623   22.3379 S   0  0  0  0  0  0  0  0  0  0  0  0
   10.8547   11.5373   22.4060 H   0  0  0  0  0  0  0  0  0  0  0  0
   11.1548    8.9734   24.1122 H   0  0  0  0  0  0  0  0  0  0  0  0
    9.8630    8.1103   23.2417 H   0  0  0  0  0  0  0  0  0  0  0  0
   10.9902    9.1269   22.3455 H   0  0  0  0  0  0  0  0  0  0  0  0
    5.9728   14.7071   23.1117 H   0  0  0  0  0  0  0  0  0  0  0  0
    5.9495   14.9962   24.8688 H   0  0  0  0  0  0  0  0  0  0  0  0
    7.4669   15.1336   23.9822 H   0  0  0  0  0  0  0  0  0  0  0  0
   14.8557   11.8419   22.7492 H   0  0  0  0  0  0  0  0  0  0  0  0
   15.5728   13.4620   22.7714 H   0  0  0  0  0  0  0  0  0  0  0  0
   15.8792   12.3361   24.1086 H   0  0  0  0  0  0  0  0  0  0  0  0
    6.0791   10.0670   26.6883 H   0  0  0  0  0  0  0  0  0  0  0  0
    4.6681   10.2653   25.5943 H   0  0  0  0  0  0  0  0  0  0  0  0
    5.9777    9.1409   25.1516 H   0  0  0  0  0  0  0  0  0  0  0  0
   14.1822   14.0462   24.7600 H   0  0  0  0  0  0  0  0  0  0  0  0
   13.4986   12.4188   24.7722 H   0  0  0  0  0  0  0  0  0  0  0  0
   13.2045   14.4532   22.4947 H   0  0  0  0  0  0  0  0  0  0  0  0
   12.5532   12.8189   22.4687 H   0  0  0  0  0  0  0  0  0  0  0  0
   11.7963   14.9893   24.5183 H   0  0  0  0  0  0  0  0  0  0  0  0
   11.1493   13.3476   24.5044 H   0  0  0  0  0  0  0  0  0  0  0  0
   11.1027   17.8576   21.4833 H   0  0  0  0  0  0  0  0  0  0  0  0
  1  3  1  0  0  0  0
  1  4  2  0  0  0  0
  2  3  2  0  0  0  0
  2  5  1  0  0  0  0
  2  6  1  0  0  0  0
  3  7  1  0  0  0  0
  4  9  1  0  0  0  0
  4 16  1  0  0  0  0
  5 10  1  0  0  0  0
  5 17  2  0  0  0  0
  6 16  2  0  0  0  0
  6 20  1  0  0  0  0
  7 18  2  0  0  0  0
  7 21  1  0  0  0  0
  8 19  2  0  0  0  0
  8 21  1  0  0  0  0
  8 22  1  0  0  0  0
 11 13  1  0  0  0  0
 12 20  1  0  0  0  0
 13 14  1  0  0  0  0
 14 15  1  0  0  0  0
 15 21  1  0  0  0  0
 17 20  1  0  0  0  0
 18 19  1  0  0  0  0
  1 23  1  0  0  0  0
  9 24  1  0  0  0  0
  9 25  1  0  0  0  0
  9 26  1  0  0  0  0
 10 27  1  0  0  0  0
 10 28  1  0  0  0  0
 10 29  1  0  0  0  0
 11 30  1  0  0  0  0
 11 31  1  0  0  0  0
 11 32  1  0  0  0  0
 12 33  1  0  0  0  0
 12 34  1  0  0  0  0
 12 35  1  0  0  0  0
 13 36  1  0  0  0  0
 13 37  1  0  0  0  0
 14 38  1  0  0  0  0
 14 39  1  0  0  0  0
 15 40  1  0  0  0  0
 15 41  1  0  0  0  0
 22 42  1  0  0  0  0
M  END
> <id>
EN300-230739

> <smiles>
CCCCN1C(S)=NN=C1C=2C=C(C)N=C3N(C)N=C(C)C23

> <MDLNUMBER>
MFCD08553249

> <IUPAC Name>
4-butyl-5-{1,3,6-trimethyl-1H-pyrazolo[3,4-b]pyridin-4-yl}-4H-1,2,4-triazole-3-thiol

> <CAS>
937598-22-6

> <URL>
https://www.enaminestore.com/catalog/EN300-230739

> <ROCS_ShapeQuery>
x0446_0A_x1080_0A_x0929_0A_x0812_0A_x0719_0A_x1140_0A_x0528_0A_x0310_0A

> <ROCS_TanimotoCombo>
0.430 

> <ROCS_ShapeTanimoto>
0.263 

> <ROCS_ColorTanimoto>
0.167 

> <ROCS_RefTversky>
0.236 

> <ROCS_RefColorTversky>
0.186 

> <ROCS_RefTverskyCombo>
0.422 

> <ROCS_FitTversky>
1.772 

> <ROCS_FitColorTversky>
0.622 

> <ROCS_FitTverskyCombo>
2.394 

> <ROCS_ColorScore>
-6.659

> <ROCS_Overlap>
2789.991

> <ROCS_Rank>
86                  

$$$$
untitled-dbase-300471_0
  -OEChem-02082415563D

 34 37  0     0  0  0  0  0  0999 V2000
    9.7578   14.1883   22.5524 C   0  0  0  0  0  0  0  0  0  0  0  0
   11.0636   15.9048   22.3124 C   0  0  0  0  0  0  0  0  0  0  0  0
    8.3692   10.0718   22.5926 C   0  0  0  0  0  0  0  0  0  0  0  0
    7.1383   11.2683   24.4196 C   0  0  0  0  0  0  0  0  0  0  0  0
    9.4914   10.4906   24.7943 C   0  0  0  0  0  0  0  0  0  0  0  0
    7.8888   12.5224   22.3840 C   0  0  0  0  0  0  0  0  0  0  0  0
   10.2405   11.7345   22.7486 C   0  0  0  0  0  0  0  0  0  0  0  0
    8.9982   12.9421   24.5926 C   0  0  0  0  0  0  0  0  0  0  0  0
    7.3500   11.1774   22.9018 C   0  0  0  0  0  0  0  0  0  0  0  0
    9.7066   10.3907   23.2752 C   0  0  0  0  0  0  0  0  0  0  0  0
    8.4689   11.5939   25.1124 C   0  0  0  0  0  0  0  0  0  0  0  0
    9.2459   12.8927   23.0559 C   0  0  0  0  0  0  0  0  0  0  0  0
    9.2070   14.9818   21.6617 N   0  0  0  0  0  0  0  0  0  0  0  0
   10.0378   16.0739   21.5091 N   0  0  0  0  0  0  0  0  0  0  0  0
   10.9285   14.7304   22.9888 N   0  0  0  0  0  0  0  0  0  0  0  0
   12.1460   16.6779   22.5366 N   0  0  0  0  0  0  0  0  0  0  0  0
    7.9905    9.1035   22.9424 H   0  0  0  0  0  0  0  0  0  0  0  0
    8.5120    9.9848   21.5085 H   0  0  0  0  0  0  0  0  0  0  0  0
    6.3956   12.0420   24.6499 H   0  0  0  0  0  0  0  0  0  0  0  0
    6.7388   10.3203   24.8004 H   0  0  0  0  0  0  0  0  0  0  0  0
    9.1371    9.5289   25.1853 H   0  0  0  0  0  0  0  0  0  0  0  0
   10.4436   10.7058   25.2949 H   0  0  0  0  0  0  0  0  0  0  0  0
    8.0106   12.4744   21.2933 H   0  0  0  0  0  0  0  0  0  0  0  0
    7.1487   13.3121   22.5726 H   0  0  0  0  0  0  0  0  0  0  0  0
   11.2157   11.9473   23.2072 H   0  0  0  0  0  0  0  0  0  0  0  0
   10.4181   11.6645   21.6670 H   0  0  0  0  0  0  0  0  0  0  0  0
    8.2833   13.7396   24.8358 H   0  0  0  0  0  0  0  0  0  0  0  0
    9.9312   13.1959   25.1139 H   0  0  0  0  0  0  0  0  0  0  0  0
    6.3978   10.9490   22.4099 H   0  0  0  0  0  0  0  0  0  0  0  0
   10.4303    9.5973   23.0573 H   0  0  0  0  0  0  0  0  0  0  0  0
    8.3158   11.6526   26.1958 H   0  0  0  0  0  0  0  0  0  0  0  0
   11.5665   14.3436   23.6722 H   0  0  0  0  0  0  0  0  0  0  0  0
   12.3156   17.5506   22.0139 H   0  0  0  0  0  0  0  0  0  0  0  0
   12.9048   16.3892   23.1727 H   0  0  0  0  0  0  0  0  0  0  0  0
  1 12  1  0  0  0  0
  1 13  2  0  0  0  0
  1 15  1  0  0  0  0
  2 14  2  0  0  0  0
  2 15  1  0  0  0  0
  2 16  1  0  0  0  0
  3  9  1  0  0  0  0
  3 10  1  0  0  0  0
  4  9  1  0  0  0  0
  4 11  1  0  0  0  0
  5 10  1  0  0  0  0
  5 11  1  0  0  0  0
  6  9  1  0  0  0  0
  6 12  1  0  0  0  0
  7 10  1  0  0  0  0
  7 12  1  0  0  0  0
  8 11  1  0  0  0  0
  8 12  1  0  0  0  0
 13 14  1  0  0  0  0
  3 17  1  0  0  0  0
  3 18  1  0  0  0  0
  4 19  1  0  0  0  0
  4 20  1  0  0  0  0
  5 21  1  0  0  0  0
  5 22  1  0  0  0  0
  6 23  1  0  0  0  0
  6 24  1  0  0  0  0
  7 25  1  0  0  0  0
  7 26  1  0  0  0  0
  8 27  1  0  0  0  0
  8 28  1  0  0  0  0
  9 29  1  0  0  0  0
 10 30  1  0  0  0  0
 11 31  1  0  0  0  0
 15 32  1  0  0  0  0
 16 33  1  0  0  0  0
 16 34  1  0  0  0  0
M  END
> <id>
EN300-6502158

> <smiles>
NC1=NN=C(N1)C2(CC3CC4CC(C3)C2)C4

> <IUPAC Name>
5-(adamantan-1-yl)-4H-1,2,4-triazol-3-amine

> <CAS>
473994-26-2

> <Purity>
95

> <URL>
https://www.enaminestore.com/catalog/EN300-6502158

> <ROCS_ShapeQuery>
x0446_0A_x1080_0A_x0929_0A_x0812_0A_x0719_0A_x1140_0A_x0528_0A_x0310_0A

> <ROCS_TanimotoCombo>
0.430 

> <ROCS_ShapeTanimoto>
0.217 

> <ROCS_ColorTanimoto>
0.213 

> <ROCS_RefTversky>
0.198 

> <ROCS_RefColorTversky>
0.244 

> <ROCS_RefTverskyCombo>
0.443 

> <ROCS_FitTversky>
1.761 

> <ROCS_FitColorTversky>
0.628 

> <ROCS_FitTverskyCombo>
2.388 

> <ROCS_ColorScore>
-8.781

> <ROCS_Overlap>
2341.996

> <ROCS_Rank>
87                  

$$$$
untitled-dbase-45350_7
  -OEChem-02082415563D

 40 42  0     0  0  0  0  0  0999 V2000
    9.9200   11.4437   22.9527 C   0  0  0  0  0  0  0  0  0  0  0  0
    7.9029   12.3505   23.8493 C   0  0  0  0  0  0  0  0  0  0  0  0
    9.0890   12.5496   23.1319 C   0  0  0  0  0  0  0  0  0  0  0  0
    9.5345   10.2188   23.4872 C   0  0  0  0  0  0  0  0  0  0  0  0
    6.7957   13.1121   24.2731 C   0  0  0  0  0  0  0  0  0  0  0  0
    7.6395   11.0766   24.3281 C   0  0  0  0  0  0  0  0  0  0  0  0
    9.4079   13.8507   22.6151 C   0  0  0  0  0  0  0  0  0  0  0  0
   10.4493   15.7192   22.2502 C   0  0  0  0  0  0  0  0  0  0  0  0
   10.4360    9.0426   23.2866 C   0  0  0  0  0  0  0  0  0  0  0  0
    6.5340   14.5453   24.0478 C   0  0  0  0  0  0  0  0  0  0  0  0
    5.7464   10.0868   25.6478 C   0  0  0  0  0  0  0  0  0  0  0  0
   14.9531   12.7315   23.4623 C   0  0  0  0  0  0  0  0  0  0  0  0
   11.5638   14.1370   23.8655 C   0  0  0  0  0  0  0  0  0  0  0  0
   12.8103   13.6425   23.1441 C   0  0  0  0  0  0  0  0  0  0  0  0
    8.3997    9.9767   24.1871 N   0  0  0  0  0  0  0  0  0  0  0  0
    5.9038   12.3915   24.9609 N   0  0  0  0  0  0  0  0  0  0  0  0
    8.6905   14.5416   21.7581 N   0  0  0  0  0  0  0  0  0  0  0  0
    9.3531   15.7304   21.5259 N   0  0  0  0  0  0  0  0  0  0  0  0
    6.4435   11.1592   24.9780 N   0  0  0  0  0  0  0  0  0  0  0  0
   10.5242   14.5544   22.9519 N   0  0  0  0  0  0  0  0  0  0  0  0
   13.7753   13.2124   24.0955 O   0  0  0  0  0  0  0  0  0  0  0  0
   11.6414   16.9614   22.3362 S   0  0  0  0  0  0  0  0  0  0  0  0
   10.8539   11.5364   22.4044 H   0  0  0  0  0  0  0  0  0  0  0  0
   11.1547    8.9725   24.1104 H   0  0  0  0  0  0  0  0  0  0  0  0
    9.8625    8.1094   23.2404 H   0  0  0  0  0  0  0  0  0  0  0  0
   10.9894    9.1261   22.3438 H   0  0  0  0  0  0  0  0  0  0  0  0
    5.9723   14.7062   23.1123 H   0  0  0  0  0  0  0  0  0  0  0  0
    5.9496   14.9953   24.8694 H   0  0  0  0  0  0  0  0  0  0  0  0
    7.4667   15.1327   23.9822 H   0  0  0  0  0  0  0  0  0  0  0  0
    6.0800   10.0660   26.6887 H   0  0  0  0  0  0  0  0  0  0  0  0
    4.6686   10.2643   25.5953 H   0  0  0  0  0  0  0  0  0  0  0  0
    5.9780    9.1400   25.1520 H   0  0  0  0  0  0  0  0  0  0  0  0
   15.6706   12.4104   24.2214 H   0  0  0  0  0  0  0  0  0  0  0  0
   15.3870   13.5241   22.8476 H   0  0  0  0  0  0  0  0  0  0  0  0
   14.6933   11.8814   22.8270 H   0  0  0  0  0  0  0  0  0  0  0  0
   11.7946   14.9894   24.5150 H   0  0  0  0  0  0  0  0  0  0  0  0
   11.1420   13.3421   24.4913 H   0  0  0  0  0  0  0  0  0  0  0  0
   12.5571   12.7853   22.5125 H   0  0  0  0  0  0  0  0  0  0  0  0
   13.2561   14.4230   22.5191 H   0  0  0  0  0  0  0  0  0  0  0  0
   11.1015   17.8568   21.4818 H   0  0  0  0  0  0  0  0  0  0  0  0
  1  3  1  0  0  0  0
  1  4  2  0  0  0  0
  2  3  2  0  0  0  0
  2  5  1  0  0  0  0
  2  6  1  0  0  0  0
  3  7  1  0  0  0  0
  4  9  1  0  0  0  0
  4 15  1  0  0  0  0
  5 10  1  0  0  0  0
  5 16  2  0  0  0  0
  6 15  2  0  0  0  0
  6 19  1  0  0  0  0
  7 17  2  0  0  0  0
  7 20  1  0  0  0  0
  8 18  2  0  0  0  0
  8 20  1  0  0  0  0
  8 22  1  0  0  0  0
 11 19  1  0  0  0  0
 12 21  1  0  0  0  0
 13 14  1  0  0  0  0
 13 20  1  0  0  0  0
 14 21  1  0  0  0  0
 16 19  1  0  0  0  0
 17 18  1  0  0  0  0
  1 23  1  0  0  0  0
  9 24  1  0  0  0  0
  9 25  1  0  0  0  0
  9 26  1  0  0  0  0
 10 27  1  0  0  0  0
 10 28  1  0  0  0  0
 10 29  1  0  0  0  0
 11 30  1  0  0  0  0
 11 31  1  0  0  0  0
 11 32  1  0  0  0  0
 12 33  1  0  0  0  0
 12 34  1  0  0  0  0
 12 35  1  0  0  0  0
 13 36  1  0  0  0  0
 13 37  1  0  0  0  0
 14 38  1  0  0  0  0
 14 39  1  0  0  0  0
 22 40  1  0  0  0  0
M  END
> <id>
EN300-230745

> <smiles>
COCCN1C(S)=NN=C1C=2C=C(C)N=C3N(C)N=C(C)C23

> <MDLNUMBER>
MFCD08553266

> <IUPAC Name>
4-(2-methoxyethyl)-5-{1,3,6-trimethyl-1H-pyrazolo[3,4-b]pyridin-4-yl}-4H-1,2,4-triazole-3-thiol

> <CAS>
937598-37-3

> <URL>
https://www.enaminestore.com/catalog/EN300-230745

> <ROCS_ShapeQuery>
x0446_0A_x1080_0A_x0929_0A_x0812_0A_x0719_0A_x1140_0A_x0528_0A_x0310_0A

> <ROCS_TanimotoCombo>
0.430 

> <ROCS_ShapeTanimoto>
0.263 

> <ROCS_ColorTanimoto>
0.167 

> <ROCS_RefTversky>
0.236 

> <ROCS_RefColorTversky>
0.186 

> <ROCS_RefTverskyCombo>
0.422 

> <ROCS_FitTversky>
1.763 

> <ROCS_FitColorTversky>
0.622 

> <ROCS_FitTverskyCombo>
2.385 

> <ROCS_ColorScore>
-6.659

> <ROCS_Overlap>
2790.984

> <ROCS_Rank>
88                  

$$$$
untitled-dbase-317128_4
  -OEChem-02082415563D

 42 44  0     0  0  0  0  0  0999 V2000
    9.9205   11.4456   22.9544 C   0  0  0  0  0  0  0  0  0  0  0  0
    7.9024   12.3514   23.8499 C   0  0  0  0  0  0  0  0  0  0  0  0
    9.0887   12.5511   23.1330 C   0  0  0  0  0  0  0  0  0  0  0  0
    9.5354   10.2206   23.4889 C   0  0  0  0  0  0  0  0  0  0  0  0
    6.7946   13.1124   24.2730 C   0  0  0  0  0  0  0  0  0  0  0  0
    7.6395   11.0774   24.3287 C   0  0  0  0  0  0  0  0  0  0  0  0
    9.4071   13.8523   22.6162 C   0  0  0  0  0  0  0  0  0  0  0  0
   10.4477   15.7213   22.2515 C   0  0  0  0  0  0  0  0  0  0  0  0
   10.4377    9.0449   23.2890 C   0  0  0  0  0  0  0  0  0  0  0  0
    6.5322   14.5454   24.0474 C   0  0  0  0  0  0  0  0  0  0  0  0
   13.0709   13.1941   22.0484 C   0  0  0  0  0  0  0  0  0  0  0  0
   13.9997   13.7369   24.3086 C   0  0  0  0  0  0  0  0  0  0  0  0
    5.7464   10.0868   25.6478 C   0  0  0  0  0  0  0  0  0  0  0  0
   11.5622   14.1401   23.8676 C   0  0  0  0  0  0  0  0  0  0  0  0
   12.9714   14.1377   23.2490 C   0  0  0  0  0  0  0  0  0  0  0  0
    8.4004    9.9779   24.1883 N   0  0  0  0  0  0  0  0  0  0  0  0
    5.9027   12.3914   24.9605 N   0  0  0  0  0  0  0  0  0  0  0  0
    8.6897   14.5426   21.7587 N   0  0  0  0  0  0  0  0  0  0  0  0
    9.3517   15.7318   21.5267 N   0  0  0  0  0  0  0  0  0  0  0  0
    6.4432   11.1595   24.9780 N   0  0  0  0  0  0  0  0  0  0  0  0
   10.5228   14.5567   22.9534 N   0  0  0  0  0  0  0  0  0  0  0  0
   11.6390   16.9642   22.3379 S   0  0  0  0  0  0  0  0  0  0  0  0
   10.8545   11.5388   22.4066 H   0  0  0  0  0  0  0  0  0  0  0  0
   11.1560    8.9753   24.1131 H   0  0  0  0  0  0  0  0  0  0  0  0
    9.8647    8.1114   23.2427 H   0  0  0  0  0  0  0  0  0  0  0  0
   10.9915    9.1286   22.3464 H   0  0  0  0  0  0  0  0  0  0  0  0
    5.9708   14.7059   23.1116 H   0  0  0  0  0  0  0  0  0  0  0  0
    5.9472   14.9952   24.8686 H   0  0  0  0  0  0  0  0  0  0  0  0
    7.4645   15.1334   23.9821 H   0  0  0  0  0  0  0  0  0  0  0  0
   12.8305   12.1666   22.3422 H   0  0  0  0  0  0  0  0  0  0  0  0
   12.3781   13.4882   21.2529 H   0  0  0  0  0  0  0  0  0  0  0  0
   14.0834   13.1850   21.6333 H   0  0  0  0  0  0  0  0  0  0  0  0
   13.7965   12.7294   24.6870 H   0  0  0  0  0  0  0  0  0  0  0  0
   15.0110   13.7369   23.8887 H   0  0  0  0  0  0  0  0  0  0  0  0
   13.9849   14.4275   25.1587 H   0  0  0  0  0  0  0  0  0  0  0  0
    6.0795   10.0663   26.6888 H   0  0  0  0  0  0  0  0  0  0  0  0
    4.6685   10.2636   25.5947 H   0  0  0  0  0  0  0  0  0  0  0  0
    5.9787    9.1400   25.1522 H   0  0  0  0  0  0  0  0  0  0  0  0
   11.3013   13.1465   24.2523 H   0  0  0  0  0  0  0  0  0  0  0  0
   11.5171   14.8294   24.7206 H   0  0  0  0  0  0  0  0  0  0  0  0
   13.2200   15.1499   22.9053 H   0  0  0  0  0  0  0  0  0  0  0  0
   11.0990   17.8591   21.4830 H   0  0  0  0  0  0  0  0  0  0  0  0
  1  3  1  0  0  0  0
  1  4  2  0  0  0  0
  2  3  2  0  0  0  0
  2  5  1  0  0  0  0
  2  6  1  0  0  0  0
  3  7  1  0  0  0  0
  4  9  1  0  0  0  0
  4 16  1  0  0  0  0
  5 10  1  0  0  0  0
  5 17  2  0  0  0  0
  6 16  2  0  0  0  0
  6 20  1  0  0  0  0
  7 18  2  0  0  0  0
  7 21  1  0  0  0  0
  8 19  2  0  0  0  0
  8 21  1  0  0  0  0
  8 22  1  0  0  0  0
 11 15  1  0  0  0  0
 12 15  1  0  0  0  0
 13 20  1  0  0  0  0
 14 15  1  0  0  0  0
 14 21  1  0  0  0  0
 17 20  1  0  0  0  0
 18 19  1  0  0  0  0
  1 23  1  0  0  0  0
  9 24  1  0  0  0  0
  9 25  1  0  0  0  0
  9 26  1  0  0  0  0
 10 27  1  0  0  0  0
 10 28  1  0  0  0  0
 10 29  1  0  0  0  0
 11 30  1  0  0  0  0
 11 31  1  0  0  0  0
 11 32  1  0  0  0  0
 12 33  1  0  0  0  0
 12 34  1  0  0  0  0
 12 35  1  0  0  0  0
 13 36  1  0  0  0  0
 13 37  1  0  0  0  0
 13 38  1  0  0  0  0
 14 39  1  0  0  0  0
 14 40  1  0  0  0  0
 15 41  1  0  0  0  0
 22 42  1  0  0  0  0
M  END
> <id>
EN300-230718

> <smiles>
CC(C)CN1C(S)=NN=C1C=2C=C(C)N=C3N(C)N=C(C)C23

> <MDLNUMBER>
MFCD08553296

> <IUPAC Name>
4-(2-methylpropyl)-5-{1,3,6-trimethyl-1H-pyrazolo[3,4-b]pyridin-4-yl}-4H-1,2,4-triazole-3-thiol

> <CAS>
937598-10-2

> <URL>
https://www.enaminestore.com/catalog/EN300-230718

> <ROCS_ShapeQuery>
x0446_0A_x1080_0A_x0929_0A_x0812_0A_x0719_0A_x1140_0A_x0528_0A_x0310_0A

> <ROCS_TanimotoCombo>
0.430 

> <ROCS_ShapeTanimoto>
0.263 

> <ROCS_ColorTanimoto>
0.167 

> <ROCS_RefTversky>
0.236 

> <ROCS_RefColorTversky>
0.186 

> <ROCS_RefTverskyCombo>
0.422 

> <ROCS_FitTversky>
1.765 

> <ROCS_FitColorTversky>
0.622 

> <ROCS_FitTverskyCombo>
2.387 

> <ROCS_ColorScore>
-6.659

> <ROCS_Overlap>
2786.593

> <ROCS_Rank>
89                  

$$$$
untitled-dbase-86522_6
  -OEChem-02082415563D

 37 39  0     0  0  0  0  0  0999 V2000
    7.3611   10.5437   24.4867 C   0  0  0  0  0  0  0  0  0  0  0  0
    9.6242   11.4158   25.1161 C   0  0  0  0  0  0  0  0  0  0  0  0
    7.8268   13.0027   24.3651 C   0  0  0  0  0  0  0  0  0  0  0  0
    9.3373   10.0947   23.0115 C   0  0  0  0  0  0  0  0  0  0  0  0
    7.5397   11.6818   22.2604 C   0  0  0  0  0  0  0  0  0  0  0  0
    8.1149   11.7105   25.1481 C   0  0  0  0  0  0  0  0  0  0  0  0
    7.8244   10.3789   23.0293 C   0  0  0  0  0  0  0  0  0  0  0  0
   10.1061   11.2646   23.6601 C   0  0  0  0  0  0  0  0  0  0  0  0
    8.3014   12.8579   22.9061 C   0  0  0  0  0  0  0  0  0  0  0  0
    9.8183   12.5499   22.8450 C   0  0  0  0  0  0  0  0  0  0  0  0
   12.7253   13.3244   20.9916 C   0  0  0  0  0  0  0  0  0  0  0  0
   10.6809   13.7350   23.2847 C   0  0  0  0  0  0  0  0  0  0  0  0
   11.4710   14.0575   20.7428 N   0  0  0  0  0  0  0  0  0  0  0  0
    9.4136   15.3380   21.6493 O   0  0  0  0  0  0  0  0  0  0  0  0
   11.7240   15.9703   22.4358 O   0  0  0  0  0  0  0  0  0  0  0  0
   10.7680   14.9523   22.0209 S   0  0  0  0  0  0  0  0  0  0  0  0
    7.5408    9.6165   25.0445 H   0  0  0  0  0  0  0  0  0  0  0  0
    6.2804   10.7293   24.5179 H   0  0  0  0  0  0  0  0  0  0  0  0
   10.1749   12.2138   25.6260 H   0  0  0  0  0  0  0  0  0  0  0  0
    9.8334   10.4931   25.6722 H   0  0  0  0  0  0  0  0  0  0  0  0
    6.7503   13.2153   24.3841 H   0  0  0  0  0  0  0  0  0  0  0  0
    8.3170   13.8543   24.8497 H   0  0  0  0  0  0  0  0  0  0  0  0
    9.5493    9.1629   23.5504 H   0  0  0  0  0  0  0  0  0  0  0  0
    9.6785    9.9482   21.9793 H   0  0  0  0  0  0  0  0  0  0  0  0
    7.8407   11.5708   21.2114 H   0  0  0  0  0  0  0  0  0  0  0  0
    6.4623   11.8884   22.2607 H   0  0  0  0  0  0  0  0  0  0  0  0
    7.7810   11.8233   26.1856 H   0  0  0  0  0  0  0  0  0  0  0  0
    7.2860    9.5475   22.5613 H   0  0  0  0  0  0  0  0  0  0  0  0
   11.1797   11.0435   23.6477 H   0  0  0  0  0  0  0  0  0  0  0  0
    8.0817   13.7787   22.3534 H   0  0  0  0  0  0  0  0  0  0  0  0
   10.0848   12.3554   21.7963 H   0  0  0  0  0  0  0  0  0  0  0  0
   13.3598   13.9046   21.6779 H   0  0  0  0  0  0  0  0  0  0  0  0
   12.4957   12.3476   21.4422 H   0  0  0  0  0  0  0  0  0  0  0  0
   13.2566   13.1736   20.0404 H   0  0  0  0  0  0  0  0  0  0  0  0
   11.6935   13.4013   23.4973 H   0  0  0  0  0  0  0  0  0  0  0  0
   10.2526   14.2010   24.1685 H   0  0  0  0  0  0  0  0  0  0  0  0
   10.8241   13.5737   20.1066 H   0  0  0  0  0  0  0  0  0  0  0  0
  1  6  1  0  0  0  0
  1  7  1  0  0  0  0
  2  6  1  0  0  0  0
  2  8  1  0  0  0  0
  3  6  1  0  0  0  0
  3  9  1  0  0  0  0
  4  7  1  0  0  0  0
  4  8  1  0  0  0  0
  5  7  1  0  0  0  0
  5  9  1  0  0  0  0
  8 10  1  0  0  0  0
  9 10  1  0  0  0  0
 10 12  1  0  0  0  0
 11 13  1  0  0  0  0
 12 16  1  0  0  0  0
 13 16  1  0  0  0  0
 14 16  2  0  0  0  0
 15 16  2  0  0  0  0
  1 17  1  0  0  0  0
  1 18  1  0  0  0  0
  2 19  1  0  0  0  0
  2 20  1  0  0  0  0
  3 21  1  0  0  0  0
  3 22  1  0  0  0  0
  4 23  1  0  0  0  0
  4 24  1  0  0  0  0
  5 25  1  0  0  0  0
  5 26  1  0  0  0  0
  6 27  1  0  0  0  0
  7 28  1  0  0  0  0
  8 29  1  0  0  0  0
  9 30  1  0  0  0  0
 10 31  1  0  0  0  0
 11 32  1  0  0  0  0
 11 33  1  0  0  0  0
 11 34  1  0  0  0  0
 12 35  1  0  0  0  0
 12 36  1  0  0  0  0
 13 37  1  0  0  0  0
M  END
> <id>
EN300-680805

> <smiles>
CNS(=O)(=O)CC1C2CC3CC(C2)CC1C3

> <IUPAC Name>
1-(adamantan-2-yl)-N-methylmethanesulfonamide

> <CAS>
2138357-25-0

> <URL>
https://www.enaminestore.com/catalog/EN300-680805

> <ROCS_ShapeQuery>
x0446_0A_x1080_0A_x0929_0A_x0812_0A_x0719_0A_x1140_0A_x0528_0A_x0310_0A

> <ROCS_TanimotoCombo>
0.429 

> <ROCS_ShapeTanimoto>
0.218 

> <ROCS_ColorTanimoto>
0.212 

> <ROCS_RefTversky>
0.198 

> <ROCS_RefColorTversky>
0.228 

> <ROCS_RefTverskyCombo>
0.426 

> <ROCS_FitTversky>
1.844 

> <ROCS_FitColorTversky>
0.751 

> <ROCS_FitTverskyCombo>
2.595 

> <ROCS_ColorScore>
-8.155

> <ROCS_Overlap>
2335.171

> <ROCS_Rank>
90                  

$$$$
untitled-dbase-261595_8
  -OEChem-02082415563D

 56 60  0     1  0  0  0  0  0999 V2000
    1.9440   13.1266   22.9633 C   0  0  0  0  0  0  0  0  0  0  0  0
    1.5980   13.4021   21.6404 C   0  0  0  0  0  0  0  0  0  0  0  0
    9.9588   14.7887   21.7692 C   0  0  0  0  0  0  0  0  0  0  0  0
   11.9031   14.1227   23.0394 C   0  0  0  0  0  0  0  0  0  0  0  0
   10.6431   15.9149   21.3122 C   0  0  0  0  0  0  0  0  0  0  0  0
   12.5874   15.2489   22.5824 C   0  0  0  0  0  0  0  0  0  0  0  0
    3.2572   12.7821   23.2835 C   0  0  0  0  0  0  0  0  0  0  0  0
    3.8784   12.9883   20.9579 C   0  0  0  0  0  0  0  0  0  0  0  0
    2.5653   13.3329   20.6377 C   0  0  0  0  0  0  0  0  0  0  0  0
   10.5887   13.8926   22.6329 C   0  0  0  0  0  0  0  0  0  0  0  0
   11.9575   16.1450   21.7187 C   0  0  0  0  0  0  0  0  0  0  0  0
    4.2244   12.7129   22.2809 C   0  0  0  0  0  0  0  0  0  0  0  0
    2.2032   13.6203   19.2590 C   0  0  0  0  0  0  0  0  0  0  0  0
    6.0685   12.0602   23.8612 C   0  0  0  0  0  0  0  0  0  0  0  0
    9.7578    9.8467   24.1752 C   0  0  0  0  0  0  0  0  0  0  0  0
   10.0034   11.3979   22.2234 C   0  0  0  0  0  0  0  0  0  0  0  0
   10.3436   12.2567   24.5552 C   0  0  0  0  0  0  0  0  0  0  0  0
    7.7386   10.5326   22.8562 C   0  0  0  0  0  0  0  0  0  0  0  0
    8.0723   11.4001   25.1877 C   0  0  0  0  0  0  0  0  0  0  0  0
    8.3095   12.9514   23.2254 C   0  0  0  0  0  0  0  0  0  0  0  0
    9.2319   10.1864   22.7738 C   0  0  2  0  0  0  0  0  0  0  0  0
    9.5669   11.0495   25.1094 C   0  0  1  0  0  0  0  0  0  0  0  0
    9.8354   12.6513   23.1370 C   0  0  0  0  0  0  0  0  0  0  0  0
    7.5347   11.7409   23.7850 C   0  0  0  0  0  0  0  0  0  0  0  0
   12.6891   17.3485   21.2282 C   0  0  0  0  0  0  0  0  0  0  0  0
    5.5566   12.3637   22.6060 N   0  0  0  0  0  0  0  0  0  0  0  0
    2.9748   13.5897   18.2946 O   0  0  0  0  0  0  0  0  0  0  0  0
    5.4741   12.0304   24.9339 O   0  0  0  0  0  0  0  0  0  0  0  0
    0.8864   13.9372   19.1217 O   0  0  0  0  0  0  0  0  0  0  0  0
    1.1910   13.1807   23.7442 H   0  0  0  0  0  0  0  0  0  0  0  0
    0.5715   13.6684   21.4027 H   0  0  0  0  0  0  0  0  0  0  0  0
    8.9348   14.6177   21.4478 H   0  0  0  0  0  0  0  0  0  0  0  0
   12.4018   13.4289   23.7112 H   0  0  0  0  0  0  0  0  0  0  0  0
   10.1451   16.6068   20.6384 H   0  0  0  0  0  0  0  0  0  0  0  0
   13.6112   15.4207   22.9042 H   0  0  0  0  0  0  0  0  0  0  0  0
    3.5155   12.5689   24.3179 H   0  0  0  0  0  0  0  0  0  0  0  0
    4.6328   12.9333   20.1756 H   0  0  0  0  0  0  0  0  0  0  0  0
    9.2269    8.9737   24.5739 H   0  0  0  0  0  0  0  0  0  0  0  0
   10.8198    9.5769   24.1227 H   0  0  0  0  0  0  0  0  0  0  0  0
   11.0680   11.1437   22.1290 H   0  0  0  0  0  0  0  0  0  0  0  0
    9.6538   11.6257   21.2072 H   0  0  0  0  0  0  0  0  0  0  0  0
   10.2373   13.1082   25.2407 H   0  0  0  0  0  0  0  0  0  0  0  0
   11.4161   12.0223   24.5206 H   0  0  0  0  0  0  0  0  0  0  0  0
    7.3480   10.7496   21.8532 H   0  0  0  0  0  0  0  0  0  0  0  0
    7.1729    9.6662   23.2240 H   0  0  0  0  0  0  0  0  0  0  0  0
    7.5156   10.5567   25.6172 H   0  0  0  0  0  0  0  0  0  0  0  0
    7.9206   12.2461   25.8709 H   0  0  0  0  0  0  0  0  0  0  0  0
    8.1377   13.8323   23.8603 H   0  0  0  0  0  0  0  0  0  0  0  0
    7.9225   13.2236   22.2329 H   0  0  0  0  0  0  0  0  0  0  0  0
    9.3742    9.3269   22.1090 H   0  0  0  0  0  0  0  0  0  0  0  0
    9.9396   10.8016   26.1096 H   0  0  0  0  0  0  0  0  0  0  0  0
   12.5329   18.1942   21.9091 H   0  0  0  0  0  0  0  0  0  0  0  0
   13.7673   17.1564   21.1536 H   0  0  0  0  0  0  0  0  0  0  0  0
   12.3486   17.6409   20.2263 H   0  0  0  0  0  0  0  0  0  0  0  0
    6.2036   12.3345   21.8208 H   0  0  0  0  0  0  0  0  0  0  0  0
    0.6317   14.1321   18.1946 H   0  0  0  0  0  0  0  0  0  0  0  0
  1  2  1  0  0  0  0
  1  7  2  0  0  0  0
  2  9  2  0  0  0  0
  3  5  2  0  0  0  0
  3 10  1  0  0  0  0
  4  6  1  0  0  0  0
  4 10  2  0  0  0  0
  5 11  1  0  0  0  0
  6 11  2  0  0  0  0
  7 12  1  0  0  0  0
  8  9  1  0  0  0  0
  8 12  2  0  0  0  0
  9 13  1  0  0  0  0
 10 23  1  0  0  0  0
 11 25  1  0  0  0  0
 12 26  1  0  0  0  0
 13 27  2  0  0  0  0
 13 29  1  0  0  0  0
 14 24  1  0  0  0  0
 14 26  1  0  0  0  0
 14 28  2  0  0  0  0
 15 21  1  0  0  0  0
 15 22  1  0  0  0  0
 16 21  1  0  0  0  0
 16 23  1  0  0  0  0
 17 22  1  0  0  0  0
 17 23  1  0  0  0  0
 18 21  1  0  0  0  0
 18 24  1  0  0  0  0
 19 22  1  0  0  0  0
 19 24  1  0  0  0  0
 20 23  1  0  0  0  0
 20 24  1  0  0  0  0
  1 30  1  0  0  0  0
  2 31  1  0  0  0  0
  3 32  1  0  0  0  0
  4 33  1  0  0  0  0
  5 34  1  0  0  0  0
  6 35  1  0  0  0  0
  7 36  1  0  0  0  0
  8 37  1  0  0  0  0
 15 38  1  0  0  0  0
 15 39  1  0  0  0  0
 16 40  1  0  0  0  0
 16 41  1  0  0  0  0
 17 42  1  0  0  0  0
 17 43  1  0  0  0  0
 18 44  1  0  0  0  0
 18 45  1  0  0  0  0
 19 46  1  0  0  0  0
 19 47  1  0  0  0  0
 20 48  1  0  0  0  0
 20 49  1  0  0  0  0
 21 50  1  0  0  0  0
 22 51  1  0  0  0  0
 25 52  1  0  0  0  0
 25 53  1  0  0  0  0
 25 54  1  0  0  0  0
 26 55  1  0  0  0  0
 29 56  1  0  0  0  0
M  END
> <id>
EN300-26867107

> <smiles>
CC=1C=CC(=CC1)C2(CC3CC4CC(C3)(C2)C(=O)NC=5C=CC=C(C5)C(=O)O)C4

> <IUPAC Name>
3-[3-(4-methylphenyl)adamantane-1-amido]benzoic acid

> <CAS>
413593-49-4

> <URL>
https://www.enaminestore.com/catalog/EN300-26867107

> <ROCS_ShapeQuery>
x0446_0A_x1080_0A_x0929_0A_x0812_0A_x0719_0A_x1140_0A_x0528_0A_x0310_0A

> <ROCS_TanimotoCombo>
0.429 

> <ROCS_ShapeTanimoto>
0.263 

> <ROCS_ColorTanimoto>
0.166 

> <ROCS_RefTversky>
0.242 

> <ROCS_RefColorTversky>
0.201 

> <ROCS_RefTverskyCombo>
0.442 

> <ROCS_FitTversky>
1.513 

> <ROCS_FitColorTversky>
0.493 

> <ROCS_FitTverskyCombo>
2.005 

> <ROCS_ColorScore>
-7.220

> <ROCS_Overlap>
2857.053

> <ROCS_Rank>
91                  

$$$$
untitled-dbase-294600_8
  -OEChem-02082415563D

 46 50  0     1  0  0  0  0  0999 V2000
   13.3090   18.7197   22.0246 C   0  0  0  0  0  0  0  0  0  0  0  0
   14.4603   17.9471   22.2855 C   0  0  0  0  0  0  0  0  0  0  0  0
   12.0741   18.1126   21.7778 C   0  0  0  0  0  0  0  0  0  0  0  0
   14.4019   16.5504   22.3053 C   0  0  0  0  0  0  0  0  0  0  0  0
    6.5968   13.7605   22.7756 C   0  0  0  0  0  0  0  0  0  0  0  0
    5.6981   11.5779   22.2603 C   0  0  0  0  0  0  0  0  0  0  0  0
    5.4855   14.3585   22.1814 C   0  0  0  0  0  0  0  0  0  0  0  0
    4.5867   12.1759   21.6661 C   0  0  0  0  0  0  0  0  0  0  0  0
   12.0371   16.7344   21.8051 C   0  0  0  0  0  0  0  0  0  0  0  0
   13.1741   15.9714   22.0626 C   0  0  0  0  0  0  0  0  0  0  0  0
    6.7031   12.3703   22.8150 C   0  0  0  0  0  0  0  0  0  0  0  0
    4.4805   13.5661   21.6267 C   0  0  0  0  0  0  0  0  0  0  0  0
   10.9160   15.8163   21.5804 C   0  0  0  0  0  0  0  0  0  0  0  0
   12.7933   14.5564   22.0053 C   0  0  0  0  0  0  0  0  0  0  0  0
   10.1739   13.0648   22.9279 C   0  0  0  0  0  0  0  0  0  0  0  0
    9.3749   11.2163   25.2156 C   0  0  0  0  0  0  0  0  0  0  0  0
    8.1193   12.0539   24.9487 C   0  0  0  0  0  0  0  0  0  0  0  0
    8.1441   10.1701   23.3975 C   0  0  0  0  0  0  0  0  0  0  0  0
    9.3435   11.7842   22.7999 C   0  0  1  0  0  0  0  0  0  0  0  0
    9.5735   10.6160   23.8251 C   0  0  1  0  0  0  0  0  0  0  0  0
    7.9109   11.7208   23.4609 C   0  0  1  0  0  0  0  0  0  0  0  0
    3.2924   14.2056   20.9907 C   0  0  0  0  0  0  0  0  0  0  0  0
   11.4554   14.5816   21.7635 N   0  0  0  0  0  0  0  0  0  0  0  0
    9.7804   16.1555   21.3119 O   0  0  0  0  0  0  0  0  0  0  0  0
   13.5546   13.6229   22.1659 O   0  0  0  0  0  0  0  0  0  0  0  0
   10.3401   13.6705   23.9784 O   0  0  0  0  0  0  0  0  0  0  0  0
   10.6782   13.4042   21.7064 O   0  0  0  0  0  0  0  0  0  0  0  0
    3.3223   15.5708   21.0240 F   0  0  0  0  0  0  0  0  0  0  0  0
    3.1395   13.8849   19.6719 F   0  0  0  0  0  0  0  0  0  0  0  0
    2.1200   13.8503   21.5924 F   0  0  0  0  0  0  0  0  0  0  0  0
   13.3863   19.8039   22.0146 H   0  0  0  0  0  0  0  0  0  0  0  0
   15.4067   18.4480   22.4724 H   0  0  0  0  0  0  0  0  0  0  0  0
   11.1911   18.7070   21.5751 H   0  0  0  0  0  0  0  0  0  0  0  0
   15.2872   15.9580   22.5030 H   0  0  0  0  0  0  0  0  0  0  0  0
    7.3755   14.3844   23.2060 H   0  0  0  0  0  0  0  0  0  0  0  0
    5.7738   10.4943   22.2875 H   0  0  0  0  0  0  0  0  0  0  0  0
    5.4115   15.4424   22.1553 H   0  0  0  0  0  0  0  0  0  0  0  0
    3.8086   11.5506   21.2364 H   0  0  0  0  0  0  0  0  0  0  0  0
   10.2224   11.8329   25.5300 H   0  0  0  0  0  0  0  0  0  0  0  0
    9.1977   10.4480   25.9749 H   0  0  0  0  0  0  0  0  0  0  0  0
    7.2792   11.7280   25.5715 H   0  0  0  0  0  0  0  0  0  0  0  0
    8.2969   13.1204   25.1224 H   0  0  0  0  0  0  0  0  0  0  0  0
    8.0610    9.7049   22.4078 H   0  0  0  0  0  0  0  0  0  0  0  0
    7.5883    9.5564   24.1141 H   0  0  0  0  0  0  0  0  0  0  0  0
    9.3636   11.4557   21.7487 H   0  0  0  0  0  0  0  0  0  0  0  0
   10.3996    9.9267   23.6551 H   0  0  0  0  0  0  0  0  0  0  0  0
  1  2  1  0  0  0  0
  1  3  2  0  0  0  0
  2  4  2  0  0  0  0
  3  9  1  0  0  0  0
  4 10  1  0  0  0  0
  5  7  2  0  0  0  0
  5 11  1  0  0  0  0
  6  8  1  0  0  0  0
  6 11  2  0  0  0  0
  7 12  1  0  0  0  0
  8 12  2  0  0  0  0
  9 10  2  0  0  0  0
  9 13  1  0  0  0  0
 10 14  1  0  0  0  0
 11 21  1  1  0  0  0
 12 22  1  0  0  0  0
 13 23  1  0  0  0  0
 13 24  2  0  0  0  0
 14 23  1  0  0  0  0
 14 25  2  0  0  0  0
 15 19  1  6  0  0  0
 15 26  2  0  0  0  0
 15 27  1  0  0  0  0
 16 17  1  0  0  0  0
 16 20  1  0  0  0  0
 17 21  1  0  0  0  0
 18 20  1  1  0  0  0
 18 21  1  0  0  0  0
 19 20  1  0  0  0  0
 19 21  1  0  0  0  0
 22 28  1  0  0  0  0
 22 29  1  0  0  0  0
 22 30  1  0  0  0  0
 23 27  1  0  0  0  0
  1 31  1  0  0  0  0
  2 32  1  0  0  0  0
  3 33  1  0  0  0  0
  4 34  1  0  0  0  0
  5 35  1  0  0  0  0
  6 36  1  0  0  0  0
  7 37  1  0  0  0  0
  8 38  1  0  0  0  0
 16 39  1  0  0  0  0
 16 40  1  0  0  0  0
 17 41  1  0  0  0  0
 17 42  1  0  0  0  0
 18 43  1  0  0  0  0
 18 44  1  0  0  0  0
 19 45  1  0  0  0  0
 20 46  1  0  0  0  0
M  END
> <id>
EN300-6526514

> <smiles>
FC(F)(F)C=1C=CC(=CC1)[C@@]2(C[C@@H]3CC2)[C@H]3C(=O)ON4C(=O)C=5C=CC=CC5C4=O |&1:10,12,15,r|

> <IUPAC Name>
rac-1,3-dioxo-2,3-dihydro-1H-isoindol-2-yl (1R,4R,5R)-1-[4-(trifluoromethyl)phenyl]bicyclo[2.1.1]hexane-5-carboxylate

> <CAS>
2248335-92-2

> <URL>
https://www.enaminestore.com/catalog/EN300-6526514

> <ROCS_ShapeQuery>
x0446_0A_x1080_0A_x0929_0A_x0812_0A_x0719_0A_x1140_0A_x0528_0A_x0310_0A

> <ROCS_TanimotoCombo>
0.429 

> <ROCS_ShapeTanimoto>
0.239 

> <ROCS_ColorTanimoto>
0.190 

> <ROCS_RefTversky>
0.225 

> <ROCS_RefColorTversky>
0.222 

> <ROCS_RefTverskyCombo>
0.447 

> <ROCS_FitTversky>
1.352 

> <ROCS_FitColorTversky>
0.570 

> <ROCS_FitTverskyCombo>
1.922 

> <ROCS_ColorScore>
-7.988

> <ROCS_Overlap>
2660.554

> <ROCS_Rank>
92                  

$$$$
untitled-dbase-388131_6
  -OEChem-02082415563D

 39 41  0     0  0  0  0  0  0999 V2000
    9.7928   14.6589   22.5755 C   0  0  0  0  0  0  0  0  0  0  0  0
    8.8907   13.6355   22.4274 C   0  0  0  0  0  0  0  0  0  0  0  0
   10.8975   14.7184   23.4815 C   0  0  0  0  0  0  0  0  0  0  0  0
    6.9256   12.9646   24.8329 C   0  0  0  0  0  0  0  0  0  0  0  0
   10.1410   11.5923   23.7396 C   0  0  0  0  0  0  0  0  0  0  0  0
    8.7106   10.9107   22.3794 C   0  0  0  0  0  0  0  0  0  0  0  0
    8.0686   10.6975   24.7638 C   0  0  0  0  0  0  0  0  0  0  0  0
    9.1797   10.3542   23.7676 C   0  0  0  0  0  0  0  0  0  0  0  0
    8.8150   12.2732   23.1900 C   0  0  0  0  0  0  0  0  0  0  0  0
    6.3532   15.4553   26.1148 C   0  0  0  0  0  0  0  0  0  0  0  0
    6.2748   16.4198   23.7968 C   0  0  0  0  0  0  0  0  0  0  0  0
    4.6319   14.6426   24.4683 C   0  0  0  0  0  0  0  0  0  0  0  0
    6.0560   15.1680   24.6438 C   0  0  0  0  0  0  0  0  0  0  0  0
    9.4902   15.6679   21.7037 N   0  0  0  0  0  0  0  0  0  0  0  0
    8.4170   15.3013   21.0117 N   0  0  0  0  0  0  0  0  0  0  0  0
    8.0590   14.0825   21.4473 N   0  0  0  0  0  0  0  0  0  0  0  0
    7.8425   12.0738   24.3124 N   0  0  0  0  0  0  0  0  0  0  0  0
   10.9665   14.1696   24.6021 O   0  0  0  0  0  0  0  0  0  0  0  0
    6.1596   12.7236   25.7615 O   0  0  0  0  0  0  0  0  0  0  0  0
   11.9476   15.4642   23.0121 O   0  0  0  0  0  0  0  0  0  0  0  0
    6.9710   14.1685   24.1808 O   0  0  0  0  0  0  0  0  0  0  0  0
   10.5029   11.9433   24.7113 H   0  0  0  0  0  0  0  0  0  0  0  0
   10.9889   11.5334   23.0469 H   0  0  0  0  0  0  0  0  0  0  0  0
    9.4072   10.7805   21.5427 H   0  0  0  0  0  0  0  0  0  0  0  0
    7.7089   10.6120   22.0542 H   0  0  0  0  0  0  0  0  0  0  0  0
    7.1607   10.1031   24.6304 H   0  0  0  0  0  0  0  0  0  0  0  0
    8.3972   10.6919   25.8066 H   0  0  0  0  0  0  0  0  0  0  0  0
    9.6218    9.3590   23.8018 H   0  0  0  0  0  0  0  0  0  0  0  0
    6.1973   14.5593   26.7261 H   0  0  0  0  0  0  0  0  0  0  0  0
    7.3826   15.7996   26.2586 H   0  0  0  0  0  0  0  0  0  0  0  0
    5.6743   16.2203   26.5088 H   0  0  0  0  0  0  0  0  0  0  0  0
    6.0626   16.2182   22.7406 H   0  0  0  0  0  0  0  0  0  0  0  0
    7.3201   16.7458   23.8450 H   0  0  0  0  0  0  0  0  0  0  0  0
    5.6381   17.2471   24.1266 H   0  0  0  0  0  0  0  0  0  0  0  0
    4.4184   14.4365   23.4132 H   0  0  0  0  0  0  0  0  0  0  0  0
    4.4677   13.7236   25.0401 H   0  0  0  0  0  0  0  0  0  0  0  0
    3.8982   15.3898   24.7919 H   0  0  0  0  0  0  0  0  0  0  0  0
    7.2524   13.6290   21.0353 H   0  0  0  0  0  0  0  0  0  0  0  0
   12.7112   15.5105   23.6263 H   0  0  0  0  0  0  0  0  0  0  0  0
  1  2  2  0  0  0  0
  1  3  1  0  0  0  0
  1 14  1  0  0  0  0
  2  9  1  0  0  0  0
  2 16  1  0  0  0  0
  3 18  2  0  0  0  0
  3 20  1  0  0  0  0
  4 17  1  0  0  0  0
  4 19  2  0  0  0  0
  4 21  1  0  0  0  0
  5  8  1  0  0  0  0
  5  9  1  0  0  0  0
  6  8  1  0  0  0  0
  6  9  1  0  0  0  0
  7  8  1  0  0  0  0
  7 17  1  0  0  0  0
  9 17  1  0  0  0  0
 10 13  1  0  0  0  0
 11 13  1  0  0  0  0
 12 13  1  0  0  0  0
 13 21  1  0  0  0  0
 14 15  2  0  0  0  0
 15 16  1  0  0  0  0
  5 22  1  0  0  0  0
  5 23  1  0  0  0  0
  6 24  1  0  0  0  0
  6 25  1  0  0  0  0
  7 26  1  0  0  0  0
  7 27  1  0  0  0  0
  8 28  1  0  0  0  0
 10 29  1  0  0  0  0
 10 30  1  0  0  0  0
 10 31  1  0  0  0  0
 11 32  1  0  0  0  0
 11 33  1  0  0  0  0
 11 34  1  0  0  0  0
 12 35  1  0  0  0  0
 12 36  1  0  0  0  0
 12 37  1  0  0  0  0
 16 38  1  0  0  0  0
 20 39  1  0  0  0  0
M  END
> <id>
EN300-787747

> <smiles>
CC(C)(C)OC(=O)N1CC2CC1(C2)C=3NN=NC3C(=O)O

> <IUPAC Name>
5-{2-[(tert-butoxy)carbonyl]-2-azabicyclo[2.1.1]hexan-1-yl}-1H-1,2,3-triazole-4-carboxylic acid

> <CAS>
2137606-69-8

> <URL>
https://www.enaminestore.com/catalog/EN300-787747

> <ROCS_ShapeQuery>
x0446_0A_x1080_0A_x0929_0A_x0812_0A_x0719_0A_x1140_0A_x0528_0A_x0310_0A

> <ROCS_TanimotoCombo>
0.429 

> <ROCS_ShapeTanimoto>
0.239 

> <ROCS_ColorTanimoto>
0.190 

> <ROCS_RefTversky>
0.218 

> <ROCS_RefColorTversky>
0.235 

> <ROCS_RefTverskyCombo>
0.453 

> <ROCS_FitTversky>
1.675 

> <ROCS_FitColorTversky>
0.495 

> <ROCS_FitTverskyCombo>
2.170 

> <ROCS_ColorScore>
-8.502

> <ROCS_Overlap>
2577.031

> <ROCS_Rank>
93                  

$$$$
untitled-dbase-46144_3
  -OEChem-02082415563D

 40 43  0     1  0  0  0  0  0999 V2000
    4.9255   13.0501   26.0797 C   0  0  0  0  0  0  0  0  0  0  0  0
    9.9113   14.2345   21.2374 C   0  0  0  0  0  0  0  0  0  0  0  0
    9.7084    9.7779   24.0823 C   0  0  0  0  0  0  0  0  0  0  0  0
    8.7248   10.6057   21.9304 C   0  0  0  0  0  0  0  0  0  0  0  0
   10.4393   11.9835   23.1426 C   0  0  0  0  0  0  0  0  0  0  0  0
    7.3260   10.5483   24.0077 C   0  0  0  0  0  0  0  0  0  0  0  0
    9.0427   11.9082   25.2256 C   0  0  0  0  0  0  0  0  0  0  0  0
    8.0469   12.7506   23.0519 C   0  0  0  0  0  0  0  0  0  0  0  0
    8.4382    9.8323   23.2245 C   0  0  2  0  0  0  0  0  0  0  0  0
   10.1567   11.2012   24.4358 C   0  0  1  0  0  0  0  0  0  0  0  0
    9.1728   12.0454   22.2582 C   0  0  0  0  0  0  0  0  0  0  0  0
    7.7342   12.0085   24.3866 C   0  0  0  0  0  0  0  0  0  0  0  0
    9.4674   12.8142   20.9666 C   0  0  0  0  0  0  0  0  0  0  0  0
    5.6699   14.1877   26.1810 N   0  0  0  0  0  0  0  0  0  0  0  0
    5.5299   12.0604   25.4174 N   0  0  0  0  0  0  0  0  0  0  0  0
    6.8134   13.9330   25.5573 N   0  0  0  0  0  0  0  0  0  0  0  0
    6.6864   12.6711   25.1239 N   0  0  0  0  0  0  0  0  0  0  0  0
   11.8769   15.5299   21.6067 N   0  0  0  0  0  0  0  0  0  0  0  0
   11.2890   14.3070   21.3566 N   0  0  0  0  0  0  0  0  0  0  0  0
    9.1355   15.1819   21.3355 O   0  0  0  0  0  0  0  0  0  0  0  0
    3.9339   12.9391   26.4903 H   0  0  0  0  0  0  0  0  0  0  0  0
    9.5189    9.2053   24.9987 H   0  0  0  0  0  0  0  0  0  0  0  0
   10.5065    9.2558   23.5401 H   0  0  0  0  0  0  0  0  0  0  0  0
    9.5017   10.0867   21.3542 H   0  0  0  0  0  0  0  0  0  0  0  0
    7.8251   10.6207   21.3018 H   0  0  0  0  0  0  0  0  0  0  0  0
   10.7799   12.9970   23.3908 H   0  0  0  0  0  0  0  0  0  0  0  0
   11.2596   11.5017   22.5950 H   0  0  0  0  0  0  0  0  0  0  0  0
    6.4034   10.5629   23.4119 H   0  0  0  0  0  0  0  0  0  0  0  0
    7.0904    9.9806   24.9182 H   0  0  0  0  0  0  0  0  0  0  0  0
    8.8493   11.3686   26.1622 H   0  0  0  0  0  0  0  0  0  0  0  0
    9.3761   12.9141   25.5138 H   0  0  0  0  0  0  0  0  0  0  0  0
    8.3372   13.7873   23.2717 H   0  0  0  0  0  0  0  0  0  0  0  0
    7.1359   12.8138   22.4407 H   0  0  0  0  0  0  0  0  0  0  0  0
    8.1167    8.8137   22.9796 H   0  0  0  0  0  0  0  0  0  0  0  0
   11.0666   11.1592   25.0450 H   0  0  0  0  0  0  0  0  0  0  0  0
   10.2534   12.2935   20.4167 H   0  0  0  0  0  0  0  0  0  0  0  0
    8.5651   12.8326   20.3527 H   0  0  0  0  0  0  0  0  0  0  0  0
   12.7776   15.5281   21.1297 H   0  0  0  0  0  0  0  0  0  0  0  0
   11.3100   16.2325   21.1339 H   0  0  0  0  0  0  0  0  0  0  0  0
   11.8585   13.4720   21.2612 H   0  0  0  0  0  0  0  0  0  0  0  0
  1 14  1  0  0  0  0
  1 15  2  0  0  0  0
  2 13  1  0  0  0  0
  2 19  1  0  0  0  0
  2 20  2  0  0  0  0
  3  9  1  0  0  0  0
  3 10  1  0  0  0  0
  4  9  1  0  0  0  0
  4 11  1  0  0  0  0
  5 10  1  0  0  0  0
  5 11  1  0  0  0  0
  6  9  1  0  0  0  0
  6 12  1  0  0  0  0
  7 10  1  0  0  0  0
  7 12  1  0  0  0  0
  8 11  1  0  0  0  0
  8 12  1  0  0  0  0
 11 13  1  0  0  0  0
 12 17  1  0  0  0  0
 14 16  2  0  0  0  0
 15 17  1  0  0  0  0
 16 17  1  0  0  0  0
 18 19  1  0  0  0  0
  1 21  1  0  0  0  0
  3 22  1  0  0  0  0
  3 23  1  0  0  0  0
  4 24  1  0  0  0  0
  4 25  1  0  0  0  0
  5 26  1  0  0  0  0
  5 27  1  0  0  0  0
  6 28  1  0  0  0  0
  6 29  1  0  0  0  0
  7 30  1  0  0  0  0
  7 31  1  0  0  0  0
  8 32  1  0  0  0  0
  8 33  1  0  0  0  0
  9 34  1  0  0  0  0
 10 35  1  0  0  0  0
 13 36  1  0  0  0  0
 13 37  1  0  0  0  0
 18 38  1  0  0  0  0
 18 39  1  0  0  0  0
 19 40  1  0  0  0  0
M  END
> <id>
EN300-228838

> <smiles>
NNC(=O)CC1(CC2CC3C1)CC(C2)(C3)N4N=CN=N4

> <MDLNUMBER>
MFCD03423234

> <IUPAC Name>
2-[3-(2H-1,2,3,4-tetrazol-2-yl)adamantan-1-yl]acetohydrazide

> <CAS>
438219-39-7

> <URL>
https://www.enaminestore.com/catalog/EN300-228838

> <ROCS_ShapeQuery>
x0446_0A_x1080_0A_x0929_0A_x0812_0A_x0719_0A_x1140_0A_x0528_0A_x0310_0A

> <ROCS_TanimotoCombo>
0.429 

> <ROCS_ShapeTanimoto>
0.240 

> <ROCS_ColorTanimoto>
0.188 

> <ROCS_RefTversky>
0.218 

> <ROCS_RefColorTversky>
0.226 

> <ROCS_RefTverskyCombo>
0.444 

> <ROCS_FitTversky>
1.721 

> <ROCS_FitColorTversky>
0.532 

> <ROCS_FitTverskyCombo>
2.253 

> <ROCS_ColorScore>
-8.130

> <ROCS_Overlap>
2580.253

> <ROCS_Rank>
94                  

$$$$
untitled-dbase-436844_2
  -OEChem-02082415563D

 35 39  0     1  0  0  0  0  0999 V2000
    4.5289   19.1282   20.8709 C   0  0  0  0  0  0  0  0  0  0  0  0
    5.8881   19.4900   20.7610 C   0  0  0  0  0  0  0  0  0  0  0  0
    4.1532   17.8062   21.1271 C   0  0  0  0  0  0  0  0  0  0  0  0
    6.9015   18.5378   20.9049 C   0  0  0  0  0  0  0  0  0  0  0  0
    5.1678   16.8830   21.2689 C   0  0  0  0  0  0  0  0  0  0  0  0
    6.5101   17.2403   21.1603 C   0  0  0  0  0  0  0  0  0  0  0  0
    5.1018   15.4413   21.5284 C   0  0  0  0  0  0  0  0  0  0  0  0
    7.3180   16.0312   21.3488 C   0  0  0  0  0  0  0  0  0  0  0  0
    6.9393   13.5485   23.2540 C   0  0  0  0  0  0  0  0  0  0  0  0
    7.6038   11.9030   25.0264 C   0  0  0  0  0  0  0  0  0  0  0  0
   10.2466    9.7153   23.4121 C   0  0  0  0  0  0  0  0  0  0  0  0
    7.3384   12.1302   23.5208 C   0  0  2  0  0  0  0  0  0  0  0  0
    9.1833   10.0784   24.4143 C   0  0  2  0  0  0  0  0  0  0  0  0
    8.9449   10.3243   22.9626 C   0  0  1  0  0  0  0  0  0  0  0  0
    9.0738   11.4605   25.0187 C   0  0  1  0  0  0  0  0  0  0  0  0
    8.7144   11.8188   22.9076 C   0  0  2  0  0  0  0  0  0  0  0  0
    6.4039   15.0561   21.5990 N   0  0  0  0  0  0  0  0  0  0  0  0
    4.0760   14.8027   21.6581 O   0  0  0  0  0  0  0  0  0  0  0  0
    8.5314   15.9888   21.2966 O   0  0  0  0  0  0  0  0  0  0  0  0
    6.7836   14.3915   24.1275 O   0  0  0  0  0  0  0  0  0  0  0  0
    9.5786   12.3170   23.9648 O   0  0  0  0  0  0  0  0  0  0  0  0
    6.7817   13.7319   21.9113 O   0  0  0  0  0  0  0  0  0  0  0  0
    3.7635   19.8910   20.7528 H   0  0  0  0  0  0  0  0  0  0  0  0
    6.1488   20.5260   20.5599 H   0  0  0  0  0  0  0  0  0  0  0  0
    3.1089   17.5290   21.2087 H   0  0  0  0  0  0  0  0  0  0  0  0
    7.9449   18.8162   20.8175 H   0  0  0  0  0  0  0  0  0  0  0  0
    7.4833   12.8306   25.5972 H   0  0  0  0  0  0  0  0  0  0  0  0
    6.9436   11.1408   25.4523 H   0  0  0  0  0  0  0  0  0  0  0  0
   11.1478   10.3135   23.3667 H   0  0  0  0  0  0  0  0  0  0  0  0
   10.4047    8.6631   23.2072 H   0  0  0  0  0  0  0  0  0  0  0  0
    6.5473   11.4762   23.1397 H   0  0  0  0  0  0  0  0  0  0  0  0
    8.6348    9.3008   24.9230 H   0  0  0  0  0  0  0  0  0  0  0  0
    8.2268    9.7218   22.4280 H   0  0  0  0  0  0  0  0  0  0  0  0
    9.6130   11.5970   25.9582 H   0  0  0  0  0  0  0  0  0  0  0  0
    8.9418   12.2898   21.9485 H   0  0  0  0  0  0  0  0  0  0  0  0
  1  2  1  0  0  0  0
  1  3  2  0  0  0  0
  2  4  2  0  0  0  0
  3  5  1  0  0  0  0
  4  6  1  0  0  0  0
  5  6  2  0  0  0  0
  5  7  1  0  0  0  0
  6  8  1  0  0  0  0
  7 17  1  0  0  0  0
  7 18  2  0  0  0  0
  8 17  1  0  0  0  0
  8 19  2  0  0  0  0
  9 12  1  1  0  0  0
  9 20  2  0  0  0  0
  9 22  1  0  0  0  0
 10 12  1  0  0  0  0
 10 15  1  0  0  0  0
 11 13  1  1  0  0  0
 11 14  1  1  0  0  0
 12 16  1  0  0  0  0
 13 14  1  0  0  0  0
 13 15  1  0  0  0  0
 14 16  1  0  0  0  0
 15 21  1  1  0  0  0
 16 21  1  1  0  0  0
 17 22  1  0  0  0  0
  1 23  1  0  0  0  0
  2 24  1  0  0  0  0
  3 25  1  0  0  0  0
  4 26  1  0  0  0  0
 10 27  1  0  0  0  0
 10 28  1  0  0  0  0
 11 29  1  0  0  0  0
 11 30  1  0  0  0  0
 12 31  1  0  0  0  0
 13 32  1  0  0  0  0
 14 33  1  0  0  0  0
 15 34  1  0  0  0  0
 16 35  1  0  0  0  0
M  END
> <id>
EN300-6525871

> <smiles>
O=C(ON1C(=O)C=2C=CC=CC2C1=O)[C@@H]3C[C@@H]4O[C@H]3[C@H]5C[C@H]54 |&1:14,16,18,19,21,r|

> <IUPAC Name>
rac-1,3-dioxo-2,3-dihydro-1H-isoindol-2-yl (1R,2S,4R,5R,6S)-8-oxatricyclo[3.2.1.0,2,4]octane-6-carboxylate

> <CAS>
2248400-76-0

> <URL>
https://www.enaminestore.com/catalog/EN300-6525871

> <ROCS_ShapeQuery>
x0446_0A_x1080_0A_x0929_0A_x0812_0A_x0719_0A_x1140_0A_x0528_0A_x0310_0A

> <ROCS_TanimotoCombo>
0.429 

> <ROCS_ShapeTanimoto>
0.200 

> <ROCS_ColorTanimoto>
0.229 

> <ROCS_RefTversky>
0.190 

> <ROCS_RefColorTversky>
0.308 

> <ROCS_RefTverskyCombo>
0.498 

> <ROCS_FitTversky>
1.377 

> <ROCS_FitColorTversky>
0.470 

> <ROCS_FitTverskyCombo>
1.848 

> <ROCS_ColorScore>
-11.242

> <ROCS_Overlap>
2241.028

> <ROCS_Rank>
95                  

$$$$
untitled-dbase-262067_9
  -OEChem-02082415563D

 41 42  0     0  0  0  0  0  0999 V2000
   11.0912   13.4370   22.8664 C   0  0  0  0  0  0  0  0  0  0  0  0
    8.1116   12.4529   23.5930 C   0  0  0  0  0  0  0  0  0  0  0  0
    9.5542   11.7155   24.8953 C   0  0  0  0  0  0  0  0  0  0  0  0
    9.4303   11.6409   23.3314 C   0  0  0  0  0  0  0  0  0  0  0  0
    8.0314   11.3273   24.7034 C   0  0  0  0  0  0  0  0  0  0  0  0
    8.9983   10.1996   22.9938 C   0  0  0  0  0  0  0  0  0  0  0  0
   10.1096    9.1729   23.1842 C   0  0  0  0  0  0  0  0  0  0  0  0
    8.3675   10.0635   21.6119 C   0  0  0  0  0  0  0  0  0  0  0  0
   11.8558   16.1231   22.2747 C   0  0  0  0  0  0  0  0  0  0  0  0
   12.9587   15.1629   20.2324 C   0  0  0  0  0  0  0  0  0  0  0  0
   10.4725   14.9585   20.5240 C   0  0  0  0  0  0  0  0  0  0  0  0
    7.0557   11.4203   25.8368 C   0  0  0  0  0  0  0  0  0  0  0  0
   11.8221   14.9999   21.2392 C   0  0  0  0  0  0  0  0  0  0  0  0
   10.4607   12.2515   22.5358 N   0  0  0  0  0  0  0  0  0  0  0  0
   10.8600   14.1128   23.8636 O   0  0  0  0  0  0  0  0  0  0  0  0
    7.9921   10.0354   24.0154 O   0  0  0  0  0  0  0  0  0  0  0  0
    5.7285   11.4756   25.3215 O   0  0  0  0  0  0  0  0  0  0  0  0
   12.0190   13.7522   21.9139 O   0  0  0  0  0  0  0  0  0  0  0  0
    8.2184   13.4883   23.9383 H   0  0  0  0  0  0  0  0  0  0  0  0
    7.3345   12.4225   22.8263 H   0  0  0  0  0  0  0  0  0  0  0  0
   10.1773   10.9692   25.3929 H   0  0  0  0  0  0  0  0  0  0  0  0
    9.7678   12.6962   25.3370 H   0  0  0  0  0  0  0  0  0  0  0  0
    9.7439    8.1783   22.9307 H   0  0  0  0  0  0  0  0  0  0  0  0
   10.4430    9.1746   24.2215 H   0  0  0  0  0  0  0  0  0  0  0  0
   10.9539    9.4155   22.5396 H   0  0  0  0  0  0  0  0  0  0  0  0
    8.0847    9.0265   21.4334 H   0  0  0  0  0  0  0  0  0  0  0  0
    9.0784   10.3742   20.8471 H   0  0  0  0  0  0  0  0  0  0  0  0
    7.4786   10.6902   21.5462 H   0  0  0  0  0  0  0  0  0  0  0  0
   11.0414   16.0096   22.9992 H   0  0  0  0  0  0  0  0  0  0  0  0
   12.8055   16.1415   22.8191 H   0  0  0  0  0  0  0  0  0  0  0  0
   11.7113   17.0992   21.7976 H   0  0  0  0  0  0  0  0  0  0  0  0
   12.9384   14.3592   19.4876 H   0  0  0  0  0  0  0  0  0  0  0  0
   13.9332   15.0981   20.7300 H   0  0  0  0  0  0  0  0  0  0  0  0
   12.9000   16.1225   19.7087 H   0  0  0  0  0  0  0  0  0  0  0  0
   10.4481   14.1530   19.7812 H   0  0  0  0  0  0  0  0  0  0  0  0
    9.6477   14.8050   21.2274 H   0  0  0  0  0  0  0  0  0  0  0  0
   10.2935   15.8904   19.9754 H   0  0  0  0  0  0  0  0  0  0  0  0
    7.2270   12.3251   26.4378 H   0  0  0  0  0  0  0  0  0  0  0  0
    7.1289   10.5461   26.4997 H   0  0  0  0  0  0  0  0  0  0  0  0
   10.7433   11.7826   21.6769 H   0  0  0  0  0  0  0  0  0  0  0  0
    5.1366   11.5348   26.0876 H   0  0  0  0  0  0  0  0  0  0  0  0
  1 14  1  0  0  0  0
  1 15  2  0  0  0  0
  1 18  1  0  0  0  0
  2  4  1  0  0  0  0
  2  5  1  0  0  0  0
  3  4  1  0  0  0  0
  3  5  1  0  0  0  0
  4  6  1  0  0  0  0
  4 14  1  0  0  0  0
  5 12  1  0  0  0  0
  5 16  1  0  0  0  0
  6  7  1  0  0  0  0
  6  8  1  0  0  0  0
  6 16  1  0  0  0  0
  9 13  1  0  0  0  0
 10 13  1  0  0  0  0
 11 13  1  0  0  0  0
 12 17  1  0  0  0  0
 13 18  1  0  0  0  0
  2 19  1  0  0  0  0
  2 20  1  0  0  0  0
  3 21  1  0  0  0  0
  3 22  1  0  0  0  0
  7 23  1  0  0  0  0
  7 24  1  0  0  0  0
  7 25  1  0  0  0  0
  8 26  1  0  0  0  0
  8 27  1  0  0  0  0
  8 28  1  0  0  0  0
  9 29  1  0  0  0  0
  9 30  1  0  0  0  0
  9 31  1  0  0  0  0
 10 32  1  0  0  0  0
 10 33  1  0  0  0  0
 10 34  1  0  0  0  0
 11 35  1  0  0  0  0
 11 36  1  0  0  0  0
 11 37  1  0  0  0  0
 12 38  1  0  0  0  0
 12 39  1  0  0  0  0
 14 40  1  0  0  0  0
 17 41  1  0  0  0  0
M  END
> <id>
EN300-7548276

> <smiles>
CC(C)(C)OC(=O)NC1(CC2(CO)C1)C(C)(C)O2

> <IUPAC Name>
tert-butyl N-[1-(hydroxymethyl)-3,3-dimethyl-2-oxabicyclo[2.1.1]hexan-4-yl]carbamate

> <CAS>
2408974-02-5

> <URL>
https://www.enaminestore.com/catalog/EN300-7548276

> <ROCS_ShapeQuery>
x0446_0A_x1080_0A_x0929_0A_x0812_0A_x0719_0A_x1140_0A_x0528_0A_x0310_0A

> <ROCS_TanimotoCombo>
0.429 

> <ROCS_ShapeTanimoto>
0.231 

> <ROCS_ColorTanimoto>
0.198 

> <ROCS_RefTversky>
0.209 

> <ROCS_RefColorTversky>
0.233 

> <ROCS_RefTverskyCombo>
0.443 

> <ROCS_FitTversky>
1.798 

> <ROCS_FitColorTversky>
0.564 

> <ROCS_FitTverskyCombo>
2.361 

> <ROCS_ColorScore>
-8.410

> <ROCS_Overlap>
2472.199

> <ROCS_Rank>
96                  

$$$$
untitled-dbase-506895_1
  -OEChem-02082415563D

 42 44  0     1  0  0  0  0  0999 V2000
    6.0785   12.1757   24.4203 C   0  0  0  0  0  0  0  0  0  0  0  0
   10.1618   15.0591   22.4039 C   0  0  0  0  0  0  0  0  0  0  0  0
    7.5095   11.0852   22.6971 C   0  0  0  0  0  0  0  0  0  0  0  0
    8.1435   11.0010   25.1256 C   0  0  0  0  0  0  0  0  0  0  0  0
    8.2961   13.1674   23.8630 C   0  0  0  0  0  0  0  0  0  0  0  0
    9.6055    9.8949   23.4061 C   0  0  0  0  0  0  0  0  0  0  0  0
    9.7576   12.0622   22.1407 C   0  0  0  0  0  0  0  0  0  0  0  0
   10.3932   11.9779   24.5729 C   0  0  0  0  0  0  0  0  0  0  0  0
    7.4943   11.8621   24.0268 C   0  0  0  0  0  0  0  0  0  0  0  0
    8.9602   10.7452   22.2872 C   0  0  2  0  0  0  0  0  0  0  0  0
    9.6035   10.6595   24.7503 C   0  0  1  0  0  0  0  0  0  0  0  0
    9.7526   12.8470   23.4703 C   0  0  0  0  0  0  0  0  0  0  0  0
    8.9690    9.9723   20.9649 C   0  0  0  0  0  0  0  0  0  0  0  0
   10.2450    9.8035   25.8464 C   0  0  0  0  0  0  0  0  0  0  0  0
   11.1074   16.2227   22.4572 C   0  0  0  0  0  0  0  0  0  0  0  0
   10.4994   14.0786   23.3177 N   0  0  0  0  0  0  0  0  0  0  0  0
    5.5384   11.8055   25.4521 O   0  0  0  0  0  0  0  0  0  0  0  0
    9.2160   15.0248   21.6218 O   0  0  0  0  0  0  0  0  0  0  0  0
    5.4729   12.9284   23.4696 O   0  0  0  0  0  0  0  0  0  0  0  0
   12.0769   16.0452   23.3905 F   0  0  0  0  0  0  0  0  0  0  0  0
   10.4714   17.3820   22.7642 F   0  0  0  0  0  0  0  0  0  0  0  0
   11.7367   16.4230   21.2714 F   0  0  0  0  0  0  0  0  0  0  0  0
    6.9192   10.1633   22.7918 H   0  0  0  0  0  0  0  0  0  0  0  0
    7.0214   11.6772   21.9106 H   0  0  0  0  0  0  0  0  0  0  0  0
    8.1139   11.5322   26.0870 H   0  0  0  0  0  0  0  0  0  0  0  0
    7.5645   10.0787   25.2723 H   0  0  0  0  0  0  0  0  0  0  0  0
    7.8251   13.8018   23.0998 H   0  0  0  0  0  0  0  0  0  0  0  0
    8.2735   13.7424   24.7992 H   0  0  0  0  0  0  0  0  0  0  0  0
    9.0609    8.9473   23.5155 H   0  0  0  0  0  0  0  0  0  0  0  0
   10.6349    9.6314   23.1280 H   0  0  0  0  0  0  0  0  0  0  0  0
   10.7904   11.8404   21.8394 H   0  0  0  0  0  0  0  0  0  0  0  0
    9.3189   12.6739   21.3405 H   0  0  0  0  0  0  0  0  0  0  0  0
   10.4129   12.5286   25.5234 H   0  0  0  0  0  0  0  0  0  0  0  0
   11.4375   11.7542   24.3158 H   0  0  0  0  0  0  0  0  0  0  0  0
    9.9935    9.7383   20.6860 H   0  0  0  0  0  0  0  0  0  0  0  0
    8.5130   10.5779   20.1855 H   0  0  0  0  0  0  0  0  0  0  0  0
    8.4067    9.0486   21.0786 H   0  0  0  0  0  0  0  0  0  0  0  0
   11.2709    9.5691   25.5727 H   0  0  0  0  0  0  0  0  0  0  0  0
    9.6836    8.8797   25.9632 H   0  0  0  0  0  0  0  0  0  0  0  0
   10.2390   10.3499   26.7865 H   0  0  0  0  0  0  0  0  0  0  0  0
   11.3090   14.2288   23.9100 H   0  0  0  0  0  0  0  0  0  0  0  0
    4.5456   13.1426   23.7074 H   0  0  0  0  0  0  0  0  0  0  0  0
  1  9  1  0  0  0  0
  1 17  2  0  0  0  0
  1 19  1  0  0  0  0
  2 15  1  0  0  0  0
  2 16  1  0  0  0  0
  2 18  2  0  0  0  0
  3  9  1  0  0  0  0
  3 10  1  0  0  0  0
  4  9  1  0  0  0  0
  4 11  1  0  0  0  0
  5  9  1  0  0  0  0
  5 12  1  0  0  0  0
  6 10  1  0  0  0  0
  6 11  1  0  0  0  0
  7 10  1  0  0  0  0
  7 12  1  0  0  0  0
  8 11  1  0  0  0  0
  8 12  1  0  0  0  0
 10 13  1  0  0  0  0
 11 14  1  0  0  0  0
 12 16  1  0  0  0  0
 15 20  1  0  0  0  0
 15 21  1  0  0  0  0
 15 22  1  0  0  0  0
  3 23  1  0  0  0  0
  3 24  1  0  0  0  0
  4 25  1  0  0  0  0
  4 26  1  0  0  0  0
  5 27  1  0  0  0  0
  5 28  1  0  0  0  0
  6 29  1  0  0  0  0
  6 30  1  0  0  0  0
  7 31  1  0  0  0  0
  7 32  1  0  0  0  0
  8 33  1  0  0  0  0
  8 34  1  0  0  0  0
 13 35  1  0  0  0  0
 13 36  1  0  0  0  0
 13 37  1  0  0  0  0
 14 38  1  0  0  0  0
 14 39  1  0  0  0  0
 14 40  1  0  0  0  0
 16 41  1  0  0  0  0
 19 42  1  0  0  0  0
M  END
> <id>
EN300-28293719

> <smiles>
CC1(CC2(C)CC3(C1)NC(=O)C(F)(F)F)CC(C2)(C3)C(=O)O

> <IUPAC Name>
3,5-dimethyl-7-(2,2,2-trifluoroacetamido)adamantane-1-carboxylic acid

> <CAS>
2680753-86-8

> <URL>
https://www.enaminestore.com/catalog/EN300-28293719

> <ROCS_ShapeQuery>
x0446_0A_x1080_0A_x0929_0A_x0812_0A_x0719_0A_x1140_0A_x0528_0A_x0310_0A

> <ROCS_TanimotoCombo>
0.429 

> <ROCS_ShapeTanimoto>
0.247 

> <ROCS_ColorTanimoto>
0.181 

> <ROCS_RefTversky>
0.225 

> <ROCS_RefColorTversky>
0.208 

> <ROCS_RefTverskyCombo>
0.433 

> <ROCS_FitTversky>
1.684 

> <ROCS_FitColorTversky>
0.586 

> <ROCS_FitTverskyCombo>
2.270 

> <ROCS_ColorScore>
-7.472

> <ROCS_Overlap>
2653.631

> <ROCS_Rank>
97                  

$$$$
untitled-dbase-489837_0
  -OEChem-02082415563D

 44 47  0     1  0  0  0  0  0999 V2000
    6.4012   13.9667   22.8239 C   0  0  0  0  0  0  0  0  0  0  0  0
    7.7667   10.2994   24.9621 C   0  0  0  0  0  0  0  0  0  0  0  0
    5.7717   13.5719   24.1642 C   0  0  0  0  0  0  0  0  0  0  0  0
    9.2625   10.2925   25.2237 C   0  0  0  0  0  0  0  0  0  0  0  0
    7.0834   12.7963   22.0717 C   0  0  1  0  0  0  0  0  0  0  0  0
    7.1778   11.5162   24.2280 C   0  0  1  0  0  0  0  0  0  0  0  0
    6.6876   12.7141   25.0643 C   0  0  2  0  0  0  0  0  0  0  0  0
    7.8604   13.2335   20.7997 C   0  0  2  0  0  0  0  0  0  0  0  0
    9.2502   12.8898   23.2969 C   0  0  2  0  0  0  0  0  0  0  0  0
    9.1928   13.9311   21.1314 C   0  0  2  0  0  0  0  0  0  0  0  0
    8.0263   11.9985   23.0181 C   0  0  2  0  0  0  0  0  0  0  0  0
   10.1296   10.8588   24.0942 C   0  0  2  0  0  0  0  0  0  0  0  0
    5.9159   12.3164   26.3246 C   0  0  0  0  0  0  0  0  0  0  0  0
    7.0075   14.0563   19.8325 C   0  0  0  0  0  0  0  0  0  0  0  0
   11.5828   10.4350   24.3361 C   0  0  0  0  0  0  0  0  0  0  0  0
    9.9494   13.1749   22.0762 O   0  0  0  0  0  0  0  0  0  0  0  0
   10.1351   12.2767   24.2148 O   0  0  0  0  0  0  0  0  0  0  0  0
    8.4493   10.7917   22.3558 O   0  0  0  0  0  0  0  0  0  0  0  0
    9.8037   10.3834   22.7825 O   0  0  0  0  0  0  0  0  0  0  0  0
    8.9950   15.2733   21.5599 O   0  0  0  0  0  0  0  0  0  0  0  0
    5.6143   14.3993   22.1949 H   0  0  0  0  0  0  0  0  0  0  0  0
    7.1098   14.7765   23.0172 H   0  0  0  0  0  0  0  0  0  0  0  0
    7.5557    9.4161   24.3403 H   0  0  0  0  0  0  0  0  0  0  0  0
    7.2334   10.0939   25.8955 H   0  0  0  0  0  0  0  0  0  0  0  0
    5.4735   14.4825   24.6984 H   0  0  0  0  0  0  0  0  0  0  0  0
    4.8448   13.0194   23.9588 H   0  0  0  0  0  0  0  0  0  0  0  0
    9.4545   10.8549   26.1468 H   0  0  0  0  0  0  0  0  0  0  0  0
    9.5451    9.2503   25.4219 H   0  0  0  0  0  0  0  0  0  0  0  0
    6.2873   12.1188   21.7285 H   0  0  0  0  0  0  0  0  0  0  0  0
    6.2596   11.0784   23.7987 H   0  0  0  0  0  0  0  0  0  0  0  0
    7.5413   13.3193   25.3893 H   0  0  0  0  0  0  0  0  0  0  0  0
    8.1228   12.3027   20.2759 H   0  0  0  0  0  0  0  0  0  0  0  0
    8.9802   13.8463   23.7522 H   0  0  0  0  0  0  0  0  0  0  0  0
    9.7910   13.9771   20.2136 H   0  0  0  0  0  0  0  0  0  0  0  0
    5.0546   11.7110   26.0509 H   0  0  0  0  0  0  0  0  0  0  0  0
    5.5762   13.2102   26.8431 H   0  0  0  0  0  0  0  0  0  0  0  0
    6.5631   11.7426   26.9844 H   0  0  0  0  0  0  0  0  0  0  0  0
    6.7190   14.9934   20.3040 H   0  0  0  0  0  0  0  0  0  0  0  0
    6.1122   13.4981   19.5671 H   0  0  0  0  0  0  0  0  0  0  0  0
    7.5778   14.2693   18.9308 H   0  0  0  0  0  0  0  0  0  0  0  0
   12.2131   10.8287   23.5430 H   0  0  0  0  0  0  0  0  0  0  0  0
   11.6483    9.3501   24.3444 H   0  0  0  0  0  0  0  0  0  0  0  0
   11.9205   10.8246   25.2929 H   0  0  0  0  0  0  0  0  0  0  0  0
    9.8744   15.6384   21.7474 H   0  0  0  0  0  0  0  0  0  0  0  0
  1  3  1  0  0  0  0
  1  5  1  1  0  0  0
  2  4  1  0  0  0  0
  2  6  1  1  0  0  0
  3  7  1  0  0  0  0
  4 12  1  0  0  0  0
  5  8  1  0  0  0  0
  5 11  1  0  0  0  0
  6  7  1  0  0  0  0
  6 11  1  0  0  0  0
  7 13  1  6  0  0  0
  8 10  1  0  0  0  0
  8 14  1  1  0  0  0
  9 11  1  0  0  0  0
  9 16  1  6  0  0  0
  9 17  1  0  0  0  0
 10 16  1  0  0  0  0
 10 20  1  1  0  0  0
 11 18  1  6  0  0  0
 12 15  1  1  0  0  0
 12 17  1  0  0  0  0
 12 19  1  0  0  0  0
 18 19  1  0  0  0  0
  1 21  1  0  0  0  0
  1 22  1  0  0  0  0
  2 23  1  0  0  0  0
  2 24  1  0  0  0  0
  3 25  1  0  0  0  0
  3 26  1  0  0  0  0
  4 27  1  0  0  0  0
  4 28  1  0  0  0  0
  5 29  1  0  0  0  0
  6 30  1  0  0  0  0
  7 31  1  0  0  0  0
  8 32  1  0  0  0  0
  9 33  1  0  0  0  0
 10 34  1  0  0  0  0
 13 35  1  0  0  0  0
 13 36  1  0  0  0  0
 13 37  1  0  0  0  0
 14 38  1  0  0  0  0
 14 39  1  0  0  0  0
 14 40  1  0  0  0  0
 15 41  1  0  0  0  0
 15 42  1  0  0  0  0
 15 43  1  0  0  0  0
 20 44  1  0  0  0  0
M  END
> <id>
EN300-7419972

> <smiles>
C[C@@H]1CC[C@H]2[C@@H](C)[C@@H](O)O[C@@H]3O[C@@]4(C)CC[C@@H]1[C@@]23OO4

> <MDLNUMBER>
MFCD18323866

> <IUPAC Name>
(1R,4S,5R,8S,9R,10S,12R,13R)-1,5,9-trimethyl-11,14,15,16-tetraoxatetracyclo[10.3.1.0^{4,13}.0^{8,13}]hexadecan-10-ol

> <CAS>
71939-50-9

> <URL>
https://www.enaminestore.com/catalog/EN300-7419972

> <ROCS_ShapeQuery>
x0446_0A_x1080_0A_x0929_0A_x0812_0A_x0719_0A_x1140_0A_x0528_0A_x0310_0A

> <ROCS_TanimotoCombo>
0.429 

> <ROCS_ShapeTanimoto>
0.236 

> <ROCS_ColorTanimoto>
0.193 

> <ROCS_RefTversky>
0.215 

> <ROCS_RefColorTversky>
0.220 

> <ROCS_RefTverskyCombo>
0.435 

> <ROCS_FitTversky>
1.704 

> <ROCS_FitColorTversky>
0.607 

> <ROCS_FitTverskyCombo>
2.312 

> <ROCS_ColorScore>
-7.907

> <ROCS_Overlap>
2538.240

> <ROCS_Rank>
98                  

$$$$
untitled-dbase-129741_0
  -OEChem-02082415563D

 42 44  0     0  0  0  0  0  0999 V2000
    9.0095   15.4581   23.8832 C   0  0  0  0  0  0  0  0  0  0  0  0
    8.4595   14.4907   24.6392 C   0  0  0  0  0  0  0  0  0  0  0  0
    9.7094   15.2470   22.5938 C   0  0  0  0  0  0  0  0  0  0  0  0
    9.3712   11.0300   22.2153 C   0  0  0  0  0  0  0  0  0  0  0  0
    9.3713   10.2618   24.6031 C   0  0  0  0  0  0  0  0  0  0  0  0
    7.2014   10.5525   23.3798 C   0  0  0  0  0  0  0  0  0  0  0  0
   10.0043   12.6233   24.0457 C   0  0  0  0  0  0  0  0  0  0  0  0
    7.8306   12.9144   22.8203 C   0  0  0  0  0  0  0  0  0  0  0  0
    7.8314   12.1462   25.2116 C   0  0  0  0  0  0  0  0  0  0  0  0
   10.0798   11.1606   23.5746 C   0  0  0  0  0  0  0  0  0  0  0  0
    7.8976   11.4528   22.3442 C   0  0  0  0  0  0  0  0  0  0  0  0
    7.8977   10.6810   24.7459 C   0  0  0  0  0  0  0  0  0  0  0  0
    8.5319   13.0586   24.1857 C   0  0  0  0  0  0  0  0  0  0  0  0
    7.7317   14.6829   25.9403 C   0  0  0  0  0  0  0  0  0  0  0  0
   13.3025   14.6740   22.2179 C   0  0  0  0  0  0  0  0  0  0  0  0
   11.8780   14.8606   21.7406 C   0  0  0  0  0  0  0  0  0  0  0  0
    9.1945   15.2540   21.4883 O   0  0  0  0  0  0  0  0  0  0  0  0
   11.0289   15.0637   22.8751 O   0  0  0  0  0  0  0  0  0  0  0  0
    8.9368   16.4936   24.2091 H   0  0  0  0  0  0  0  0  0  0  0  0
    9.8759   11.6549   21.4682 H   0  0  0  0  0  0  0  0  0  0  0  0
    9.4335    9.9945   21.8587 H   0  0  0  0  0  0  0  0  0  0  0  0
    9.4334    9.2127   24.2891 H   0  0  0  0  0  0  0  0  0  0  0  0
    9.8767   10.3337   25.5741 H   0  0  0  0  0  0  0  0  0  0  0  0
    6.1449   10.8335   23.4700 H   0  0  0  0  0  0  0  0  0  0  0  0
    7.2255    9.5084   23.0441 H   0  0  0  0  0  0  0  0  0  0  0  0
   10.5303   12.7282   25.0040 H   0  0  0  0  0  0  0  0  0  0  0  0
   10.5319   13.2658   23.3280 H   0  0  0  0  0  0  0  0  0  0  0  0
    8.3036   13.5657   22.0729 H   0  0  0  0  0  0  0  0  0  0  0  0
    6.7810   13.2301   22.8897 H   0  0  0  0  0  0  0  0  0  0  0  0
    6.7813   12.4415   25.3394 H   0  0  0  0  0  0  0  0  0  0  0  0
    8.3045   12.2401   26.1982 H   0  0  0  0  0  0  0  0  0  0  0  0
   11.1279   10.8566   23.4763 H   0  0  0  0  0  0  0  0  0  0  0  0
    7.3983   11.3563   21.3737 H   0  0  0  0  0  0  0  0  0  0  0  0
    7.3983   10.0364   25.4778 H   0  0  0  0  0  0  0  0  0  0  0  0
    6.6582   14.8402   25.8205 H   0  0  0  0  0  0  0  0  0  0  0  0
    8.1506   15.5354   26.4841 H   0  0  0  0  0  0  0  0  0  0  0  0
    7.8393   13.7910   26.5678 H   0  0  0  0  0  0  0  0  0  0  0  0
   13.6509   15.5570   22.7609 H   0  0  0  0  0  0  0  0  0  0  0  0
   13.3781   13.8019   22.8756 H   0  0  0  0  0  0  0  0  0  0  0  0
   13.9726   14.4930   21.3709 H   0  0  0  0  0  0  0  0  0  0  0  0
   11.5358   13.9741   21.1984 H   0  0  0  0  0  0  0  0  0  0  0  0
   11.8041   15.7329   21.0843 H   0  0  0  0  0  0  0  0  0  0  0  0
  1  2  2  0  0  0  0
  1  3  1  0  0  0  0
  2 13  1  0  0  0  0
  2 14  1  0  0  0  0
  3 17  2  0  0  0  0
  3 18  1  0  0  0  0
  4 10  1  0  0  0  0
  4 11  1  0  0  0  0
  5 10  1  0  0  0  0
  5 12  1  0  0  0  0
  6 11  1  0  0  0  0
  6 12  1  0  0  0  0
  7 10  1  0  0  0  0
  7 13  1  0  0  0  0
  8 11  1  0  0  0  0
  8 13  1  0  0  0  0
  9 12  1  0  0  0  0
  9 13  1  0  0  0  0
 15 16  1  0  0  0  0
 16 18  1  0  0  0  0
  1 19  1  0  0  0  0
  4 20  1  0  0  0  0
  4 21  1  0  0  0  0
  5 22  1  0  0  0  0
  5 23  1  0  0  0  0
  6 24  1  0  0  0  0
  6 25  1  0  0  0  0
  7 26  1  0  0  0  0
  7 27  1  0  0  0  0
  8 28  1  0  0  0  0
  8 29  1  0  0  0  0
  9 30  1  0  0  0  0
  9 31  1  0  0  0  0
 10 32  1  0  0  0  0
 11 33  1  0  0  0  0
 12 34  1  0  0  0  0
 14 35  1  0  0  0  0
 14 36  1  0  0  0  0
 14 37  1  0  0  0  0
 15 38  1  0  0  0  0
 15 39  1  0  0  0  0
 15 40  1  0  0  0  0
 16 41  1  0  0  0  0
 16 42  1  0  0  0  0
M  END
> <id>
EN300-1460313

> <smiles>
CCOC(=O)/C=C(/C)\C1(CC2CC3CC(C2)C1)C3

> <IUPAC Name>
ethyl (2Z)-3-(adamantan-1-yl)but-2-enoate

> <CAS>
93156-40-2

> <URL>
https://www.enaminestore.com/catalog/EN300-1460313

> <ROCS_ShapeQuery>
x0446_0A_x1080_0A_x0929_0A_x0812_0A_x0719_0A_x1140_0A_x0528_0A_x0310_0A

> <ROCS_TanimotoCombo>
0.428 

> <ROCS_ShapeTanimoto>
0.226 

> <ROCS_ColorTanimoto>
0.203 

> <ROCS_RefTversky>
0.206 

> <ROCS_RefColorTversky>
0.215 

> <ROCS_RefTverskyCombo>
0.421 

> <ROCS_FitTversky>
1.761 

> <ROCS_FitColorTversky>
0.777 

> <ROCS_FitTverskyCombo>
2.537 

> <ROCS_ColorScore>
-7.696

> <ROCS_Overlap>
2428.284

> <ROCS_Rank>
99                  

$$$$
untitled-dbase-257105_7
  -OEChem-02082415563D

 52 54  0     1  0  0  0  0  0999 V2000
    6.0749   12.1697   24.4187 C   0  0  0  0  0  0  0  0  0  0  0  0
   10.1608   15.0636   22.4072 C   0  0  0  0  0  0  0  0  0  0  0  0
    7.5109   11.0802   22.6990 C   0  0  0  0  0  0  0  0  0  0  0  0
    8.1428   11.0026   25.1283 C   0  0  0  0  0  0  0  0  0  0  0  0
    8.2901   13.1670   23.8615 C   0  0  0  0  0  0  0  0  0  0  0  0
    9.6098    9.8976   23.4124 C   0  0  0  0  0  0  0  0  0  0  0  0
    9.7566   12.0629   22.1429 C   0  0  0  0  0  0  0  0  0  0  0  0
   10.3901   11.9853   24.5759 C   0  0  0  0  0  0  0  0  0  0  0  0
    7.4920   11.8596   24.0271 C   0  0  0  0  0  0  0  0  0  0  0  0
    8.9630   10.7437   22.2912 C   0  0  2  0  0  0  0  0  0  0  0  0
    9.6042   10.6649   24.7551 C   0  0  1  0  0  0  0  0  0  0  0  0
    9.7479   12.8503   23.4709 C   0  0  0  0  0  0  0  0  0  0  0  0
    8.9754    9.9682   20.9703 C   0  0  0  0  0  0  0  0  0  0  0  0
   10.2472    9.8129   25.8534 C   0  0  0  0  0  0  0  0  0  0  0  0
   10.8129   16.7626   20.2077 C   0  0  0  0  0  0  0  0  0  0  0  0
   12.7136   17.5723   21.6364 C   0  0  0  0  0  0  0  0  0  0  0  0
   12.6132   15.1621   20.9370 C   0  0  0  0  0  0  0  0  0  0  0  0
   11.7947   16.3945   21.3191 C   0  0  0  0  0  0  0  0  0  0  0  0
   10.4911   14.0838   23.3166 N   0  0  0  0  0  0  0  0  0  0  0  0
    5.5350   11.7998   25.4507 O   0  0  0  0  0  0  0  0  0  0  0  0
    9.2177   15.0283   21.6237 O   0  0  0  0  0  0  0  0  0  0  0  0
    5.4679   12.9187   23.4658 O   0  0  0  0  0  0  0  0  0  0  0  0
   11.0495   16.0971   22.5053 O   0  0  0  0  0  0  0  0  0  0  0  0
    6.9233   10.1567   22.7949 H   0  0  0  0  0  0  0  0  0  0  0  0
    7.0217   11.6692   21.9109 H   0  0  0  0  0  0  0  0  0  0  0  0
    8.1106   11.5356   26.0886 H   0  0  0  0  0  0  0  0  0  0  0  0
    7.5665   10.0789   25.2762 H   0  0  0  0  0  0  0  0  0  0  0  0
    7.8178   13.7985   23.0966 H   0  0  0  0  0  0  0  0  0  0  0  0
    8.2648   13.7438   24.7966 H   0  0  0  0  0  0  0  0  0  0  0  0
    9.0680    8.9486   23.5231 H   0  0  0  0  0  0  0  0  0  0  0  0
   10.6402    9.6367   23.1358 H   0  0  0  0  0  0  0  0  0  0  0  0
   10.7903   11.8436   21.8430 H   0  0  0  0  0  0  0  0  0  0  0  0
    9.3168   12.6717   21.3410 H   0  0  0  0  0  0  0  0  0  0  0  0
   10.4072   12.5379   25.5252 H   0  0  0  0  0  0  0  0  0  0  0  0
   11.4353   11.7643   24.3202 H   0  0  0  0  0  0  0  0  0  0  0  0
   10.0009    9.7368   20.6929 H   0  0  0  0  0  0  0  0  0  0  0  0
    8.5184   10.5710   20.1893 H   0  0  0  0  0  0  0  0  0  0  0  0
    8.4159    9.0431   21.0854 H   0  0  0  0  0  0  0  0  0  0  0  0
   11.2741    9.5812   25.5812 H   0  0  0  0  0  0  0  0  0  0  0  0
    9.6885    8.8876   25.9715 H   0  0  0  0  0  0  0  0  0  0  0  0
   10.2386   10.3612   26.7924 H   0  0  0  0  0  0  0  0  0  0  0  0
   10.1515   15.9198   19.9770 H   0  0  0  0  0  0  0  0  0  0  0  0
   10.1956   17.6237   20.4836 H   0  0  0  0  0  0  0  0  0  0  0  0
   11.3447   17.0013   19.2795 H   0  0  0  0  0  0  0  0  0  0  0  0
   13.4197   17.3126   22.4334 H   0  0  0  0  0  0  0  0  0  0  0  0
   12.1371   18.4297   22.0020 H   0  0  0  0  0  0  0  0  0  0  0  0
   13.2842   17.8878   20.7569 H   0  0  0  0  0  0  0  0  0  0  0  0
   13.3175   14.8978   21.7341 H   0  0  0  0  0  0  0  0  0  0  0  0
   11.9717   14.2966   20.7417 H   0  0  0  0  0  0  0  0  0  0  0  0
   13.2168   15.3570   20.0432 H   0  0  0  0  0  0  0  0  0  0  0  0
   11.2985   14.2341   23.9106 H   0  0  0  0  0  0  0  0  0  0  0  0
    4.5397   13.1305   23.7024 H   0  0  0  0  0  0  0  0  0  0  0  0
  1  9  1  0  0  0  0
  1 20  2  0  0  0  0
  1 22  1  0  0  0  0
  2 19  1  0  0  0  0
  2 21  2  0  0  0  0
  2 23  1  0  0  0  0
  3  9  1  0  0  0  0
  3 10  1  0  0  0  0
  4  9  1  0  0  0  0
  4 11  1  0  0  0  0
  5  9  1  0  0  0  0
  5 12  1  0  0  0  0
  6 10  1  0  0  0  0
  6 11  1  0  0  0  0
  7 10  1  0  0  0  0
  7 12  1  0  0  0  0
  8 11  1  0  0  0  0
  8 12  1  0  0  0  0
 10 13  1  0  0  0  0
 11 14  1  0  0  0  0
 12 19  1  0  0  0  0
 15 18  1  0  0  0  0
 16 18  1  0  0  0  0
 17 18  1  0  0  0  0
 18 23  1  0  0  0  0
  3 24  1  0  0  0  0
  3 25  1  0  0  0  0
  4 26  1  0  0  0  0
  4 27  1  0  0  0  0
  5 28  1  0  0  0  0
  5 29  1  0  0  0  0
  6 30  1  0  0  0  0
  6 31  1  0  0  0  0
  7 32  1  0  0  0  0
  7 33  1  0  0  0  0
  8 34  1  0  0  0  0
  8 35  1  0  0  0  0
 13 36  1  0  0  0  0
 13 37  1  0  0  0  0
 13 38  1  0  0  0  0
 14 39  1  0  0  0  0
 14 40  1  0  0  0  0
 14 41  1  0  0  0  0
 15 42  1  0  0  0  0
 15 43  1  0  0  0  0
 15 44  1  0  0  0  0
 16 45  1  0  0  0  0
 16 46  1  0  0  0  0
 16 47  1  0  0  0  0
 17 48  1  0  0  0  0
 17 49  1  0  0  0  0
 17 50  1  0  0  0  0
 19 51  1  0  0  0  0
 22 52  1  0  0  0  0
M  END
> <id>
EN300-1608892

> <smiles>
CC(C)(C)OC(=O)NC1(CC2(C)CC3(C)C1)CC(C2)(C3)C(=O)O

> <MDLNUMBER>
MFCD31667616

> <IUPAC Name>
3-{[(tert-butoxy)carbonyl]amino}-5,7-dimethyladamantane-1-carboxylic acid

> <CAS>
2230807-57-3

> <Purity>
95

> <URL>
https://www.enaminestore.com/catalog/EN300-1608892

> <ROCS_ShapeQuery>
x0446_0A_x1080_0A_x0929_0A_x0812_0A_x0719_0A_x1140_0A_x0528_0A_x0310_0A

> <ROCS_TanimotoCombo>
0.428 

> <ROCS_ShapeTanimoto>
0.251 

> <ROCS_ColorTanimoto>
0.177 

> <ROCS_RefTversky>
0.228 

> <ROCS_RefColorTversky>
0.208 

> <ROCS_RefTverskyCombo>
0.436 

> <ROCS_FitTversky>
1.679 

> <ROCS_FitColorTversky>
0.546 

> <ROCS_FitTverskyCombo>
2.225 

> <ROCS_ColorScore>
-7.475

> <ROCS_Overlap>
2692.731

> <ROCS_Rank>
100                 

$$$$
untitled-dbase-25035_7
  -OEChem-02082415563D

123128  0     1  0  0  0  0  0999 V2000
    8.9062   11.9689   23.5723 C   0  0  0  0  0  0  0  0  0  0  0  0
    7.7129   12.2778   24.2154 C   0  0  0  0  0  0  0  0  0  0  0  0
    9.2398   10.6125   23.4528 C   0  0  0  0  0  0  0  0  0  0  0  0
    7.2416    9.9526   24.6764 C   0  0  0  0  0  0  0  0  0  0  0  0
    6.8946   11.2877   24.7362 C   0  0  0  0  0  0  0  0  0  0  0  0
    8.4240    9.6134   24.0238 C   0  0  0  0  0  0  0  0  0  0  0  0
   10.3889   10.7945   18.1971 C   0  0  0  0  0  0  0  0  0  0  0  0
   11.7188   10.2857   17.9159 C   0  0  0  0  0  0  0  0  0  0  0  0
    9.2833   10.4912   17.5008 C   0  0  0  0  0  0  0  0  0  0  0  0
    2.7219   12.7562   22.8462 C   0  0  0  0  0  0  0  0  0  0  0  0
    3.5486   12.7809   23.8988 C   0  0  0  0  0  0  0  0  0  0  0  0
    9.7841   12.9568   22.9425 C   0  0  0  0  0  0  0  0  0  0  0  0
   10.4145   10.1824   22.6645 C   0  0  0  0  0  0  0  0  0  0  0  0
    6.9739   13.5049   24.4517 C   0  0  0  0  0  0  0  0  0  0  0  0
   12.8214   10.4957   18.6639 C   0  0  0  0  0  0  0  0  0  0  0  0
   10.8790   12.4920   22.0420 C   0  0  0  0  0  0  0  0  0  0  0  0
   11.1478   11.1977   21.8495 C   0  0  0  0  0  0  0  0  0  0  0  0
   12.7220   11.3050   19.9169 C   0  0  0  0  0  0  0  0  0  0  0  0
    1.1616   13.7989   17.7475 C   0  0  0  0  0  0  0  0  0  0  0  0
   10.0076   15.6242   21.0347 C   0  0  0  0  0  0  0  0  0  0  0  0
   11.6891   15.6538   22.9021 C   0  0  0  0  0  0  0  0  0  0  0  0
   11.0124   16.3939   20.1733 C   0  0  0  0  0  0  0  0  0  0  0  0
   12.6372   16.4239   21.9782 C   0  0  0  0  0  0  0  0  0  0  0  0
    7.9093   11.0232   17.8872 C   0  0  1  0  0  0  0  0  0  0  0  0
    2.9306   13.4713   21.5340 C   0  0  1  0  0  0  0  0  0  0  0  0
    3.0158   12.5328   20.2879 C   0  0  2  0  0  0  0  0  0  0  0  0
    6.0444   12.7479   17.0677 C   0  0  2  0  0  0  0  0  0  0  0  0
    4.4644   14.0982   18.7482 C   0  0  1  0  0  0  0  0  0  0  0  0
    7.4554   12.0992   16.8728 C   0  0  1  0  0  0  0  0  0  0  0  0
    3.1488   13.2883   18.9243 C   0  0  2  0  0  0  0  0  0  0  0  0
    5.7351   13.2148   18.5278 C   0  0  2  0  0  0  0  0  0  0  0  0
    5.6143   13.1224   24.9944 C   0  0  2  0  0  0  0  0  0  0  0  0
   10.6978   14.7899   22.1185 C   0  0  0  0  0  0  0  0  0  0  0  0
    6.3533    8.9099   25.2667 C   0  0  0  0  0  0  0  0  0  0  0  0
   14.1851   10.0008   18.3042 C   0  0  0  0  0  0  0  0  0  0  0  0
    0.0211   14.7698   17.6980 C   0  0  0  0  0  0  0  0  0  0  0  0
    6.9606    9.8322   18.0141 C   0  0  0  0  0  0  0  0  0  0  0  0
    1.8037   11.5832   20.1927 C   0  0  0  0  0  0  0  0  0  0  0  0
    4.9504   11.8658   16.4602 C   0  0  0  0  0  0  0  0  0  0  0  0
    4.3479   15.2001   17.6804 C   0  0  0  0  0  0  0  0  0  0  0  0
    5.2905   13.9038   26.2599 C   0  0  0  0  0  0  0  0  0  0  0  0
   11.6794   20.2080   20.7228 C   0  0  0  0  0  0  0  0  0  0  0  0
   13.0612   20.0082   18.6310 C   0  0  0  0  0  0  0  0  0  0  0  0
    2.1433   15.5936   22.1573 C   0  0  0  0  0  0  0  0  0  0  0  0
   12.8089   17.9982   20.1631 C   0  0  0  0  0  0  0  0  0  0  0  0
   12.1502   19.2685   19.6117 C   0  0  0  0  0  0  0  0  0  0  0  0
    9.6619   14.2575   23.0527 N   0  0  0  0  0  0  0  0  0  0  0  0
   11.9693   10.6519   20.8807 N   0  0  0  0  0  0  0  0  0  0  0  0
   11.3647   13.6497   21.5287 N   0  0  0  0  0  0  0  0  0  0  0  0
   11.8898   17.2309   21.0035 N   0  0  0  0  0  0  0  0  0  0  0  0
   10.7591    9.0044   22.6590 O   0  0  0  0  0  0  0  0  0  0  0  0
    7.3519   14.6379   24.2253 O   0  0  0  0  0  0  0  0  0  0  0  0
   13.2520   12.4073   19.9801 O   0  0  0  0  0  0  0  0  0  0  0  0
    1.2900   12.8530   16.9820 O   0  0  0  0  0  0  0  0  0  0  0  0
    5.7164   11.7140   25.2899 O   0  0  0  0  0  0  0  0  0  0  0  0
    4.7285   13.4659   23.9194 O   0  0  0  0  0  0  0  0  0  0  0  0
    8.7381    8.2861   23.9451 O   0  0  0  0  0  0  0  0  0  0  0  0
    8.4319   13.1555   16.9150 O   0  0  0  0  0  0  0  0  0  0  0  0
    6.8559   13.9906   18.9813 O   0  0  0  0  0  0  0  0  0  0  0  0
    2.0097   14.1371   18.7624 O   0  0  0  0  0  0  0  0  0  0  0  0
    1.8763   14.4250   21.4002 O   0  0  0  0  0  0  0  0  0  0  0  0
   10.2761   11.4930   19.0295 H   0  0  0  0  0  0  0  0  0  0  0  0
   11.8138    9.6987   17.0125 H   0  0  0  0  0  0  0  0  0  0  0  0
    9.3460    9.8577   16.6274 H   0  0  0  0  0  0  0  0  0  0  0  0
    1.8017   12.1715   22.9485 H   0  0  0  0  0  0  0  0  0  0  0  0
    3.3011   12.3146   24.8388 H   0  0  0  0  0  0  0  0  0  0  0  0
    9.3235   16.3413   21.5100 H   0  0  0  0  0  0  0  0  0  0  0  0
    9.3750   14.9944   20.3993 H   0  0  0  0  0  0  0  0  0  0  0  0
   12.2698   15.0412   23.6044 H   0  0  0  0  0  0  0  0  0  0  0  0
   11.1353   16.3721   23.5233 H   0  0  0  0  0  0  0  0  0  0  0  0
   11.5982   15.6932   19.5637 H   0  0  0  0  0  0  0  0  0  0  0  0
   10.4468   17.0282   19.4792 H   0  0  0  0  0  0  0  0  0  0  0  0
   13.2572   17.0802   22.6011 H   0  0  0  0  0  0  0  0  0  0  0  0
   13.3159   15.7260   21.4715 H   0  0  0  0  0  0  0  0  0  0  0  0
    7.9900   11.4699   18.8854 H   0  0  0  0  0  0  0  0  0  0  0  0
    3.8884   14.0570   21.5878 H   0  0  0  0  0  0  0  0  0  0  0  0
    3.8989   11.9038   20.4294 H   0  0  0  0  0  0  0  0  0  0  0  0
    6.0386   13.6438   16.4321 H   0  0  0  0  0  0  0  0  0  0  0  0
    4.6413   14.6228   19.7276 H   0  0  0  0  0  0  0  0  0  0  0  0
    7.5350   11.6835   15.8656 H   0  0  0  0  0  0  0  0  0  0  0  0
    3.0741   12.5103   18.1452 H   0  0  0  0  0  0  0  0  0  0  0  0
    5.6814   12.3443   19.1878 H   0  0  0  0  0  0  0  0  0  0  0  0
    5.6327    8.5551   24.5198 H   0  0  0  0  0  0  0  0  0  0  0  0
    6.9330    8.0502   25.6269 H   0  0  0  0  0  0  0  0  0  0  0  0
    5.7972    9.3015   26.1284 H   0  0  0  0  0  0  0  0  0  0  0  0
   14.6995   10.7500   17.7051 H   0  0  0  0  0  0  0  0  0  0  0  0
   14.1006    9.0766   17.7348 H   0  0  0  0  0  0  0  0  0  0  0  0
   14.7551    9.8078   19.2115 H   0  0  0  0  0  0  0  0  0  0  0  0
   -0.7958   14.4151   18.3313 H   0  0  0  0  0  0  0  0  0  0  0  0
   -0.3168   14.8929   16.6659 H   0  0  0  0  0  0  0  0  0  0  0  0
    0.3557   15.7417   18.0724 H   0  0  0  0  0  0  0  0  0  0  0  0
    6.8490    9.3552   17.0449 H   0  0  0  0  0  0  0  0  0  0  0  0
    5.9920   10.1782   18.3623 H   0  0  0  0  0  0  0  0  0  0  0  0
    7.3692    9.1199   18.7248 H   0  0  0  0  0  0  0  0  0  0  0  0
    0.9026   12.1695   20.0513 H   0  0  0  0  0  0  0  0  0  0  0  0
    1.7282   11.0096   21.1098 H   0  0  0  0  0  0  0  0  0  0  0  0
    1.9417   10.9135   19.3511 H   0  0  0  0  0  0  0  0  0  0  0  0
    4.8791   10.9440   17.0275 H   0  0  0  0  0  0  0  0  0  0  0  0
    5.2032   11.6426   15.4293 H   0  0  0  0  0  0  0  0  0  0  0  0
    4.0036   12.3939   16.4991 H   0  0  0  0  0  0  0  0  0  0  0  0
    4.1753   14.7477   16.7071 H   0  0  0  0  0  0  0  0  0  0  0  0
    5.2684   15.7778   17.6510 H   0  0  0  0  0  0  0  0  0  0  0  0
    3.5172   15.8578   17.9246 H   0  0  0  0  0  0  0  0  0  0  0  0
    4.3087   13.6155   26.6361 H   0  0  0  0  0  0  0  0  0  0  0  0
    5.2873   14.9733   26.0479 H   0  0  0  0  0  0  0  0  0  0  0  0
    6.0372   13.6980   27.0273 H   0  0  0  0  0  0  0  0  0  0  0  0
   12.5146   20.5729   21.3294 H   0  0  0  0  0  0  0  0  0  0  0  0
   11.1726   21.0811   20.2976 H   0  0  0  0  0  0  0  0  0  0  0  0
   10.9704   19.7017   21.3861 H   0  0  0  0  0  0  0  0  0  0  0  0
   13.9786   20.3591   19.1150 H   0  0  0  0  0  0  0  0  0  0  0  0
   12.5490   20.8822   18.2143 H   0  0  0  0  0  0  0  0  0  0  0  0
   13.3432   19.3580   17.7962 H   0  0  0  0  0  0  0  0  0  0  0  0
    1.3214   16.3033   22.0356 H   0  0  0  0  0  0  0  0  0  0  0  0
    3.0800   16.0428   21.8176 H   0  0  0  0  0  0  0  0  0  0  0  0
    2.2334   15.3212   23.2115 H   0  0  0  0  0  0  0  0  0  0  0  0
   13.1505   17.3543   19.3455 H   0  0  0  0  0  0  0  0  0  0  0  0
   13.6848   18.2604   20.7669 H   0  0  0  0  0  0  0  0  0  0  0  0
   11.2586   18.9506   19.0550 H   0  0  0  0  0  0  0  0  0  0  0  0
   12.0296    9.6432   20.8736 H   0  0  0  0  0  0  0  0  0  0  0  0
   12.1742   13.6975   20.9274 H   0  0  0  0  0  0  0  0  0  0  0  0
    9.5673    8.1708   23.4580 H   0  0  0  0  0  0  0  0  0  0  0  0
    8.1364   13.8205   16.2772 H   0  0  0  0  0  0  0  0  0  0  0  0
    6.6401   14.2658   19.8823 H   0  0  0  0  0  0  0  0  0  0  0  0
  1  2  2  0  0  0  0
  1  3  1  0  0  0  0
  1 12  1  0  0  0  0
  2  5  1  0  0  0  0
  2 14  1  0  0  0  0
  3  6  2  0  0  0  0
  3 13  1  0  0  0  0
  4  5  2  0  0  0  0
  4  6  1  0  0  0  0
  4 34  1  0  0  0  0
  5 55  1  0  0  0  0
  6 57  1  0  0  0  0
  7  8  1  4  0  0  0
  7  9  2  3  0  0  0
  8 15  2  0  0  0  0
  9 24  1  0  0  0  0
 10 11  2  0  0  0  0
 10 25  1  0  0  0  0
 11 56  1  4  0  0  0
 12 16  1  0  0  0  0
 12 47  2  0  0  0  0
 13 17  1  0  0  0  0
 13 51  2  0  0  0  0
 14 32  1  0  0  0  0
 14 52  2  0  0  0  0
 15 18  1  0  0  0  0
 15 35  1  0  0  0  0
 16 17  2  0  0  0  0
 16 49  1  0  0  0  0
 17 48  1  0  0  0  0
 18 48  1  0  0  0  0
 18 53  2  0  0  0  0
 19 36  1  0  0  0  0
 19 54  2  0  0  0  0
 19 60  1  0  0  0  0
 20 22  1  0  0  0  0
 20 33  1  0  0  0  0
 21 23  1  0  0  0  0
 21 33  1  0  0  0  0
 22 50  1  0  0  0  0
 23 50  1  0  0  0  0
 24 29  1  0  0  0  0
 24 37  1  6  0  0  0
 25 26  1  0  0  0  0
 25 61  1  1  0  0  0
 26 30  1  0  0  0  0
 26 38  1  6  0  0  0
 27 29  1  0  0  0  0
 27 31  1  0  0  0  0
 27 39  1  1  0  0  0
 28 30  1  0  0  0  0
 28 31  1  0  0  0  0
 28 40  1  1  0  0  0
 29 58  1  6  0  0  0
 30 60  1  6  0  0  0
 31 59  1  1  0  0  0
 32 41  1  1  0  0  0
 32 55  1  0  0  0  0
 32 56  1  0  0  0  0
 33 47  1  0  0  0  0
 33 49  1  0  0  0  0
 42 46  1  0  0  0  0
 43 46  1  0  0  0  0
 44 61  1  0  0  0  0
 45 46  1  0  0  0  0
 45 50  1  0  0  0  0
  7 62  1  0  0  0  0
  8 63  1  0  0  0  0
  9 64  1  0  0  0  0
 10 65  1  0  0  0  0
 11 66  1  0  0  0  0
 20 67  1  0  0  0  0
 20 68  1  0  0  0  0
 21 69  1  0  0  0  0
 21 70  1  0  0  0  0
 22 71  1  0  0  0  0
 22 72  1  0  0  0  0
 23 73  1  0  0  0  0
 23 74  1  0  0  0  0
 24 75  1  0  0  0  0
 25 76  1  0  0  0  0
 26 77  1  0  0  0  0
 27 78  1  0  0  0  0
 28 79  1  0  0  0  0
 29 80  1  0  0  0  0
 30 81  1  0  0  0  0
 31 82  1  0  0  0  0
 34 83  1  0  0  0  0
 34 84  1  0  0  0  0
 34 85  1  0  0  0  0
 35 86  1  0  0  0  0
 35 87  1  0  0  0  0
 35 88  1  0  0  0  0
 36 89  1  0  0  0  0
 36 90  1  0  0  0  0
 36 91  1  0  0  0  0
 37 92  1  0  0  0  0
 37 93  1  0  0  0  0
 37 94  1  0  0  0  0
 38 95  1  0  0  0  0
 38 96  1  0  0  0  0
 38 97  1  0  0  0  0
 39 98  1  0  0  0  0
 39 99  1  0  0  0  0
 39100  1  0  0  0  0
 40101  1  0  0  0  0
 40102  1  0  0  0  0
 40103  1  0  0  0  0
 41104  1  0  0  0  0
 41105  1  0  0  0  0
 41106  1  0  0  0  0
 42107  1  0  0  0  0
 42108  1  0  0  0  0
 42109  1  0  0  0  0
 43110  1  0  0  0  0
 43111  1  0  0  0  0
 43112  1  0  0  0  0
 44113  1  0  0  0  0
 44114  1  0  0  0  0
 44115  1  0  0  0  0
 45116  1  0  0  0  0
 45117  1  0  0  0  0
 46118  1  0  0  0  0
 48119  1  0  0  0  0
 49120  1  0  0  0  0
 57121  1  0  0  0  0
 58122  1  0  0  0  0
 59123  1  0  0  0  0
M  END
> <id>
EN300-52509

> <smiles>
CO[C@H]1C=CO[C@@]2(C)OC=3C(C2=O)=C4C5=NC6(CCN(CC(C)C)CC6)NC5=C(NC(=O)C(=CC=C[C@H](C)[C@H](O)[C@@H](C)[C@@H](O)[C@@H](C)[C@H](OC(=O)C)[C@@H]1C)C)C(=O)C4=C(O)C3C

> <IUPAC Name>
(7S,11S,12R,13S,14R,15R,16R,17S,18S)-2,15,17-trihydroxy-11-methoxy-3,7,12,14,16,18,22-heptamethyl-1'-(2-methylpropyl)-6,23,32-trioxo-8,33-dioxa-24,27,29-triazaspiro[pentacyclo[23.6.1.1^{4,7}.0^{5,31}.0^{26,30}]tritriacontane-28,4'-piperidin]-1,3,5(31),9,19,21,25,29-octaen-13-yl acetate

> <CAS>
72559-06-9

> <Purity>
95

> <URL>
https://www.enaminestore.com/catalog/EN300-52509

> <ROCS_ShapeQuery>
x0446_0A_x1080_0A_x0929_0A_x0812_0A_x0719_0A_x1140_0A_x0528_0A_x0310_0A

> <ROCS_TanimotoCombo>
0.428 

> <ROCS_ShapeTanimoto>
0.293 

> <ROCS_ColorTanimoto>
0.136 

> <ROCS_RefTversky>
0.288 

> <ROCS_RefColorTversky>
0.200 

> <ROCS_RefTverskyCombo>
0.488 

> <ROCS_FitTversky>
1.059 

> <ROCS_FitColorTversky>
0.296 

> <ROCS_FitTverskyCombo>
1.355 

> <ROCS_ColorScore>
-7.321

> <ROCS_Overlap>
3425.962

> <ROCS_Rank>
101                 

$$$$
untitled-dbase-2067_7
  -OEChem-02082415563D

 43 46  0     0  0  0  0  0  0999 V2000
   12.3479   15.6841   21.7368 C   0  0  0  0  0  0  0  0  0  0  0  0
   11.6925   15.2961   22.9297 C   0  0  0  0  0  0  0  0  0  0  0  0
   11.3545   16.0241   20.8483 C   0  0  0  0  0  0  0  0  0  0  0  0
   10.3452   15.4268   22.6852 C   0  0  0  0  0  0  0  0  0  0  0  0
    7.2634   14.6112   21.9949 C   0  0  0  0  0  0  0  0  0  0  0  0
    9.1506   10.0066   22.7002 C   0  0  0  0  0  0  0  0  0  0  0  0
    7.5154   10.3045   24.5781 C   0  0  0  0  0  0  0  0  0  0  0  0
    9.9437   10.8178   24.9369 C   0  0  0  0  0  0  0  0  0  0  0  0
    7.4729   11.8684   22.6185 C   0  0  0  0  0  0  0  0  0  0  0  0
    9.9038   12.3821   22.9777 C   0  0  0  0  0  0  0  0  0  0  0  0
    8.2665   12.6806   24.8589 C   0  0  0  0  0  0  0  0  0  0  0  0
    7.7106   10.4129   23.0562 C   0  0  0  0  0  0  0  0  0  0  0  0
   10.1514   10.9287   23.4168 C   0  0  0  0  0  0  0  0  0  0  0  0
    8.5076   11.2281   25.3049 C   0  0  0  0  0  0  0  0  0  0  0  0
    8.4638   12.8139   23.3334 C   0  0  0  0  0  0  0  0  0  0  0  0
    9.1216   15.1813   23.5199 C   0  0  0  0  0  0  0  0  0  0  0  0
    6.7349   16.0128   22.2259 C   0  0  0  0  0  0  0  0  0  0  0  0
    8.2388   14.1806   22.9171 N   0  0  0  0  0  0  0  0  0  0  0  0
    6.8547   13.9166   21.0611 O   0  0  0  0  0  0  0  0  0  0  0  0
   10.1307   15.8701   21.4187 O   0  0  0  0  0  0  0  0  0  0  0  0
    5.4931   16.4238   21.0263 Cl  0  0  0  0  0  0  0  0  0  0  0  0
   13.4113   15.7121   21.5480 H   0  0  0  0  0  0  0  0  0  0  0  0
   12.1483   14.9627   23.8511 H   0  0  0  0  0  0  0  0  0  0  0  0
   11.3535   16.3755   19.8270 H   0  0  0  0  0  0  0  0  0  0  0  0
    9.3282    8.9639   22.9905 H   0  0  0  0  0  0  0  0  0  0  0  0
    9.2989   10.0641   21.6148 H   0  0  0  0  0  0  0  0  0  0  0  0
    6.4864   10.5763   24.8441 H   0  0  0  0  0  0  0  0  0  0  0  0
    7.6644    9.2670   24.9017 H   0  0  0  0  0  0  0  0  0  0  0  0
   10.1350    9.7892   25.2667 H   0  0  0  0  0  0  0  0  0  0  0  0
   10.6629   11.4590   25.4610 H   0  0  0  0  0  0  0  0  0  0  0  0
    7.5898   11.9457   21.5296 H   0  0  0  0  0  0  0  0  0  0  0  0
    6.4389   12.1558   22.8498 H   0  0  0  0  0  0  0  0  0  0  0  0
   10.6313   13.0416   23.4687 H   0  0  0  0  0  0  0  0  0  0  0  0
   10.0720   12.4712   21.8965 H   0  0  0  0  0  0  0  0  0  0  0  0
    7.2500   12.9857   25.1394 H   0  0  0  0  0  0  0  0  0  0  0  0
    8.9580   13.3458   25.3927 H   0  0  0  0  0  0  0  0  0  0  0  0
    7.0027    9.7516   22.5442 H   0  0  0  0  0  0  0  0  0  0  0  0
   11.1752   10.6341   23.1607 H   0  0  0  0  0  0  0  0  0  0  0  0
    8.3654   11.1450   26.3881 H   0  0  0  0  0  0  0  0  0  0  0  0
    9.4001   14.8276   24.5186 H   0  0  0  0  0  0  0  0  0  0  0  0
    8.5438   16.1023   23.6505 H   0  0  0  0  0  0  0  0  0  0  0  0
    6.2725   16.0833   23.2136 H   0  0  0  0  0  0  0  0  0  0  0  0
    7.5434   16.7412   22.1249 H   0  0  0  0  0  0  0  0  0  0  0  0
  1  2  1  0  0  0  0
  1  3  2  0  0  0  0
  2  4  2  0  0  0  0
  3 20  1  0  0  0  0
  4 16  1  0  0  0  0
  4 20  1  0  0  0  0
  5 17  1  0  0  0  0
  5 18  1  0  0  0  0
  5 19  2  0  0  0  0
  6 12  1  0  0  0  0
  6 13  1  0  0  0  0
  7 12  1  0  0  0  0
  7 14  1  0  0  0  0
  8 13  1  0  0  0  0
  8 14  1  0  0  0  0
  9 12  1  0  0  0  0
  9 15  1  0  0  0  0
 10 13  1  0  0  0  0
 10 15  1  0  0  0  0
 11 14  1  0  0  0  0
 11 15  1  0  0  0  0
 15 18  1  0  0  0  0
 16 18  1  0  0  0  0
 17 21  1  0  0  0  0
  1 22  1  0  0  0  0
  2 23  1  0  0  0  0
  3 24  1  0  0  0  0
  6 25  1  0  0  0  0
  6 26  1  0  0  0  0
  7 27  1  0  0  0  0
  7 28  1  0  0  0  0
  8 29  1  0  0  0  0
  8 30  1  0  0  0  0
  9 31  1  0  0  0  0
  9 32  1  0  0  0  0
 10 33  1  0  0  0  0
 10 34  1  0  0  0  0
 11 35  1  0  0  0  0
 11 36  1  0  0  0  0
 12 37  1  0  0  0  0
 13 38  1  0  0  0  0
 14 39  1  0  0  0  0
 16 40  1  0  0  0  0
 16 41  1  0  0  0  0
 17 42  1  0  0  0  0
 17 43  1  0  0  0  0
M  END
> <id>
EN300-10431

> <smiles>
ClCC(=O)N(CC1=CC=CO1)C2(CC3CC4CC(C3)C2)C4

> <MDLNUMBER>
MFCD06358072

> <IUPAC Name>
N-(adamantan-1-yl)-2-chloro-N-[(furan-2-yl)methyl]acetamide

> <CAS>
335632-75-2

> <Purity>
95

> <URL>
https://www.enaminestore.com/catalog/EN300-10431

> <ROCS_ShapeQuery>
x0446_0A_x1080_0A_x0929_0A_x0812_0A_x0719_0A_x1140_0A_x0528_0A_x0310_0A

> <ROCS_TanimotoCombo>
0.428 

> <ROCS_ShapeTanimoto>
0.245 

> <ROCS_ColorTanimoto>
0.183 

> <ROCS_RefTversky>
0.222 

> <ROCS_RefColorTversky>
0.202 

> <ROCS_RefTverskyCombo>
0.424 

> <ROCS_FitTversky>
1.720 

> <ROCS_FitColorTversky>
0.666 

> <ROCS_FitTverskyCombo>
2.386 

> <ROCS_ColorScore>
-7.226

> <ROCS_Overlap>
2622.308

> <ROCS_Rank>
102                 

$$$$
untitled-dbase-19049_9
  -OEChem-02082415563D

 32 34  0     0  0  0  0  0  0999 V2000
   12.6742   15.4367   23.2144 C   0  0  0  0  0  0  0  0  0  0  0  0
   12.2892   16.1109   22.0556 C   0  0  0  0  0  0  0  0  0  0  0  0
    7.1400   13.5148   24.6259 C   0  0  0  0  0  0  0  0  0  0  0  0
   12.3672   14.0849   23.3695 C   0  0  0  0  0  0  0  0  0  0  0  0
    5.9387   13.1348   25.2255 C   0  0  0  0  0  0  0  0  0  0  0  0
   11.5971   15.4333   21.0518 C   0  0  0  0  0  0  0  0  0  0  0  0
    6.5221   10.8058   24.9397 C   0  0  0  0  0  0  0  0  0  0  0  0
    8.0304   12.5329   24.1844 C   0  0  0  0  0  0  0  0  0  0  0  0
    7.7241   11.1832   24.3399 C   0  0  0  0  0  0  0  0  0  0  0  0
    5.6301   11.7829   25.3822 C   0  0  0  0  0  0  0  0  0  0  0  0
   11.6751   13.4073   22.3657 C   0  0  0  0  0  0  0  0  0  0  0  0
   11.2900   14.0815   21.2069 C   0  0  0  0  0  0  0  0  0  0  0  0
    9.3039   12.9027   23.5490 C   0  0  0  0  0  0  0  0  0  0  0  0
   10.1720   11.7810   23.1190 C   0  0  0  0  0  0  0  0  0  0  0  0
    9.7631   10.5172   23.3258 C   0  0  0  0  0  0  0  0  0  0  0  0
   10.5651    9.3139   22.9286 C   0  0  0  0  0  0  0  0  0  0  0  0
    9.6288   14.0708   23.3843 O   0  0  0  0  0  0  0  0  0  0  0  0
    8.5592   10.1781   23.9258 O   0  0  0  0  0  0  0  0  0  0  0  0
    4.4573   11.4166   25.9684 O   0  0  0  0  0  0  0  0  0  0  0  0
   11.3746   12.0829   22.5188 O   0  0  0  0  0  0  0  0  0  0  0  0
   10.6248   13.4361   20.2389 F   0  0  0  0  0  0  0  0  0  0  0  0
   11.7256    9.6800   22.3491 F   0  0  0  0  0  0  0  0  0  0  0  0
   10.8589    8.5543   24.0026 F   0  0  0  0  0  0  0  0  0  0  0  0
    9.8868    8.5473   22.0515 F   0  0  0  0  0  0  0  0  0  0  0  0
   13.2136   15.9645   23.9956 H   0  0  0  0  0  0  0  0  0  0  0  0
   12.5278   17.1636   21.9352 H   0  0  0  0  0  0  0  0  0  0  0  0
    7.3630   14.5721   24.5129 H   0  0  0  0  0  0  0  0  0  0  0  0
   12.6703   13.5653   24.2743 H   0  0  0  0  0  0  0  0  0  0  0  0
    5.2463   13.8979   25.5705 H   0  0  0  0  0  0  0  0  0  0  0  0
   11.2973   15.9579   20.1496 H   0  0  0  0  0  0  0  0  0  0  0  0
    6.2799    9.7531   25.0637 H   0  0  0  0  0  0  0  0  0  0  0  0
    3.9479   12.2029   26.2212 H   0  0  0  0  0  0  0  0  0  0  0  0
  1  2  1  0  0  0  0
  1  4  2  0  0  0  0
  2  6  2  0  0  0  0
  3  5  2  0  0  0  0
  3  8  1  0  0  0  0
  4 11  1  0  0  0  0
  5 10  1  0  0  0  0
  6 12  1  0  0  0  0
  7  9  1  0  0  0  0
  7 10  2  0  0  0  0
  8  9  2  0  0  0  0
  8 13  1  0  0  0  0
  9 18  1  0  0  0  0
 10 19  1  0  0  0  0
 11 12  2  0  0  0  0
 11 20  1  0  0  0  0
 12 21  1  0  0  0  0
 13 14  1  0  0  0  0
 13 17  2  0  0  0  0
 14 15  2  0  0  0  0
 14 20  1  0  0  0  0
 15 16  1  0  0  0  0
 15 18  1  0  0  0  0
 16 22  1  0  0  0  0
 16 23  1  0  0  0  0
 16 24  1  0  0  0  0
  1 25  1  0  0  0  0
  2 26  1  0  0  0  0
  3 27  1  0  0  0  0
  4 28  1  0  0  0  0
  5 29  1  0  0  0  0
  6 30  1  0  0  0  0
  7 31  1  0  0  0  0
 19 32  1  0  0  0  0
M  END
> <id>
EN300-03223

> <smiles>
OC=1C=CC=2C(=O)C(OC=3C=CC=CC3F)=C(OC2C1)C(F)(F)F

> <MDLNUMBER>
MFCD02115865

> <IUPAC Name>
3-(2-fluorophenoxy)-7-hydroxy-2-(trifluoromethyl)-4H-chromen-4-one

> <CAS>
315234-40-3

> <URL>
https://www.enaminestore.com/catalog/EN300-03223

> <ROCS_ShapeQuery>
x0446_0A_x1080_0A_x0929_0A_x0812_0A_x0719_0A_x1140_0A_x0528_0A_x0310_0A

> <ROCS_TanimotoCombo>
0.428 

> <ROCS_ShapeTanimoto>
0.281 

> <ROCS_ColorTanimoto>
0.147 

> <ROCS_RefTversky>
0.251 

> <ROCS_RefColorTversky>
0.162 

> <ROCS_RefTverskyCombo>
0.413 

> <ROCS_FitTversky>
1.744 

> <ROCS_FitColorTversky>
0.613 

> <ROCS_FitTverskyCombo>
2.357 

> <ROCS_ColorScore>
-5.799

> <ROCS_Overlap>
2961.513

> <ROCS_Rank>
103                 

$$$$
untitled-dbase-321849_3
  -OEChem-02082415563D

 34 36  0     0  0  0  0  0  0999 V2000
    7.3664   10.5465   24.4834 C   0  0  0  0  0  0  0  0  0  0  0  0
    9.6391   11.4023   25.1007 C   0  0  0  0  0  0  0  0  0  0  0  0
    7.8431   13.0042   24.3786 C   0  0  0  0  0  0  0  0  0  0  0  0
    9.3278   10.1005   22.9876 C   0  0  0  0  0  0  0  0  0  0  0  0
    7.5316   11.7026   22.2654 C   0  0  0  0  0  0  0  0  0  0  0  0
    8.1315   11.7040   25.1482 C   0  0  0  0  0  0  0  0  0  0  0  0
    7.8165   10.3919   23.0208 C   0  0  0  0  0  0  0  0  0  0  0  0
   10.1078   11.2612   23.6395 C   0  0  0  0  0  0  0  0  0  0  0  0
    8.3046   12.8695   22.9145 C   0  0  0  0  0  0  0  0  0  0  0  0
    9.8193   12.5548   22.8378 C   0  0  0  0  0  0  0  0  0  0  0  0
   10.6914   13.7319   23.2801 C   0  0  0  0  0  0  0  0  0  0  0  0
   11.4604   14.0471   20.7582 N   0  0  0  0  0  0  0  0  0  0  0  0
    9.4168   15.3288   21.6514 O   0  0  0  0  0  0  0  0  0  0  0  0
   11.7293   15.9770   22.4375 O   0  0  0  0  0  0  0  0  0  0  0  0
   10.7737   14.9595   22.0260 S   0  0  0  0  0  0  0  0  0  0  0  0
    7.5464    9.6137   25.0318 H   0  0  0  0  0  0  0  0  0  0  0  0
    6.2869   10.7370   24.5254 H   0  0  0  0  0  0  0  0  0  0  0  0
   10.1979   12.1933   25.6127 H   0  0  0  0  0  0  0  0  0  0  0  0
    9.8485   10.4739   25.6473 H   0  0  0  0  0  0  0  0  0  0  0  0
    6.7678   13.2217   24.4087 H   0  0  0  0  0  0  0  0  0  0  0  0
    8.3415   13.8492   24.8663 H   0  0  0  0  0  0  0  0  0  0  0  0
    9.5398    9.1632   23.5168 H   0  0  0  0  0  0  0  0  0  0  0  0
    9.6595    9.9612   21.9513 H   0  0  0  0  0  0  0  0  0  0  0  0
    7.8231   11.5991   21.2130 H   0  0  0  0  0  0  0  0  0  0  0  0
    6.4552   11.9144   22.2766 H   0  0  0  0  0  0  0  0  0  0  0  0
    7.8070   11.8096   26.1895 H   0  0  0  0  0  0  0  0  0  0  0  0
    7.2701    9.5671   22.5503 H   0  0  0  0  0  0  0  0  0  0  0  0
   11.1802   11.0350   23.6161 H   0  0  0  0  0  0  0  0  0  0  0  0
    8.0847   13.7960   22.3715 H   0  0  0  0  0  0  0  0  0  0  0  0
   10.0760   12.3679   21.7852 H   0  0  0  0  0  0  0  0  0  0  0  0
   11.7042   13.3915   23.4812 H   0  0  0  0  0  0  0  0  0  0  0  0
   10.2729   14.1924   24.1715 H   0  0  0  0  0  0  0  0  0  0  0  0
   10.8577   13.8099   19.9606 H   0  0  0  0  0  0  0  0  0  0  0  0
   12.4326   14.2512   20.4961 H   0  0  0  0  0  0  0  0  0  0  0  0
  1  6  1  0  0  0  0
  1  7  1  0  0  0  0
  2  6  1  0  0  0  0
  2  8  1  0  0  0  0
  3  6  1  0  0  0  0
  3  9  1  0  0  0  0
  4  7  1  0  0  0  0
  4  8  1  0  0  0  0
  5  7  1  0  0  0  0
  5  9  1  0  0  0  0
  8 10  1  0  0  0  0
  9 10  1  0  0  0  0
 10 11  1  0  0  0  0
 11 15  1  0  0  0  0
 12 15  1  0  0  0  0
 13 15  2  0  0  0  0
 14 15  2  0  0  0  0
  1 16  1  0  0  0  0
  1 17  1  0  0  0  0
  2 18  1  0  0  0  0
  2 19  1  0  0  0  0
  3 20  1  0  0  0  0
  3 21  1  0  0  0  0
  4 22  1  0  0  0  0
  4 23  1  0  0  0  0
  5 24  1  0  0  0  0
  5 25  1  0  0  0  0
  6 26  1  0  0  0  0
  7 27  1  0  0  0  0
  8 28  1  0  0  0  0
  9 29  1  0  0  0  0
 10 30  1  0  0  0  0
 11 31  1  0  0  0  0
 11 32  1  0  0  0  0
 12 33  1  0  0  0  0
 12 34  1  0  0  0  0
M  END
> <id>
EN300-283841

> <smiles>
NS(=O)(=O)CC1C2CC3CC(C2)CC1C3

> <IUPAC Name>
(adamantan-2-yl)methanesulfonamide

> <CAS>
1566130-06-0

> <Purity>
95

> <URL>
https://www.enaminestore.com/catalog/EN300-283841

> <ROCS_ShapeQuery>
x0446_0A_x1080_0A_x0929_0A_x0812_0A_x0719_0A_x1140_0A_x0528_0A_x0310_0A

> <ROCS_TanimotoCombo>
0.428 

> <ROCS_ShapeTanimoto>
0.215 

> <ROCS_ColorTanimoto>
0.212 

> <ROCS_RefTversky>
0.196 

> <ROCS_RefColorTversky>
0.228 

> <ROCS_RefTverskyCombo>
0.424 

> <ROCS_FitTversky>
1.876 

> <ROCS_FitColorTversky>
0.753 

> <ROCS_FitTverskyCombo>
2.629 

> <ROCS_ColorScore>
-8.176

> <ROCS_Overlap>
2306.248

> <ROCS_Rank>
104                 

$$$$
untitled-dbase-292541_9
  -OEChem-02082415563D

 41 45  0     0  0  0  0  0  0999 V2000
    6.5477   13.5431   25.1035 C   0  0  0  0  0  0  0  0  0  0  0  0
   11.7376   19.0430   21.2254 C   0  0  0  0  0  0  0  0  0  0  0  0
   13.0621   18.7987   21.6453 C   0  0  0  0  0  0  0  0  0  0  0  0
    5.7143   12.4322   25.1439 C   0  0  0  0  0  0  0  0  0  0  0  0
   10.4451    6.4093   22.3828 C   0  0  0  0  0  0  0  0  0  0  0  0
    7.8572   13.4036   24.6529 C   0  0  0  0  0  0  0  0  0  0  0  0
   10.7913   18.0145   21.1896 C   0  0  0  0  0  0  0  0  0  0  0  0
   13.4695   17.5204   22.0384 C   0  0  0  0  0  0  0  0  0  0  0  0
    6.1920   11.1850   24.7339 C   0  0  0  0  0  0  0  0  0  0  0  0
   10.7287    7.7827   22.5735 C   0  0  0  0  0  0  0  0  0  0  0  0
   10.0952   10.7281   23.3825 C   0  0  0  0  0  0  0  0  0  0  0  0
    9.1366    6.2323   22.7682 C   0  0  0  0  0  0  0  0  0  0  0  0
    8.3374   12.1489   24.2406 C   0  0  0  0  0  0  0  0  0  0  0  0
   11.2123   16.7621   21.5843 C   0  0  0  0  0  0  0  0  0  0  0  0
   12.5204   16.5207   21.9988 C   0  0  0  0  0  0  0  0  0  0  0  0
    9.6511   11.9801   23.7827 C   0  0  0  0  0  0  0  0  0  0  0  0
    7.4968   11.0167   24.2788 C   0  0  0  0  0  0  0  0  0  0  0  0
    9.2000    9.6801   23.4555 C   0  0  0  0  0  0  0  0  0  0  0  0
    9.5732    8.3472   23.0616 C   0  0  0  0  0  0  0  0  0  0  0  0
   10.4751   15.4961   21.6488 C   0  0  0  0  0  0  0  0  0  0  0  0
   12.6350   15.0975   22.3329 C   0  0  0  0  0  0  0  0  0  0  0  0
   10.6045   13.0828   23.7020 C   0  0  0  0  0  0  0  0  0  0  0  0
    7.9250    9.8005   23.8911 N   0  0  0  0  0  0  0  0  0  0  0  0
   11.3817   14.6079   22.1367 N   0  0  0  0  0  0  0  0  0  0  0  0
    9.3096   15.3515   21.3367 O   0  0  0  0  0  0  0  0  0  0  0  0
   13.6519   14.5504   22.7116 O   0  0  0  0  0  0  0  0  0  0  0  0
   10.9689   13.7573   24.6709 O   0  0  0  0  0  0  0  0  0  0  0  0
    8.5979    7.4088   23.1832 O   0  0  0  0  0  0  0  0  0  0  0  0
   11.0442   13.2664   22.4207 O   0  0  0  0  0  0  0  0  0  0  0  0
    6.1791   14.5138   25.4209 H   0  0  0  0  0  0  0  0  0  0  0  0
   11.4511   20.0475   20.9244 H   0  0  0  0  0  0  0  0  0  0  0  0
   13.7756   19.6186   21.6611 H   0  0  0  0  0  0  0  0  0  0  0  0
    4.6911   12.5326   25.4946 H   0  0  0  0  0  0  0  0  0  0  0  0
   11.1112    5.6443   22.0110 H   0  0  0  0  0  0  0  0  0  0  0  0
    8.4870   14.2898   24.6308 H   0  0  0  0  0  0  0  0  0  0  0  0
    9.7750   18.2029   20.8645 H   0  0  0  0  0  0  0  0  0  0  0  0
   14.4877   17.3333   22.3579 H   0  0  0  0  0  0  0  0  0  0  0  0
    5.5191   10.3301   24.7761 H   0  0  0  0  0  0  0  0  0  0  0  0
   11.6615    8.2927   22.3776 H   0  0  0  0  0  0  0  0  0  0  0  0
   11.1100   10.5798   23.0248 H   0  0  0  0  0  0  0  0  0  0  0  0
    8.4772    5.3775   22.8052 H   0  0  0  0  0  0  0  0  0  0  0  0
  1  4  1  0  0  0  0
  1  6  2  0  0  0  0
  2  3  1  0  0  0  0
  2  7  2  0  0  0  0
  3  8  2  0  0  0  0
  4  9  2  0  0  0  0
  5 10  1  0  0  0  0
  5 12  2  0  0  0  0
  6 13  1  0  0  0  0
  7 14  1  0  0  0  0
  8 15  1  0  0  0  0
  9 17  1  0  0  0  0
 10 19  2  0  0  0  0
 11 16  1  0  0  0  0
 11 18  2  0  0  0  0
 12 28  1  0  0  0  0
 13 16  2  0  0  0  0
 13 17  1  0  0  0  0
 14 15  2  0  0  0  0
 14 20  1  0  0  0  0
 15 21  1  0  0  0  0
 16 22  1  0  0  0  0
 17 23  2  0  0  0  0
 18 19  1  0  0  0  0
 18 23  1  0  0  0  0
 19 28  1  0  0  0  0
 20 24  1  0  0  0  0
 20 25  2  0  0  0  0
 21 24  1  0  0  0  0
 21 26  2  0  0  0  0
 22 27  2  0  0  0  0
 22 29  1  0  0  0  0
 24 29  1  0  0  0  0
  1 30  1  0  0  0  0
  2 31  1  0  0  0  0
  3 32  1  0  0  0  0
  4 33  1  0  0  0  0
  5 34  1  0  0  0  0
  6 35  1  0  0  0  0
  7 36  1  0  0  0  0
  8 37  1  0  0  0  0
  9 38  1  0  0  0  0
 10 39  1  0  0  0  0
 11 40  1  0  0  0  0
 12 41  1  0  0  0  0
M  END
> <id>
EN300-6523388

> <smiles>
O=C(ON1C(=O)C=2C=CC=CC2C1=O)C=3C=C(N=C4C=CC=CC34)C5=CC=CO5

> <IUPAC Name>
1,3-dioxo-2,3-dihydro-1H-isoindol-2-yl 2-(furan-2-yl)quinoline-4-carboxylate

> <CAS>
2248318-94-5

> <URL>
https://www.enaminestore.com/catalog/EN300-6523388

> <ROCS_ShapeQuery>
x0446_0A_x1080_0A_x0929_0A_x0812_0A_x0719_0A_x1140_0A_x0528_0A_x0310_0A

> <ROCS_TanimotoCombo>
0.428 

> <ROCS_ShapeTanimoto>
0.265 

> <ROCS_ColorTanimoto>
0.163 

> <ROCS_RefTversky>
0.244 

> <ROCS_RefColorTversky>
0.184 

> <ROCS_RefTverskyCombo>
0.428 

> <ROCS_FitTversky>
1.479 

> <ROCS_FitColorTversky>
0.580 

> <ROCS_FitTverskyCombo>
2.060 

> <ROCS_ColorScore>
-6.607

> <ROCS_Overlap>
2886.001

> <ROCS_Rank>
105                 

$$$$
untitled-dbase-512543_0
  -OEChem-02082415563D

 39 41  0     1  0  0  0  0  0999 V2000
   10.4097   14.6469   21.8505 C   0  0  0  0  0  0  0  0  0  0  0  0
    6.0674   13.7604   24.7960 C   0  0  0  0  0  0  0  0  0  0  0  0
    8.9605    9.7052   23.0570 C   0  0  0  0  0  0  0  0  0  0  0  0
    7.1547   11.4298   23.2878 C   0  0  0  0  0  0  0  0  0  0  0  0
    8.6863   10.9440   25.2201 C   0  0  0  0  0  0  0  0  0  0  0  0
    9.1419   11.8825   21.8267 C   0  0  0  0  0  0  0  0  0  0  0  0
   10.6721   11.3977   23.7580 C   0  0  0  0  0  0  0  0  0  0  0  0
    8.8683   13.1279   23.9905 C   0  0  0  0  0  0  0  0  0  0  0  0
    8.1699   10.7983   22.3202 C   0  0  1  0  0  0  0  0  0  0  0  0
    9.7051   10.3118   24.2572 C   0  0  2  0  0  0  0  0  0  0  0  0
    7.8814   12.0525   24.5027 C   0  0  0  0  0  0  0  0  0  0  0  0
    9.8966   12.5088   23.0180 C   0  0  0  0  0  0  0  0  0  0  0  0
    6.8666   12.6774   25.4642 C   0  0  0  0  0  0  0  0  0  0  0  0
   11.5681   15.5275   21.4847 C   0  0  0  0  0  0  0  0  0  0  0  0
   10.8145   13.5241   22.5492 N   0  0  0  0  0  0  0  0  0  0  0  0
    9.2554   14.9288   21.5414 O   0  0  0  0  0  0  0  0  0  0  0  0
    6.3488   14.9483   24.7450 O   0  0  0  0  0  0  0  0  0  0  0  0
    4.9523   13.2243   24.2366 O   0  0  0  0  0  0  0  0  0  0  0  0
   12.7482   15.0203   21.9235 F   0  0  0  0  0  0  0  0  0  0  0  0
   11.4506   16.7708   22.0168 F   0  0  0  0  0  0  0  0  0  0  0  0
   11.6843   15.6853   20.1417 F   0  0  0  0  0  0  0  0  0  0  0  0
    8.2795    8.9160   23.3985 H   0  0  0  0  0  0  0  0  0  0  0  0
    9.6756    9.2337   22.3717 H   0  0  0  0  0  0  0  0  0  0  0  0
    6.5707   12.1957   22.7612 H   0  0  0  0  0  0  0  0  0  0  0  0
    6.4415   10.6658   23.6231 H   0  0  0  0  0  0  0  0  0  0  0  0
    8.0087   10.1686   25.6002 H   0  0  0  0  0  0  0  0  0  0  0  0
    9.2102   11.3584   26.0912 H   0  0  0  0  0  0  0  0  0  0  0  0
    9.8514   11.4395   21.1156 H   0  0  0  0  0  0  0  0  0  0  0  0
    8.5837   12.6543   21.2809 H   0  0  0  0  0  0  0  0  0  0  0  0
   11.2215   11.8189   24.6101 H   0  0  0  0  0  0  0  0  0  0  0  0
   11.4174   10.9450   23.0911 H   0  0  0  0  0  0  0  0  0  0  0  0
    8.3134   13.9311   23.4868 H   0  0  0  0  0  0  0  0  0  0  0  0
    9.3871   13.5892   24.8420 H   0  0  0  0  0  0  0  0  0  0  0  0
    7.6417   10.3597   21.4662 H   0  0  0  0  0  0  0  0  0  0  0  0
   10.2670    9.5279   24.7774 H   0  0  0  0  0  0  0  0  0  0  0  0
    6.1879   11.8976   25.8126 H   0  0  0  0  0  0  0  0  0  0  0  0
    7.4044   13.1039   26.3121 H   0  0  0  0  0  0  0  0  0  0  0  0
   11.8040   13.4066   22.7425 H   0  0  0  0  0  0  0  0  0  0  0  0
    4.4044   13.9042   23.7895 H   0  0  0  0  0  0  0  0  0  0  0  0
  1 14  1  0  0  0  0
  1 15  1  0  0  0  0
  1 16  2  0  0  0  0
  2 13  1  0  0  0  0
  2 17  2  0  0  0  0
  2 18  1  0  0  0  0
  3  9  1  0  0  0  0
  3 10  1  0  0  0  0
  4  9  1  0  0  0  0
  4 11  1  0  0  0  0
  5 10  1  0  0  0  0
  5 11  1  0  0  0  0
  6  9  1  0  0  0  0
  6 12  1  0  0  0  0
  7 10  1  0  0  0  0
  7 12  1  0  0  0  0
  8 11  1  0  0  0  0
  8 12  1  0  0  0  0
 11 13  1  0  0  0  0
 12 15  1  0  0  0  0
 14 19  1  0  0  0  0
 14 20  1  0  0  0  0
 14 21  1  0  0  0  0
  3 22  1  0  0  0  0
  3 23  1  0  0  0  0
  4 24  1  0  0  0  0
  4 25  1  0  0  0  0
  5 26  1  0  0  0  0
  5 27  1  0  0  0  0
  6 28  1  0  0  0  0
  6 29  1  0  0  0  0
  7 30  1  0  0  0  0
  7 31  1  0  0  0  0
  8 32  1  0  0  0  0
  8 33  1  0  0  0  0
  9 34  1  0  0  0  0
 10 35  1  0  0  0  0
 13 36  1  0  0  0  0
 13 37  1  0  0  0  0
 15 38  1  0  0  0  0
 18 39  1  0  0  0  0
M  END
> <id>
EN300-28291284

> <smiles>
OC(=O)CC1(CC2CC3C1)CC(C2)(C3)NC(=O)C(F)(F)F

> <IUPAC Name>
2-[3-(2,2,2-trifluoroacetamido)adamantan-1-yl]acetic acid

> <CAS>
2680733-95-1

> <URL>
https://www.enaminestore.com/catalog/EN300-28291284

> <ROCS_ShapeQuery>
x0446_0A_x1080_0A_x0929_0A_x0812_0A_x0719_0A_x1140_0A_x0528_0A_x0310_0A

> <ROCS_TanimotoCombo>
0.427 

> <ROCS_ShapeTanimoto>
0.258 

> <ROCS_ColorTanimoto>
0.169 

> <ROCS_RefTversky>
0.232 

> <ROCS_RefColorTversky>
0.196 

> <ROCS_RefTverskyCombo>
0.428 

> <ROCS_FitTversky>
1.792 

> <ROCS_FitColorTversky>
0.551 

> <ROCS_FitTverskyCombo>
2.344 

> <ROCS_ColorScore>
-7.032

> <ROCS_Overlap>
2739.501

> <ROCS_Rank>
106                 

$$$$
untitled-dbase-323952_7
  -OEChem-02082415563D

 40 42  0     1  0  0  0  0  0999 V2000
   11.3455   13.6316   22.9809 C   0  0  0  0  0  0  0  0  0  0  0  0
    7.1458   10.7605   23.9928 C   0  0  0  0  0  0  0  0  0  0  0  0
    8.8905   11.8830   25.4314 C   0  0  0  0  0  0  0  0  0  0  0  0
    9.4616    9.7887   24.2532 C   0  0  0  0  0  0  0  0  0  0  0  0
    8.3637   12.8905   23.3967 C   0  0  0  0  0  0  0  0  0  0  0  0
    8.9373   10.7874   22.2136 C   0  0  0  0  0  0  0  0  0  0  0  0
    7.6773   12.1208   24.5278 C   0  0  1  0  0  0  0  0  0  0  0  0
    8.2718    9.9402   23.3009 C   0  0  2  0  0  0  0  0  0  0  0  0
    9.8814   11.2566   24.4362 C   0  0  0  0  0  0  0  0  0  0  0  0
    9.5258   11.9336   23.0600 C   0  0  0  0  0  0  0  0  0  0  0  0
   12.3512   16.3031   22.9412 C   0  0  0  0  0  0  0  0  0  0  0  0
   13.4313   15.6667   20.7645 C   0  0  0  0  0  0  0  0  0  0  0  0
   10.9289   15.6303   20.9767 C   0  0  0  0  0  0  0  0  0  0  0  0
   12.2547   15.4114   21.7041 C   0  0  0  0  0  0  0  0  0  0  0  0
   10.6220   12.5907   22.4179 N   0  0  0  0  0  0  0  0  0  0  0  0
   11.1416   14.1173   24.0887 O   0  0  0  0  0  0  0  0  0  0  0  0
   12.3252   14.0434   22.1218 O   0  0  0  0  0  0  0  0  0  0  0  0
    6.7299   10.1792   24.8244 H   0  0  0  0  0  0  0  0  0  0  0  0
    6.3343   10.9416   23.2779 H   0  0  0  0  0  0  0  0  0  0  0  0
    9.2824   12.8303   25.8212 H   0  0  0  0  0  0  0  0  0  0  0  0
    8.6640   11.2355   26.2847 H   0  0  0  0  0  0  0  0  0  0  0  0
    9.1937    9.2924   25.1914 H   0  0  0  0  0  0  0  0  0  0  0  0
   10.2691    9.2133   23.7845 H   0  0  0  0  0  0  0  0  0  0  0  0
    7.6968   13.0793   22.5488 H   0  0  0  0  0  0  0  0  0  0  0  0
    8.7335   13.8585   23.7588 H   0  0  0  0  0  0  0  0  0  0  0  0
    9.7260   10.2149   21.7089 H   0  0  0  0  0  0  0  0  0  0  0  0
    8.2281   11.1289   21.4520 H   0  0  0  0  0  0  0  0  0  0  0  0
    6.8905   12.7001   25.0181 H   0  0  0  0  0  0  0  0  0  0  0  0
    7.9046    8.9817   22.9255 H   0  0  0  0  0  0  0  0  0  0  0  0
   10.9210   11.3596   24.7581 H   0  0  0  0  0  0  0  0  0  0  0  0
   11.5085   16.1228   23.6181 H   0  0  0  0  0  0  0  0  0  0  0  0
   13.2821   16.1306   23.4912 H   0  0  0  0  0  0  0  0  0  0  0  0
   12.3041   17.3625   22.6642 H   0  0  0  0  0  0  0  0  0  0  0  0
   13.3661   15.0290   19.8755 H   0  0  0  0  0  0  0  0  0  0  0  0
   14.3811   15.4199   21.2525 H   0  0  0  0  0  0  0  0  0  0  0  0
   13.4696   16.7115   20.4397 H   0  0  0  0  0  0  0  0  0  0  0  0
   10.8595   14.9908   20.0893 H   0  0  0  0  0  0  0  0  0  0  0  0
   10.0731   15.4160   21.6250 H   0  0  0  0  0  0  0  0  0  0  0  0
   10.8459   16.6635   20.6205 H   0  0  0  0  0  0  0  0  0  0  0  0
   10.8894   12.2728   21.4839 H   0  0  0  0  0  0  0  0  0  0  0  0
  1 15  1  0  0  0  0
  1 16  2  0  0  0  0
  1 17  1  0  0  0  0
  2  7  1  0  0  0  0
  2  8  1  0  0  0  0
  3  7  1  0  0  0  0
  3  9  1  0  0  0  0
  4  8  1  0  0  0  0
  4  9  1  0  0  0  0
  5  7  1  0  0  0  0
  5 10  1  0  0  0  0
  6  8  1  0  0  0  0
  6 10  1  0  0  0  0
  9 10  1  0  0  0  0
 10 15  1  0  0  0  0
 11 14  1  0  0  0  0
 12 14  1  0  0  0  0
 13 14  1  0  0  0  0
 14 17  1  0  0  0  0
  2 18  1  0  0  0  0
  2 19  1  0  0  0  0
  3 20  1  0  0  0  0
  3 21  1  0  0  0  0
  4 22  1  0  0  0  0
  4 23  1  0  0  0  0
  5 24  1  0  0  0  0
  5 25  1  0  0  0  0
  6 26  1  0  0  0  0
  6 27  1  0  0  0  0
  7 28  1  0  0  0  0
  8 29  1  0  0  0  0
  9 30  1  0  0  0  0
 11 31  1  0  0  0  0
 11 32  1  0  0  0  0
 11 33  1  0  0  0  0
 12 34  1  0  0  0  0
 12 35  1  0  0  0  0
 12 36  1  0  0  0  0
 13 37  1  0  0  0  0
 13 38  1  0  0  0  0
 13 39  1  0  0  0  0
 15 40  1  0  0  0  0
M  END
> <id>
EN300-37447151

> <smiles>
CC(C)(C)OC(=O)NC12CC3CC2CC(C1)C3

> <IUPAC Name>
tert-butyl N-{tricyclo[3.3.1.0,3,7]nonan-3-yl}carbamate

> <URL>
https://www.enaminestore.com/catalog/EN300-37447151

> <ROCS_ShapeQuery>
x0446_0A_x1080_0A_x0929_0A_x0812_0A_x0719_0A_x1140_0A_x0528_0A_x0310_0A

> <ROCS_TanimotoCombo>
0.427 

> <ROCS_ShapeTanimoto>
0.228 

> <ROCS_ColorTanimoto>
0.199 

> <ROCS_RefTversky>
0.207 

> <ROCS_RefColorTversky>
0.278 

> <ROCS_RefTverskyCombo>
0.484 

> <ROCS_FitTversky>
1.807 

> <ROCS_FitColorTversky>
0.414 

> <ROCS_FitTverskyCombo>
2.221 

> <ROCS_ColorScore>
-10.140

> <ROCS_Overlap>
2439.778

> <ROCS_Rank>
107                 

$$$$
untitled-dbase-475745_6
  -OEChem-02082415563D

 48 52  0     1  0  0  0  0  0999 V2000
   14.6821   13.2475   21.0464 C   0  0  0  0  0  0  0  0  0  0  0  0
   11.7875   16.8304   24.8633 C   0  0  0  0  0  0  0  0  0  0  0  0
   13.9535   13.1870   19.8469 C   0  0  0  0  0  0  0  0  0  0  0  0
   10.6242   17.3076   24.2369 C   0  0  0  0  0  0  0  0  0  0  0  0
   14.2312   14.0179   22.1221 C   0  0  0  0  0  0  0  0  0  0  0  0
   12.6586   15.9646   24.1959 C   0  0  0  0  0  0  0  0  0  0  0  0
   12.7589   13.8943   19.7001 C   0  0  0  0  0  0  0  0  0  0  0  0
   10.3083   16.9271   22.9314 C   0  0  0  0  0  0  0  0  0  0  0  0
   13.0457   14.7200   21.9770 C   0  0  0  0  0  0  0  0  0  0  0  0
   12.3454   15.5865   22.9003 C   0  0  0  0  0  0  0  0  0  0  0  0
   12.3127   14.6521   20.7706 C   0  0  0  0  0  0  0  0  0  0  0  0
   11.1715   16.0645   22.2755 C   0  0  0  0  0  0  0  0  0  0  0  0
    6.5185   12.6427   24.4259 C   0  0  0  0  0  0  0  0  0  0  0  0
    8.4387   13.3195   21.9986 C   0  0  0  0  0  0  0  0  0  0  0  0
    8.8436   11.1941   25.5661 C   0  0  0  0  0  0  0  0  0  0  0  0
    9.9819   11.9061   24.8073 C   0  0  0  0  0  0  0  0  0  0  0  0
    9.1017   10.1514   23.4618 C   0  0  0  0  0  0  0  0  0  0  0  0
   11.0616   15.5142   20.8607 C   0  0  0  0  0  0  0  0  0  0  0  0
    7.2969   11.6805   23.5838 C   0  0  2  0  0  0  0  0  0  0  0  0
    7.9892   10.5792   24.4267 C   0  0  2  0  0  0  0  0  0  0  0  0
    9.6476   11.5750   23.3521 C   0  0  1  0  0  0  0  0  0  0  0  0
    9.7902   14.7229   20.6390 C   0  0  0  0  0  0  0  0  0  0  0  0
    8.4534   12.3229   22.9565 N   0  0  0  0  0  0  0  0  0  0  0  0
    6.7839   13.8274   24.5651 O   0  0  0  0  0  0  0  0  0  0  0  0
    7.4177   13.8166   21.5295 O   0  0  0  0  0  0  0  0  0  0  0  0
    5.4721   12.0199   25.0213 O   0  0  0  0  0  0  0  0  0  0  0  0
    9.7033   13.6926   21.6296 O   0  0  0  0  0  0  0  0  0  0  0  0
   10.6834   11.6859   22.5124 F   0  0  0  0  0  0  0  0  0  0  0  0
   15.6101   12.6889   21.1373 H   0  0  0  0  0  0  0  0  0  0  0  0
   12.0132   17.1401   25.8804 H   0  0  0  0  0  0  0  0  0  0  0  0
   14.3275   12.5834   19.0240 H   0  0  0  0  0  0  0  0  0  0  0  0
    9.9646   17.9819   24.7767 H   0  0  0  0  0  0  0  0  0  0  0  0
   14.8057   14.0561   23.0418 H   0  0  0  0  0  0  0  0  0  0  0  0
   13.5543   15.6058   24.6921 H   0  0  0  0  0  0  0  0  0  0  0  0
   12.2021   13.8482   18.7707 H   0  0  0  0  0  0  0  0  0  0  0  0
    9.4118   17.3020   22.4500 H   0  0  0  0  0  0  0  0  0  0  0  0
    9.2603   10.4013   26.1987 H   0  0  0  0  0  0  0  0  0  0  0  0
    8.2866   11.8753   26.2148 H   0  0  0  0  0  0  0  0  0  0  0  0
    9.9983   12.9847   24.9957 H   0  0  0  0  0  0  0  0  0  0  0  0
   10.9594   11.5031   25.0941 H   0  0  0  0  0  0  0  0  0  0  0  0
    9.8190    9.4434   23.8905 H   0  0  0  0  0  0  0  0  0  0  0  0
    8.7392    9.7564   22.5065 H   0  0  0  0  0  0  0  0  0  0  0  0
   11.1435   16.3418   20.1461 H   0  0  0  0  0  0  0  0  0  0  0  0
    6.6504   11.2622   22.8053 H   0  0  0  0  0  0  0  0  0  0  0  0
    7.3199    9.7822   24.7567 H   0  0  0  0  0  0  0  0  0  0  0  0
    9.7945   14.2594   19.6479 H   0  0  0  0  0  0  0  0  0  0  0  0
    8.9137   15.3717   20.7275 H   0  0  0  0  0  0  0  0  0  0  0  0
    4.9498   12.6342   25.5800 H   0  0  0  0  0  0  0  0  0  0  0  0
  1  3  1  0  0  0  0
  1  5  2  0  0  0  0
  2  4  1  0  0  0  0
  2  6  2  0  0  0  0
  3  7  2  0  0  0  0
  4  8  2  0  0  0  0
  5  9  1  0  0  0  0
  6 10  1  0  0  0  0
  7 11  1  0  0  0  0
  8 12  1  0  0  0  0
  9 10  1  0  0  0  0
  9 11  2  0  0  0  0
 10 12  2  0  0  0  0
 11 18  1  0  0  0  0
 12 18  1  0  0  0  0
 13 19  1  1  0  0  0
 13 24  2  0  0  0  0
 13 26  1  0  0  0  0
 14 23  1  0  0  0  0
 14 25  2  0  0  0  0
 14 27  1  0  0  0  0
 15 16  1  0  0  0  0
 15 20  1  0  0  0  0
 16 21  1  0  0  0  0
 17 20  1  6  0  0  0
 17 21  1  0  0  0  0
 18 22  1  0  0  0  0
 19 20  1  0  0  0  0
 19 23  1  0  0  0  0
 21 23  1  0  0  0  0
 21 28  1  6  0  0  0
 22 27  1  0  0  0  0
  1 29  1  0  0  0  0
  2 30  1  0  0  0  0
  3 31  1  0  0  0  0
  4 32  1  0  0  0  0
  5 33  1  0  0  0  0
  6 34  1  0  0  0  0
  7 35  1  0  0  0  0
  8 36  1  0  0  0  0
 15 37  1  0  0  0  0
 15 38  1  0  0  0  0
 16 39  1  0  0  0  0
 16 40  1  0  0  0  0
 17 41  1  0  0  0  0
 17 42  1  0  0  0  0
 18 43  1  0  0  0  0
 19 44  1  0  0  0  0
 20 45  1  0  0  0  0
 22 46  1  0  0  0  0
 22 47  1  0  0  0  0
 26 48  1  0  0  0  0
M  END
> <id>
EN300-27733150

> <smiles>
OC(=O)[C@@H]1[C@@H]2CC[C@@](F)(C2)N1C(=O)OCC3C=4C=CC=CC4C=5C=CC=CC35 |&1:3,4,7,r|

> <IUPAC Name>
rac-(1R,3S,4R)-2-{[(9H-fluoren-9-yl)methoxy]carbonyl}-1-fluoro-2-azabicyclo[2.2.1]heptane-3-carboxylic acid

> <CAS>
2580093-67-8

> <URL>
https://www.enaminestore.com/catalog/EN300-27733150

> <ROCS_ShapeQuery>
x0446_0A_x1080_0A_x0929_0A_x0812_0A_x0719_0A_x1140_0A_x0528_0A_x0310_0A

> <ROCS_TanimotoCombo>
0.427 

> <ROCS_ShapeTanimoto>
0.248 

> <ROCS_ColorTanimoto>
0.179 

> <ROCS_RefTversky>
0.230 

> <ROCS_RefColorTversky>
0.213 

> <ROCS_RefTverskyCombo>
0.443 

> <ROCS_FitTversky>
1.450 

> <ROCS_FitColorTversky>
0.527 

> <ROCS_FitTverskyCombo>
1.977 

> <ROCS_ColorScore>
-7.674

> <ROCS_Overlap>
2721.954

> <ROCS_Rank>
108                 

$$$$
untitled-dbase-290788_6
  -OEChem-02082415563D

 46 50  0     1  0  0  0  0  0999 V2000
    5.4795   19.5421   20.8896 C   0  0  0  0  0  0  0  0  0  0  0  0
    6.8760   19.7031   20.7698 C   0  0  0  0  0  0  0  0  0  0  0  0
    4.9186   18.2901   21.1584 C   0  0  0  0  0  0  0  0  0  0  0  0
    7.7422   18.6156   20.9162 C   0  0  0  0  0  0  0  0  0  0  0  0
    5.7902   17.2312   21.3025 C   0  0  0  0  0  0  0  0  0  0  0  0
    7.1693   17.3902   21.1841 C   0  0  0  0  0  0  0  0  0  0  0  0
    5.5184   15.8160   21.5740 C   0  0  0  0  0  0  0  0  0  0  0  0
    7.7954   16.0785   21.3783 C   0  0  0  0  0  0  0  0  0  0  0  0
    7.0743   13.6904   23.3055 C   0  0  0  0  0  0  0  0  0  0  0  0
    8.3323    9.7927   24.6690 C   0  0  0  0  0  0  0  0  0  0  0  0
    7.2995   11.2522   22.9107 C   0  0  0  0  0  0  0  0  0  0  0  0
    8.1071   12.2585   25.0657 C   0  0  0  0  0  0  0  0  0  0  0  0
    9.5644   10.2452   22.5315 C   0  0  0  0  0  0  0  0  0  0  0  0
   10.3724   11.2519   24.6878 C   0  0  0  0  0  0  0  0  0  0  0  0
    9.3394   12.7176   22.9259 C   0  0  0  0  0  0  0  0  0  0  0  0
    8.1772   10.0136   23.1554 C   0  0  1  0  0  0  0  0  0  0  0  0
    8.9874   11.0232   25.3175 C   0  0  2  0  0  0  0  0  0  0  0  0
    7.9486   12.4940   23.5514 C   0  0  0  0  0  0  0  0  0  0  0  0
   10.2424   11.4837   23.1637 C   0  0  0  0  0  0  0  0  0  0  0  0
   11.6232   11.7084   22.5415 C   0  0  0  0  0  0  0  0  0  0  0  0
    6.7517   15.2474   21.6410 N   0  0  0  0  0  0  0  0  0  0  0  0
    4.4120   15.3332   21.7141 O   0  0  0  0  0  0  0  0  0  0  0  0
    8.9896   15.8609   21.3202 O   0  0  0  0  0  0  0  0  0  0  0  0
    6.5741   14.3667   24.1945 O   0  0  0  0  0  0  0  0  0  0  0  0
    6.9364   13.8848   21.9621 O   0  0  0  0  0  0  0  0  0  0  0  0
   11.5017   11.9078   21.2217 F   0  0  0  0  0  0  0  0  0  0  0  0
   12.2033   12.7825   23.0949 F   0  0  0  0  0  0  0  0  0  0  0  0
   12.3982   10.6353   22.7523 F   0  0  0  0  0  0  0  0  0  0  0  0
    4.8315   20.4065   20.7692 H   0  0  0  0  0  0  0  0  0  0  0  0
    7.2822   20.6891   20.5590 H   0  0  0  0  0  0  0  0  0  0  0  0
    3.8457   18.1671   21.2476 H   0  0  0  0  0  0  0  0  0  0  0  0
    8.8143   18.7399   20.8213 H   0  0  0  0  0  0  0  0  0  0  0  0
    7.3510    9.6081   25.1229 H   0  0  0  0  0  0  0  0  0  0  0  0
    8.9428    8.9009   24.8567 H   0  0  0  0  0  0  0  0  0  0  0  0
    7.1619   11.4060   21.8322 H   0  0  0  0  0  0  0  0  0  0  0  0
    6.2968   11.0876   23.3267 H   0  0  0  0  0  0  0  0  0  0  0  0
    7.1254   12.1172   25.5368 H   0  0  0  0  0  0  0  0  0  0  0  0
    8.5525   13.1405   25.5446 H   0  0  0  0  0  0  0  0  0  0  0  0
   10.1880    9.3541   22.6801 H   0  0  0  0  0  0  0  0  0  0  0  0
    9.4624   10.3807   21.4470 H   0  0  0  0  0  0  0  0  0  0  0  0
   10.8549   12.1159   25.1628 H   0  0  0  0  0  0  0  0  0  0  0  0
   11.0147   10.3842   24.8860 H   0  0  0  0  0  0  0  0  0  0  0  0
    9.2427   12.9111   21.8487 H   0  0  0  0  0  0  0  0  0  0  0  0
    9.8040   13.6163   23.3545 H   0  0  0  0  0  0  0  0  0  0  0  0
    7.7097    9.1336   22.6997 H   0  0  0  0  0  0  0  0  0  0  0  0
    9.0946   10.8597   26.3957 H   0  0  0  0  0  0  0  0  0  0  0  0
  1  2  1  0  0  0  0
  1  3  2  0  0  0  0
  2  4  2  0  0  0  0
  3  5  1  0  0  0  0
  4  6  1  0  0  0  0
  5  6  2  0  0  0  0
  5  7  1  0  0  0  0
  6  8  1  0  0  0  0
  7 21  1  0  0  0  0
  7 22  2  0  0  0  0
  8 21  1  0  0  0  0
  8 23  2  0  0  0  0
  9 18  1  0  0  0  0
  9 24  2  0  0  0  0
  9 25  1  0  0  0  0
 10 16  1  0  0  0  0
 10 17  1  0  0  0  0
 11 16  1  0  0  0  0
 11 18  1  0  0  0  0
 12 17  1  0  0  0  0
 12 18  1  0  0  0  0
 13 16  1  0  0  0  0
 13 19  1  0  0  0  0
 14 17  1  0  0  0  0
 14 19  1  0  0  0  0
 15 18  1  0  0  0  0
 15 19  1  0  0  0  0
 19 20  1  0  0  0  0
 20 26  1  0  0  0  0
 20 27  1  0  0  0  0
 20 28  1  0  0  0  0
 21 25  1  0  0  0  0
  1 29  1  0  0  0  0
  2 30  1  0  0  0  0
  3 31  1  0  0  0  0
  4 32  1  0  0  0  0
 10 33  1  0  0  0  0
 10 34  1  0  0  0  0
 11 35  1  0  0  0  0
 11 36  1  0  0  0  0
 12 37  1  0  0  0  0
 12 38  1  0  0  0  0
 13 39  1  0  0  0  0
 13 40  1  0  0  0  0
 14 41  1  0  0  0  0
 14 42  1  0  0  0  0
 15 43  1  0  0  0  0
 15 44  1  0  0  0  0
 16 45  1  0  0  0  0
 17 46  1  0  0  0  0
M  END
> <id>
EN300-6523192

> <smiles>
FC(F)(F)C1(CC2CC3CC(C2)(C1)C(=O)ON4C(=O)C=5C=CC=CC5C4=O)C3

> <IUPAC Name>
1,3-dioxo-2,3-dihydro-1H-isoindol-2-yl 3-(trifluoromethyl)adamantane-1-carboxylate

> <CAS>
2248293-91-4

> <URL>
https://www.enaminestore.com/catalog/EN300-6523192

> <ROCS_ShapeQuery>
x0446_0A_x1080_0A_x0929_0A_x0812_0A_x0719_0A_x1140_0A_x0528_0A_x0310_0A

> <ROCS_TanimotoCombo>
0.427 

> <ROCS_ShapeTanimoto>
0.242 

> <ROCS_ColorTanimoto>
0.184 

> <ROCS_RefTversky>
0.226 

> <ROCS_RefColorTversky>
0.211 

> <ROCS_RefTverskyCombo>
0.437 

> <ROCS_FitTversky>
1.417 

> <ROCS_FitColorTversky>
0.593 

> <ROCS_FitTverskyCombo>
2.009 

> <ROCS_ColorScore>
-7.566

> <ROCS_Overlap>
2677.608

> <ROCS_Rank>
109                 

$$$$
untitled-dbase-290613_9
  -OEChem-02082415563D

 44 48  0     0  0  0  0  0  0999 V2000
    6.5486   13.5441   25.1039 C   0  0  0  0  0  0  0  0  0  0  0  0
   11.7373   19.0438   21.2239 C   0  0  0  0  0  0  0  0  0  0  0  0
   13.0620   18.7994   21.6434 C   0  0  0  0  0  0  0  0  0  0  0  0
    5.7153   12.4332   25.1446 C   0  0  0  0  0  0  0  0  0  0  0  0
    7.8580   13.4045   24.6529 C   0  0  0  0  0  0  0  0  0  0  0  0
   10.7910   18.0153   21.1884 C   0  0  0  0  0  0  0  0  0  0  0  0
   13.4695   17.5212   22.0364 C   0  0  0  0  0  0  0  0  0  0  0  0
    6.1928   11.1859   24.7346 C   0  0  0  0  0  0  0  0  0  0  0  0
   10.7288    7.7836   22.5729 C   0  0  0  0  0  0  0  0  0  0  0  0
   10.4456    6.4098   22.3837 C   0  0  0  0  0  0  0  0  0  0  0  0
   10.0956   10.7289   23.3819 C   0  0  0  0  0  0  0  0  0  0  0  0
    8.3381   12.1498   24.2405 C   0  0  0  0  0  0  0  0  0  0  0  0
   11.2121   16.7628   21.5831 C   0  0  0  0  0  0  0  0  0  0  0  0
   12.5204   16.5215   21.9972 C   0  0  0  0  0  0  0  0  0  0  0  0
    9.6517   11.9810   23.7823 C   0  0  0  0  0  0  0  0  0  0  0  0
    7.4975   11.0176   24.2791 C   0  0  0  0  0  0  0  0  0  0  0  0
    9.2005    9.6810   23.4553 C   0  0  0  0  0  0  0  0  0  0  0  0
    9.5735    8.3480   23.0613 C   0  0  0  0  0  0  0  0  0  0  0  0
    9.1375    6.2327   22.7703 C   0  0  0  0  0  0  0  0  0  0  0  0
   10.4750   15.4969   21.6479 C   0  0  0  0  0  0  0  0  0  0  0  0
   12.6351   15.0983   22.3314 C   0  0  0  0  0  0  0  0  0  0  0  0
   10.6050   13.0837   23.7012 C   0  0  0  0  0  0  0  0  0  0  0  0
    8.2523    5.0603   22.8144 C   0  0  0  0  0  0  0  0  0  0  0  0
    7.9256    9.8013   23.8913 N   0  0  0  0  0  0  0  0  0  0  0  0
   11.3818   14.6086   22.1356 N   0  0  0  0  0  0  0  0  0  0  0  0
    9.3093   15.3523   21.3362 O   0  0  0  0  0  0  0  0  0  0  0  0
   13.6521   14.5512   22.7098 O   0  0  0  0  0  0  0  0  0  0  0  0
   10.9697   13.7582   24.6699 O   0  0  0  0  0  0  0  0  0  0  0  0
    8.5987    7.4094   23.1847 O   0  0  0  0  0  0  0  0  0  0  0  0
   11.0443   13.2672   22.4198 O   0  0  0  0  0  0  0  0  0  0  0  0
    6.1802   14.5148   25.4214 H   0  0  0  0  0  0  0  0  0  0  0  0
   11.4507   20.0482   20.9229 H   0  0  0  0  0  0  0  0  0  0  0  0
   13.7755   19.6193   21.6589 H   0  0  0  0  0  0  0  0  0  0  0  0
    4.6922   12.5336   25.4956 H   0  0  0  0  0  0  0  0  0  0  0  0
    8.4878   14.2907   24.6306 H   0  0  0  0  0  0  0  0  0  0  0  0
    9.7746   18.2036   20.8637 H   0  0  0  0  0  0  0  0  0  0  0  0
   14.4878   17.3341   22.3557 H   0  0  0  0  0  0  0  0  0  0  0  0
    5.5200   10.3310   24.7771 H   0  0  0  0  0  0  0  0  0  0  0  0
   11.6609    8.2940   22.3755 H   0  0  0  0  0  0  0  0  0  0  0  0
   11.1141    5.6464   22.0120 H   0  0  0  0  0  0  0  0  0  0  0  0
   11.1103   10.5807   23.0240 H   0  0  0  0  0  0  0  0  0  0  0  0
    8.3197    4.5400   23.7865 H   0  0  0  0  0  0  0  0  0  0  0  0
    7.1912    5.3289   22.6571 H   0  0  0  0  0  0  0  0  0  0  0  0
    8.4937    4.3218   22.0275 H   0  0  0  0  0  0  0  0  0  0  0  0
  1  4  1  0  0  0  0
  1  5  2  0  0  0  0
  2  3  1  0  0  0  0
  2  6  2  0  0  0  0
  3  7  2  0  0  0  0
  4  8  2  0  0  0  0
  5 12  1  0  0  0  0
  6 13  1  0  0  0  0
  7 14  1  0  0  0  0
  8 16  1  0  0  0  0
  9 10  1  0  0  0  0
  9 18  2  0  0  0  0
 10 19  2  0  0  0  0
 11 15  2  0  0  0  0
 11 17  1  0  0  0  0
 12 15  1  0  0  0  0
 12 16  2  0  0  0  0
 13 14  2  0  0  0  0
 13 20  1  0  0  0  0
 14 21  1  0  0  0  0
 15 22  1  0  0  0  0
 16 24  1  0  0  0  0
 17 18  1  0  0  0  0
 17 24  2  0  0  0  0
 18 29  1  0  0  0  0
 19 23  1  0  0  0  0
 19 29  1  0  0  0  0
 20 25  1  0  0  0  0
 20 26  2  0  0  0  0
 21 25  1  0  0  0  0
 21 27  2  0  0  0  0
 22 28  2  0  0  0  0
 22 30  1  0  0  0  0
 25 30  1  0  0  0  0
  1 31  1  0  0  0  0
  2 32  1  0  0  0  0
  3 33  1  0  0  0  0
  4 34  1  0  0  0  0
  5 35  1  0  0  0  0
  6 36  1  0  0  0  0
  7 37  1  0  0  0  0
  8 38  1  0  0  0  0
  9 39  1  0  0  0  0
 10 40  1  0  0  0  0
 11 41  1  0  0  0  0
 23 42  1  0  0  0  0
 23 43  1  0  0  0  0
 23 44  1  0  0  0  0
M  END
> <id>
EN300-6524106

> <smiles>
CC1=CC=C(O1)C=2C=C(C(=O)ON3C(=O)C=4C=CC=CC4C3=O)C=5C=CC=CC5N2

> <IUPAC Name>
1,3-dioxo-2,3-dihydro-1H-isoindol-2-yl 2-(5-methylfuran-2-yl)quinoline-4-carboxylate

> <CAS>
2248374-19-6

> <URL>
https://www.enaminestore.com/catalog/EN300-6524106

> <ROCS_ShapeQuery>
x0446_0A_x1080_0A_x0929_0A_x0812_0A_x0719_0A_x1140_0A_x0528_0A_x0310_0A

> <ROCS_TanimotoCombo>
0.427 

> <ROCS_ShapeTanimoto>
0.264 

> <ROCS_ColorTanimoto>
0.163 

> <ROCS_RefTversky>
0.244 

> <ROCS_RefColorTversky>
0.184 

> <ROCS_RefTverskyCombo>
0.428 

> <ROCS_FitTversky>
1.449 

> <ROCS_FitColorTversky>
0.580 

> <ROCS_FitTverskyCombo>
2.030 

> <ROCS_ColorScore>
-6.607

> <ROCS_Overlap>
2886.219

> <ROCS_Rank>
110                 

$$$$
untitled-dbase-398046_5
  -OEChem-02082415563D

 37 40  0     0  0  0  0  0  0999 V2000
   11.1143   16.2725   21.2230 C   0  0  0  0  0  0  0  0  0  0  0  0
   10.9478   14.9409   20.8428 C   0  0  0  0  0  0  0  0  0  0  0  0
   11.7231   16.5796   22.4399 C   0  0  0  0  0  0  0  0  0  0  0  0
   11.3899   13.9162   21.6796 C   0  0  0  0  0  0  0  0  0  0  0  0
   12.1651   15.5549   23.2767 C   0  0  0  0  0  0  0  0  0  0  0  0
   11.0375    9.8233   23.2889 C   0  0  0  0  0  0  0  0  0  0  0  0
    9.8970   10.5813   23.6362 C   0  0  0  0  0  0  0  0  0  0  0  0
   11.9986   14.2232   22.8966 C   0  0  0  0  0  0  0  0  0  0  0  0
   12.1140   10.6863   23.3133 C   0  0  0  0  0  0  0  0  0  0  0  0
   10.3039   11.8759   23.8619 C   0  0  0  0  0  0  0  0  0  0  0  0
    6.0445   13.4968   24.8919 C   0  0  0  0  0  0  0  0  0  0  0  0
    7.3475   13.7546   24.7449 C   0  0  0  0  0  0  0  0  0  0  0  0
    5.5245   12.1762   24.6782 C   0  0  0  0  0  0  0  0  0  0  0  0
    6.3449   11.1805   24.3266 C   0  0  0  0  0  0  0  0  0  0  0  0
    8.4986   10.2452   23.7798 C   0  0  0  0  0  0  0  0  0  0  0  0
    8.2859   12.6602   24.3533 C   0  0  0  0  0  0  0  0  0  0  0  0
   13.4825   10.3759   23.0305 C   0  0  0  0  0  0  0  0  0  0  0  0
   12.4755   13.1182   23.7999 C   0  0  0  0  0  0  0  0  0  0  0  0
    9.5558   12.9426   24.2174 N   0  0  0  0  0  0  0  0  0  0  0  0
   11.6557   11.9332   23.6633 N   0  0  0  0  0  0  0  0  0  0  0  0
    7.7131   11.3682   24.1541 N   0  0  0  0  0  0  0  0  0  0  0  0
    8.0897    9.1041   23.5893 O   0  0  0  0  0  0  0  0  0  0  0  0
   14.1843   10.8826   22.1304 O   0  0  0  0  0  0  0  0  0  0  0  0
   14.0081    9.4258   23.8662 O   0  0  0  0  0  0  0  0  0  0  0  0
   10.7712   17.0703   20.5707 H   0  0  0  0  0  0  0  0  0  0  0  0
   10.4748   14.7017   19.8948 H   0  0  0  0  0  0  0  0  0  0  0  0
   11.8539   17.6163   22.7357 H   0  0  0  0  0  0  0  0  0  0  0  0
   11.2557   12.8815   21.3753 H   0  0  0  0  0  0  0  0  0  0  0  0
   12.6382   15.8035   24.2230 H   0  0  0  0  0  0  0  0  0  0  0  0
   11.0736    8.7697   23.0473 H   0  0  0  0  0  0  0  0  0  0  0  0
    5.3516   14.2807   25.1753 H   0  0  0  0  0  0  0  0  0  0  0  0
    7.7507   14.7482   24.9031 H   0  0  0  0  0  0  0  0  0  0  0  0
    4.4613   12.0094   24.8067 H   0  0  0  0  0  0  0  0  0  0  0  0
    5.9542   10.1820   24.1644 H   0  0  0  0  0  0  0  0  0  0  0  0
   13.5139   12.8446   23.5767 H   0  0  0  0  0  0  0  0  0  0  0  0
   12.4552   13.4296   24.8514 H   0  0  0  0  0  0  0  0  0  0  0  0
   14.9462    9.2066   23.6811 H   0  0  0  0  0  0  0  0  0  0  0  0
  1  2  1  0  0  0  0
  1  3  2  0  0  0  0
  2  4  2  0  0  0  0
  3  5  1  0  0  0  0
  4  8  1  0  0  0  0
  5  8  2  0  0  0  0
  6  7  1  0  0  0  0
  6  9  2  0  0  0  0
  7 10  2  0  0  0  0
  7 15  1  0  0  0  0
  8 18  1  0  0  0  0
  9 17  1  0  0  0  0
  9 20  1  0  0  0  0
 10 19  1  0  0  0  0
 10 20  1  0  0  0  0
 11 12  2  0  0  0  0
 11 13  1  0  0  0  0
 12 16  1  0  0  0  0
 13 14  2  0  0  0  0
 14 21  1  0  0  0  0
 15 21  1  0  0  0  0
 15 22  2  0  0  0  0
 16 19  2  0  0  0  0
 16 21  1  0  0  0  0
 17 23  2  0  0  0  0
 17 24  1  0  0  0  0
 18 20  1  0  0  0  0
  1 25  1  0  0  0  0
  2 26  1  0  0  0  0
  3 27  1  0  0  0  0
  4 28  1  0  0  0  0
  5 29  1  0  0  0  0
  6 30  1  0  0  0  0
 11 31  1  0  0  0  0
 12 32  1  0  0  0  0
 13 33  1  0  0  0  0
 14 34  1  0  0  0  0
 18 35  1  0  0  0  0
 18 36  1  0  0  0  0
 24 37  1  0  0  0  0
M  END
> <id>
EN300-12429

> <smiles>
OC(=O)C1=CC=2C(=O)N3C=CC=CC3=NC2N1CC=4C=CC=CC4

> <MDLNUMBER>
MFCD06660774

> <IUPAC Name>
6-benzyl-2-oxo-1,6,8-triazatricyclo[7.4.0.0,3,7]trideca-3(7),4,8,10,12-pentaene-5-carboxylic acid

> <CAS>
885461-22-3

> <Purity>
95

> <URL>
https://www.enaminestore.com/catalog/EN300-12429

> <ROCS_ShapeQuery>
x0446_0A_x1080_0A_x0929_0A_x0812_0A_x0719_0A_x1140_0A_x0528_0A_x0310_0A

> <ROCS_TanimotoCombo>
0.426 

> <ROCS_ShapeTanimoto>
0.265 

> <ROCS_ColorTanimoto>
0.161 

> <ROCS_RefTversky>
0.240 

> <ROCS_RefColorTversky>
0.179 

> <ROCS_RefTverskyCombo>
0.419 

> <ROCS_FitTversky>
1.666 

> <ROCS_FitColorTversky>
0.614 

> <ROCS_FitTverskyCombo>
2.280 

> <ROCS_ColorScore>
-6.413

> <ROCS_Overlap>
2835.895

> <ROCS_Rank>
111                 

$$$$
untitled-dbase-557832_8
  -OEChem-02082415563D

 46 48  0     1  0  0  0  0  0999 V2000
    6.2039   10.6711   25.2755 C   0  0  0  0  0  0  0  0  0  0  0  0
   10.2781   14.6209   21.6570 C   0  0  0  0  0  0  0  0  0  0  0  0
   10.3639   11.0534   24.2423 C   0  0  0  0  0  0  0  0  0  0  0  0
    9.1028   10.7536   22.0937 C   0  0  0  0  0  0  0  0  0  0  0  0
    8.2275    9.7394   24.2130 C   0  0  0  0  0  0  0  0  0  0  0  0
    8.3062   11.9903   25.3231 C   0  0  0  0  0  0  0  0  0  0  0  0
    7.0410   11.6871   23.1706 C   0  0  0  0  0  0  0  0  0  0  0  0
    9.5011   10.0812   23.4191 C   0  0  0  0  0  0  0  0  0  0  0  0
    9.5796   12.3495   24.5315 C   0  0  2  0  0  0  0  0  0  0  0  0
    8.3087   12.0469   22.3691 C   0  0  1  0  0  0  0  0  0  0  0  0
    9.1572   13.0284   23.2089 C   0  0  0  0  0  0  0  0  0  0  0  0
    7.4414   11.0261   24.4989 C   0  0  0  0  0  0  0  0  0  0  0  0
   11.6869   16.5148   22.7857 C   0  0  0  0  0  0  0  0  0  0  0  0
   13.6566   15.8169   21.3920 C   0  0  0  0  0  0  0  0  0  0  0  0
   11.7587   17.0759   20.3333 C   0  0  0  0  0  0  0  0  0  0  0  0
   12.1485   16.0568   21.4030 C   0  0  0  0  0  0  0  0  0  0  0  0
   10.3024   13.5067   22.4689 N   0  0  0  0  0  0  0  0  0  0  0  0
    5.8891    9.5404   25.6158 O   0  0  0  0  0  0  0  0  0  0  0  0
    9.3052   15.3407   21.4570 O   0  0  0  0  0  0  0  0  0  0  0  0
    5.4753   11.7810   25.5487 O   0  0  0  0  0  0  0  0  0  0  0  0
   11.5111   14.8109   21.0994 O   0  0  0  0  0  0  0  0  0  0  0  0
   10.6587   10.5801   25.1872 H   0  0  0  0  0  0  0  0  0  0  0  0
   11.2916   11.2801   23.7034 H   0  0  0  0  0  0  0  0  0  0  0  0
    9.9985   10.9736   21.5007 H   0  0  0  0  0  0  0  0  0  0  0  0
    8.4931   10.0648   21.4958 H   0  0  0  0  0  0  0  0  0  0  0  0
    7.6129    9.0275   23.6464 H   0  0  0  0  0  0  0  0  0  0  0  0
    8.4960    9.2344   25.1503 H   0  0  0  0  0  0  0  0  0  0  0  0
    8.5822   11.5374   26.2845 H   0  0  0  0  0  0  0  0  0  0  0  0
    7.7442   12.9022   25.5640 H   0  0  0  0  0  0  0  0  0  0  0  0
    6.4447   12.5904   23.3549 H   0  0  0  0  0  0  0  0  0  0  0  0
    6.4051   11.0152   22.5791 H   0  0  0  0  0  0  0  0  0  0  0  0
   10.0663    9.1651   23.2151 H   0  0  0  0  0  0  0  0  0  0  0  0
   10.1948   13.0319   25.1297 H   0  0  0  0  0  0  0  0  0  0  0  0
    8.0150   12.5130   21.4212 H   0  0  0  0  0  0  0  0  0  0  0  0
    8.5633   13.9234   23.4325 H   0  0  0  0  0  0  0  0  0  0  0  0
   10.6049   16.6881   22.7978 H   0  0  0  0  0  0  0  0  0  0  0  0
   11.9295   15.7765   23.5570 H   0  0  0  0  0  0  0  0  0  0  0  0
   12.1556   17.4672   23.0588 H   0  0  0  0  0  0  0  0  0  0  0  0
   13.9921   15.4881   20.4017 H   0  0  0  0  0  0  0  0  0  0  0  0
   13.9299   15.0184   22.0913 H   0  0  0  0  0  0  0  0  0  0  0  0
   14.2115   16.7206   21.6636 H   0  0  0  0  0  0  0  0  0  0  0  0
   12.0896   16.7477   19.3413 H   0  0  0  0  0  0  0  0  0  0  0  0
   10.6757   17.2333   20.3017 H   0  0  0  0  0  0  0  0  0  0  0  0
   12.2455   18.0404   20.5181 H   0  0  0  0  0  0  0  0  0  0  0  0
   11.1743   12.9932   22.5513 H   0  0  0  0  0  0  0  0  0  0  0  0
    4.6615   11.5698   26.0541 H   0  0  0  0  0  0  0  0  0  0  0  0
  1 12  1  0  0  0  0
  1 18  2  0  0  0  0
  1 20  1  0  0  0  0
  2 17  1  0  0  0  0
  2 19  2  0  0  0  0
  2 21  1  0  0  0  0
  3  8  1  0  0  0  0
  3  9  1  0  0  0  0
  4  8  1  0  0  0  0
  4 10  1  0  0  0  0
  5  8  1  0  0  0  0
  5 12  1  0  0  0  0
  6  9  1  0  0  0  0
  6 12  1  0  0  0  0
  7 10  1  0  0  0  0
  7 12  1  0  0  0  0
  9 11  1  0  0  0  0
 10 11  1  0  0  0  0
 11 17  1  0  0  0  0
 13 16  1  0  0  0  0
 14 16  1  0  0  0  0
 15 16  1  0  0  0  0
 16 21  1  0  0  0  0
  3 22  1  0  0  0  0
  3 23  1  0  0  0  0
  4 24  1  0  0  0  0
  4 25  1  0  0  0  0
  5 26  1  0  0  0  0
  5 27  1  0  0  0  0
  6 28  1  0  0  0  0
  6 29  1  0  0  0  0
  7 30  1  0  0  0  0
  7 31  1  0  0  0  0
  8 32  1  0  0  0  0
  9 33  1  0  0  0  0
 10 34  1  0  0  0  0
 11 35  1  0  0  0  0
 13 36  1  0  0  0  0
 13 37  1  0  0  0  0
 13 38  1  0  0  0  0
 14 39  1  0  0  0  0
 14 40  1  0  0  0  0
 14 41  1  0  0  0  0
 15 42  1  0  0  0  0
 15 43  1  0  0  0  0
 15 44  1  0  0  0  0
 17 45  1  0  0  0  0
 20 46  1  0  0  0  0
M  END
> <id>
EN300-207760

> <smiles>
CC(C)(C)OC(=O)NC1C2CC3CC1CC(C3)(C2)C(=O)O

> <IUPAC Name>
4-{[(tert-butoxy)carbonyl]amino}adamantane-1-carboxylic acid

> <CAS>
1134409-51-0

> <URL>
https://www.enaminestore.com/catalog/EN300-207760

> <ROCS_ShapeQuery>
x0446_0A_x1080_0A_x0929_0A_x0812_0A_x0719_0A_x1140_0A_x0528_0A_x0310_0A

> <ROCS_TanimotoCombo>
0.426 

> <ROCS_ShapeTanimoto>
0.241 

> <ROCS_ColorTanimoto>
0.186 

> <ROCS_RefTversky>
0.219 

> <ROCS_RefColorTversky>
0.216 

> <ROCS_RefTverskyCombo>
0.435 

> <ROCS_FitTversky>
1.704 

> <ROCS_FitColorTversky>
0.567 

> <ROCS_FitTverskyCombo>
2.271 

> <ROCS_ColorScore>
-7.781

> <ROCS_Overlap>
2585.173

> <ROCS_Rank>
112                 

$$$$
untitled-dbase-241362_1
  -OEChem-02082415563D

 40 43  0     0  0  0  0  0  0999 V2000
    9.8363   15.0916   22.0361 C   0  0  0  0  0  0  0  0  0  0  0  0
   12.7775   15.2579   21.6085 C   0  0  0  0  0  0  0  0  0  0  0  0
   12.1094   15.8365   22.8710 C   0  0  0  0  0  0  0  0  0  0  0  0
   12.0790   13.9194   21.9176 C   0  0  0  0  0  0  0  0  0  0  0  0
    7.6149   11.0088   24.5929 C   0  0  0  0  0  0  0  0  0  0  0  0
    9.6479    9.8426   23.7015 C   0  0  0  0  0  0  0  0  0  0  0  0
    8.1390   11.0997   22.1425 C   0  0  0  0  0  0  0  0  0  0  0  0
    9.9009   11.8969   25.1177 C   0  0  0  0  0  0  0  0  0  0  0  0
    8.3886   13.1569   23.5552 C   0  0  0  0  0  0  0  0  0  0  0  0
   10.4261   11.9881   22.6616 C   0  0  0  0  0  0  0  0  0  0  0  0
    9.0713   10.6200   24.8965 C   0  0  0  0  0  0  0  0  0  0  0  0
    7.5550   11.8834   23.3296 C   0  0  0  0  0  0  0  0  0  0  0  0
    9.5981   10.7113   22.4337 C   0  0  0  0  0  0  0  0  0  0  0  0
   11.0369   14.7098   22.7657 C   0  0  0  0  0  0  0  0  0  0  0  0
    9.8616   12.7923   23.8567 C   0  0  0  0  0  0  0  0  0  0  0  0
   10.6878   14.0616   24.0805 C   0  0  0  0  0  0  0  0  0  0  0  0
    8.8794   15.3959   21.4547 N   0  0  0  0  0  0  0  0  0  0  0  0
   12.4413   15.7266   20.6766 H   0  0  0  0  0  0  0  0  0  0  0  0
   13.8703   15.2351   21.6194 H   0  0  0  0  0  0  0  0  0  0  0  0
   12.7463   15.7743   23.7622 H   0  0  0  0  0  0  0  0  0  0  0  0
   11.7527   16.8670   22.7782 H   0  0  0  0  0  0  0  0  0  0  0  0
   11.6975   13.3808   21.0446 H   0  0  0  0  0  0  0  0  0  0  0  0
   12.7059   13.2302   22.4970 H   0  0  0  0  0  0  0  0  0  0  0  0
    7.0079   10.1060   24.4523 H   0  0  0  0  0  0  0  0  0  0  0  0
    7.1862   11.5510   25.4448 H   0  0  0  0  0  0  0  0  0  0  0  0
   10.6826    9.5454   23.9119 H   0  0  0  0  0  0  0  0  0  0  0  0
    9.0770    8.9190   23.5452 H   0  0  0  0  0  0  0  0  0  0  0  0
    7.5412   10.1985   21.9586 H   0  0  0  0  0  0  0  0  0  0  0  0
    8.0879   11.7072   21.2305 H   0  0  0  0  0  0  0  0  0  0  0  0
    9.5094   12.4448   25.9846 H   0  0  0  0  0  0  0  0  0  0  0  0
   10.9369   11.6258   25.3585 H   0  0  0  0  0  0  0  0  0  0  0  0
    8.3307   13.7974   22.6657 H   0  0  0  0  0  0  0  0  0  0  0  0
    7.9626   13.7335   24.3864 H   0  0  0  0  0  0  0  0  0  0  0  0
   11.4743   11.7193   22.8463 H   0  0  0  0  0  0  0  0  0  0  0  0
   10.4142   12.6019   21.7518 H   0  0  0  0  0  0  0  0  0  0  0  0
    9.1074    9.9955   25.7961 H   0  0  0  0  0  0  0  0  0  0  0  0
    6.5150   12.1556   23.1171 H   0  0  0  0  0  0  0  0  0  0  0  0
   10.0081   10.1516   21.5857 H   0  0  0  0  0  0  0  0  0  0  0  0
   11.5829   13.7775   24.6234 H   0  0  0  0  0  0  0  0  0  0  0  0
   10.0986   14.7302   24.6990 H   0  0  0  0  0  0  0  0  0  0  0  0
  1 14  1  0  0  0  0
  1 17  3  0  0  0  0
  2  3  1  0  0  0  0
  2  4  1  0  0  0  0
  3 14  1  0  0  0  0
  4 14  1  0  0  0  0
  5 11  1  0  0  0  0
  5 12  1  0  0  0  0
  6 11  1  0  0  0  0
  6 13  1  0  0  0  0
  7 12  1  0  0  0  0
  7 13  1  0  0  0  0
  8 11  1  0  0  0  0
  8 15  1  0  0  0  0
  9 12  1  0  0  0  0
  9 15  1  0  0  0  0
 10 13  1  0  0  0  0
 10 15  1  0  0  0  0
 14 16  1  0  0  0  0
 15 16  1  0  0  0  0
  2 18  1  0  0  0  0
  2 19  1  0  0  0  0
  3 20  1  0  0  0  0
  3 21  1  0  0  0  0
  4 22  1  0  0  0  0
  4 23  1  0  0  0  0
  5 24  1  0  0  0  0
  5 25  1  0  0  0  0
  6 26  1  0  0  0  0
  6 27  1  0  0  0  0
  7 28  1  0  0  0  0
  7 29  1  0  0  0  0
  8 30  1  0  0  0  0
  8 31  1  0  0  0  0
  9 32  1  0  0  0  0
  9 33  1  0  0  0  0
 10 34  1  0  0  0  0
 10 35  1  0  0  0  0
 11 36  1  0  0  0  0
 12 37  1  0  0  0  0
 13 38  1  0  0  0  0
 16 39  1  0  0  0  0
 16 40  1  0  0  0  0
M  END
> <id>
EN300-1797839

> <smiles>
N#CC1(CC2(CC3CC4CC(C3)C2)C4)CCC1

> <IUPAC Name>
1-[(adamantan-1-yl)methyl]cyclobutane-1-carbonitrile

> <CAS>
2228482-25-3

> <URL>
https://www.enaminestore.com/catalog/EN300-1797839

> <ROCS_ShapeQuery>
x0446_0A_x1080_0A_x0929_0A_x0812_0A_x0719_0A_x1140_0A_x0528_0A_x0310_0A

> <ROCS_TanimotoCombo>
0.426 

> <ROCS_ShapeTanimoto>
0.229 

> <ROCS_ColorTanimoto>
0.197 

> <ROCS_RefTversky>
0.208 

> <ROCS_RefColorTversky>
0.210 

> <ROCS_RefTverskyCombo>
0.418 

> <ROCS_FitTversky>
1.821 

> <ROCS_FitColorTversky>
0.758 

> <ROCS_FitTverskyCombo>
2.578 

> <ROCS_ColorScore>
-7.504

> <ROCS_Overlap>
2452.617

> <ROCS_Rank>
113                 

$$$$
untitled-dbase-261900_2
  -OEChem-02082415563D

 46 48  0     0  0  0  0  0  0999 V2000
   11.1740   13.4727   23.0053 C   0  0  0  0  0  0  0  0  0  0  0  0
    7.0961   12.8493   22.7989 C   0  0  0  0  0  0  0  0  0  0  0  0
    8.3504   13.5404   24.8721 C   0  0  0  0  0  0  0  0  0  0  0  0
   10.0391   10.9485   24.4490 C   0  0  0  0  0  0  0  0  0  0  0  0
    9.0066   10.3786   22.7347 C   0  0  0  0  0  0  0  0  0  0  0  0
    5.8626   13.4929   23.4254 C   0  0  0  0  0  0  0  0  0  0  0  0
    7.0395   14.1419   25.3699 C   0  0  0  0  0  0  0  0  0  0  0  0
    9.3700   11.7870   23.3098 C   0  0  0  0  0  0  0  0  0  0  0  0
    8.0915   12.4084   23.8750 C   0  0  0  0  0  0  0  0  0  0  0  0
    8.6298   10.2371   24.2721 C   0  0  0  0  0  0  0  0  0  0  0  0
   12.2291   16.1251   23.0403 C   0  0  0  0  0  0  0  0  0  0  0  0
   12.7536   15.7497   20.6127 C   0  0  0  0  0  0  0  0  0  0  0  0
   10.3689   15.6993   21.3993 C   0  0  0  0  0  0  0  0  0  0  0  0
    8.3471    8.9006   24.8868 C   0  0  0  0  0  0  0  0  0  0  0  0
   11.8195   15.3887   21.7656 C   0  0  0  0  0  0  0  0  0  0  0  0
   10.3139   12.5160   22.5043 N   0  0  0  0  0  0  0  0  0  0  0  0
   11.2484   13.8228   24.1785 O   0  0  0  0  0  0  0  0  0  0  0  0
    6.2332   14.5751   24.2766 O   0  0  0  0  0  0  0  0  0  0  0  0
    7.5957   11.2360   24.5642 O   0  0  0  0  0  0  0  0  0  0  0  0
    7.2364    8.2969   24.2292 O   0  0  0  0  0  0  0  0  0  0  0  0
   11.9405   13.9802   21.9942 O   0  0  0  0  0  0  0  0  0  0  0  0
    6.7660   12.0101   22.1788 H   0  0  0  0  0  0  0  0  0  0  0  0
    7.5773   13.5813   22.1390 H   0  0  0  0  0  0  0  0  0  0  0  0
    8.9343   14.3284   24.3812 H   0  0  0  0  0  0  0  0  0  0  0  0
    8.9206   13.1975   25.7411 H   0  0  0  0  0  0  0  0  0  0  0  0
   10.9310   10.3644   24.1937 H   0  0  0  0  0  0  0  0  0  0  0  0
   10.2065   11.4402   25.4098 H   0  0  0  0  0  0  0  0  0  0  0  0
    8.1718   10.3174   22.0333 H   0  0  0  0  0  0  0  0  0  0  0  0
    9.8265    9.7541   22.3609 H   0  0  0  0  0  0  0  0  0  0  0  0
    5.2153   13.8944   22.6391 H   0  0  0  0  0  0  0  0  0  0  0  0
    5.2744   12.7633   23.9944 H   0  0  0  0  0  0  0  0  0  0  0  0
    6.4755   13.4263   25.9797 H   0  0  0  0  0  0  0  0  0  0  0  0
    7.2476   15.0148   25.9969 H   0  0  0  0  0  0  0  0  0  0  0  0
   11.5610   15.8687   23.8702 H   0  0  0  0  0  0  0  0  0  0  0  0
   13.2561   15.8836   23.3333 H   0  0  0  0  0  0  0  0  0  0  0  0
   12.1534   17.2102   22.9065 H   0  0  0  0  0  0  0  0  0  0  0  0
   12.4634   15.2236   19.6961 H   0  0  0  0  0  0  0  0  0  0  0  0
   13.7822   15.4418   20.8327 H   0  0  0  0  0  0  0  0  0  0  0  0
   12.7494   16.8257   20.4110 H   0  0  0  0  0  0  0  0  0  0  0  0
   10.0748   15.1712   20.4850 H   0  0  0  0  0  0  0  0  0  0  0  0
    9.6803   15.4125   22.2007 H   0  0  0  0  0  0  0  0  0  0  0  0
   10.2390   16.7681   21.1944 H   0  0  0  0  0  0  0  0  0  0  0  0
    8.1014    8.9957   25.9545 H   0  0  0  0  0  0  0  0  0  0  0  0
    9.2098    8.2253   24.7898 H   0  0  0  0  0  0  0  0  0  0  0  0
   10.3493   12.3148   21.5084 H   0  0  0  0  0  0  0  0  0  0  0  0
    7.0930    7.4396   24.6595 H   0  0  0  0  0  0  0  0  0  0  0  0
  1 16  1  0  0  0  0
  1 17  2  0  0  0  0
  1 21  1  0  0  0  0
  2  6  1  0  0  0  0
  2  9  1  0  0  0  0
  3  7  1  0  0  0  0
  3  9  1  0  0  0  0
  4  8  1  0  0  0  0
  4 10  1  0  0  0  0
  5  8  1  0  0  0  0
  5 10  1  0  0  0  0
  6 18  1  0  0  0  0
  7 18  1  0  0  0  0
  8  9  1  0  0  0  0
  8 16  1  0  0  0  0
  9 19  1  0  0  0  0
 10 14  1  0  0  0  0
 10 19  1  0  0  0  0
 11 15  1  0  0  0  0
 12 15  1  0  0  0  0
 13 15  1  0  0  0  0
 14 20  1  0  0  0  0
 15 21  1  0  0  0  0
  2 22  1  0  0  0  0
  2 23  1  0  0  0  0
  3 24  1  0  0  0  0
  3 25  1  0  0  0  0
  4 26  1  0  0  0  0
  4 27  1  0  0  0  0
  5 28  1  0  0  0  0
  5 29  1  0  0  0  0
  6 30  1  0  0  0  0
  6 31  1  0  0  0  0
  7 32  1  0  0  0  0
  7 33  1  0  0  0  0
 11 34  1  0  0  0  0
 11 35  1  0  0  0  0
 11 36  1  0  0  0  0
 12 37  1  0  0  0  0
 12 38  1  0  0  0  0
 12 39  1  0  0  0  0
 13 40  1  0  0  0  0
 13 41  1  0  0  0  0
 13 42  1  0  0  0  0
 14 43  1  0  0  0  0
 14 44  1  0  0  0  0
 16 45  1  0  0  0  0
 20 46  1  0  0  0  0
M  END
> <id>
EN300-7548427

> <smiles>
CC(C)(C)OC(=O)NC1(CC2(CO)C1)C3(CCOCC3)O2

> <IUPAC Name>
tert-butyl N-[4-(hydroxymethyl)-3-oxaspiro[bicyclo[2.1.1]hexane-2,4'-oxane]-1-yl]carbamate

> <CAS>
2408958-33-6

> <URL>
https://www.enaminestore.com/catalog/EN300-7548427

> <ROCS_ShapeQuery>
x0446_0A_x1080_0A_x0929_0A_x0812_0A_x0719_0A_x1140_0A_x0528_0A_x0310_0A

> <ROCS_TanimotoCombo>
0.426 

> <ROCS_ShapeTanimoto>
0.259 

> <ROCS_ColorTanimoto>
0.167 

> <ROCS_RefTversky>
0.232 

> <ROCS_RefColorTversky>
0.206 

> <ROCS_RefTverskyCombo>
0.438 

> <ROCS_FitTversky>
1.807 

> <ROCS_FitColorTversky>
0.469 

> <ROCS_FitTverskyCombo>
2.276 

> <ROCS_ColorScore>
-7.438

> <ROCS_Overlap>
2738.721

> <ROCS_Rank>
114                 

$$$$
untitled-dbase-262690_0
  -OEChem-02082415563D

 28 29  0     1  0  0  0  0  0999 V2000
    6.4101   13.3209   25.2676 C   0  0  0  0  0  0  0  0  0  0  0  0
    5.7639   12.0772   25.5545 C   0  0  0  0  0  0  0  0  0  0  0  0
    7.6352   13.4300   24.5803 C   0  0  0  0  0  0  0  0  0  0  0  0
    6.2826   10.8182   25.1801 C   0  0  0  0  0  0  0  0  0  0  0  0
    8.1189   12.1769   24.2262 C   0  0  0  0  0  0  0  0  0  0  0  0
    7.5070   10.8968   24.4913 C   0  0  0  0  0  0  0  0  0  0  0  0
    9.2818   11.9333   23.5519 C   0  0  0  0  0  0  0  0  0  0  0  0
    8.8138   14.0814   21.3953 C   0  0  0  0  0  0  0  0  0  0  0  0
   10.3728    9.8032   22.7984 C   0  0  0  0  0  0  0  0  0  0  0  0
   10.0960   13.2972   21.5610 C   0  0  0  0  0  0  0  0  0  0  0  0
   10.3303   12.8210   23.0146 C   0  0  1  0  0  0  0  0  0  0  0  0
    8.2871    9.9242   23.9873 N   0  0  0  0  0  0  0  0  0  0  0  0
    9.3310   10.5746   23.4376 N   0  0  0  0  0  0  0  0  0  0  0  0
    7.7299   13.5725   21.1398 O   0  0  0  0  0  0  0  0  0  0  0  0
    8.9910   15.4160   21.5563 O   0  0  0  0  0  0  0  0  0  0  0  0
   10.5455   13.9910   23.8270 O   0  0  0  0  0  0  0  0  0  0  0  0
    5.9230   14.2365   25.6022 H   0  0  0  0  0  0  0  0  0  0  0  0
    4.8171   12.1060   26.0930 H   0  0  0  0  0  0  0  0  0  0  0  0
    8.1103   14.3783   24.3716 H   0  0  0  0  0  0  0  0  0  0  0  0
    5.7774    9.8888   25.4072 H   0  0  0  0  0  0  0  0  0  0  0  0
   11.1276    9.5657   23.5526 H   0  0  0  0  0  0  0  0  0  0  0  0
    9.9447    8.8862   22.3840 H   0  0  0  0  0  0  0  0  0  0  0  0
   10.8124   10.3913   21.9879 H   0  0  0  0  0  0  0  0  0  0  0  0
   10.9202   13.9490   21.2458 H   0  0  0  0  0  0  0  0  0  0  0  0
   10.0719   12.4618   20.8506 H   0  0  0  0  0  0  0  0  0  0  0  0
   11.3082   12.2962   23.0286 H   0  0  0  0  0  0  0  0  0  0  0  0
    8.1790   15.9568   21.4529 H   0  0  0  0  0  0  0  0  0  0  0  0
   11.2431   14.4909   23.3849 H   0  0  0  0  0  0  0  0  0  0  0  0
  1  2  1  0  0  0  0
  1  3  2  0  0  0  0
  2  4  2  0  0  0  0
  3  5  1  0  0  0  0
  4  6  1  0  0  0  0
  5  6  1  0  0  0  0
  5  7  2  0  0  0  0
  6 12  2  0  0  0  0
  7 11  1  0  0  0  0
  7 13  1  0  0  0  0
  8 10  1  0  0  0  0
  8 14  2  0  0  0  0
  8 15  1  0  0  0  0
  9 13  1  0  0  0  0
 10 11  1  0  0  0  0
 11 16  1  1  0  0  0
 12 13  1  0  0  0  0
  1 17  1  0  0  0  0
  2 18  1  0  0  0  0
  3 19  1  0  0  0  0
  4 20  1  0  0  0  0
  9 21  1  0  0  0  0
  9 22  1  0  0  0  0
  9 23  1  0  0  0  0
 10 24  1  0  0  0  0
 10 25  1  0  0  0  0
 11 26  1  0  0  0  0
 15 27  1  0  0  0  0
 16 28  1  0  0  0  0
M  END
> <id>
EN300-1801953

> <smiles>
CN1N=C2C=CC=CC2=C1[C@H](O)CC(=O)O

> <IUPAC Name>
(3R)-3-hydroxy-3-(2-methyl-2H-indazol-3-yl)propanoic acid

> <CAS>
2227730-09-6

> <URL>
https://www.enaminestore.com/catalog/EN300-1801953

> <ROCS_ShapeQuery>
x0446_0A_x1080_0A_x0929_0A_x0812_0A_x0719_0A_x1140_0A_x0528_0A_x0310_0A

> <ROCS_TanimotoCombo>
0.426 

> <ROCS_ShapeTanimoto>
0.233 

> <ROCS_ColorTanimoto>
0.192 

> <ROCS_RefTversky>
0.210 

> <ROCS_RefColorTversky>
0.204 

> <ROCS_RefTverskyCombo>
0.414 

> <ROCS_FitTversky>
1.899 

> <ROCS_FitColorTversky>
0.768 

> <ROCS_FitTverskyCombo>
2.667 

> <ROCS_ColorScore>
-7.293

> <ROCS_Overlap>
2480.768

> <ROCS_Rank>
115                 

$$$$
untitled-dbase-7327_0
  -OEChem-02082415563D

 40 43  0     0  0  0  0  0  0999 V2000
   13.2546   14.8324   21.4860 C   0  0  0  0  0  0  0  0  0  0  0  0
   11.8797   14.4890   21.3377 C   0  0  0  0  0  0  0  0  0  0  0  0
   13.4592   15.7107   22.5273 C   0  0  0  0  0  0  0  0  0  0  0  0
   11.0858   15.1179   22.2716 C   0  0  0  0  0  0  0  0  0  0  0  0
    9.6258   15.0284   22.4542 C   0  0  0  0  0  0  0  0  0  0  0  0
    9.3619   10.2743   24.7376 C   0  0  0  0  0  0  0  0  0  0  0  0
    8.9239   10.4271   22.2733 C   0  0  0  0  0  0  0  0  0  0  0  0
    7.0305   10.6629   23.9003 C   0  0  0  0  0  0  0  0  0  0  0  0
   10.1621   12.2678   23.4431 C   0  0  0  0  0  0  0  0  0  0  0  0
    8.2645   12.5041   25.0738 C   0  0  0  0  0  0  0  0  0  0  0  0
    7.8252   12.6572   22.6041 C   0  0  0  0  0  0  0  0  0  0  0  0
    9.9315   10.7474   23.3899 C   0  0  0  0  0  0  0  0  0  0  0  0
    8.0286   10.9844   25.0250 C   0  0  0  0  0  0  0  0  0  0  0  0
    7.5884   11.1378   22.5484 C   0  0  0  0  0  0  0  0  0  0  0  0
    8.8324   13.0066   23.7253 C   0  0  0  0  0  0  0  0  0  0  0  0
    9.0657   14.5188   23.7776 C   0  0  0  0  0  0  0  0  0  0  0  0
    8.8652   15.3925   21.4619 N   0  0  0  0  0  0  0  0  0  0  0  0
    9.6050   15.8196   20.3589 O   0  0  0  0  0  0  0  0  0  0  0  0
   11.9974   16.1178   23.3211 S   0  0  0  0  0  0  0  0  0  0  0  0
   14.0527   14.4553   20.8600 H   0  0  0  0  0  0  0  0  0  0  0  0
   11.4979   13.8138   20.5823 H   0  0  0  0  0  0  0  0  0  0  0  0
   14.3970   16.1334   22.8591 H   0  0  0  0  0  0  0  0  0  0  0  0
    9.2112    9.1879   24.7197 H   0  0  0  0  0  0  0  0  0  0  0  0
   10.0786   10.4829   25.5414 H   0  0  0  0  0  0  0  0  0  0  0  0
    9.3254   10.7457   21.3035 H   0  0  0  0  0  0  0  0  0  0  0  0
    8.7655    9.3433   22.2116 H   0  0  0  0  0  0  0  0  0  0  0  0
    6.8385    9.5833   23.8676 H   0  0  0  0  0  0  0  0  0  0  0  0
    6.0690   11.1512   24.1013 H   0  0  0  0  0  0  0  0  0  0  0  0
   10.8989   12.5014   24.2224 H   0  0  0  0  0  0  0  0  0  0  0  0
   10.5912   12.6086   22.4920 H   0  0  0  0  0  0  0  0  0  0  0  0
    7.3208   13.0161   25.3024 H   0  0  0  0  0  0  0  0  0  0  0  0
    8.9580   12.7431   25.8903 H   0  0  0  0  0  0  0  0  0  0  0  0
    8.2009   13.0073   21.6338 H   0  0  0  0  0  0  0  0  0  0  0  0
    6.8716   13.1724   22.7768 H   0  0  0  0  0  0  0  0  0  0  0  0
   10.8801   10.2367   23.1897 H   0  0  0  0  0  0  0  0  0  0  0  0
    7.6266   10.6420   25.9851 H   0  0  0  0  0  0  0  0  0  0  0  0
    6.8742   10.9043   21.7509 H   0  0  0  0  0  0  0  0  0  0  0  0
    9.7367   14.7600   24.6031 H   0  0  0  0  0  0  0  0  0  0  0  0
    8.1214   15.0192   24.0020 H   0  0  0  0  0  0  0  0  0  0  0  0
    8.9016   16.0480   19.7281 H   0  0  0  0  0  0  0  0  0  0  0  0
  1  2  1  0  0  0  0
  1  3  2  0  0  0  0
  2  4  2  0  0  0  0
  3 19  1  0  0  0  0
  4  5  1  0  0  0  0
  4 19  1  0  0  0  0
  5 16  1  0  0  0  0
  5 17  2  0  0  0  0
  6 12  1  0  0  0  0
  6 13  1  0  0  0  0
  7 12  1  0  0  0  0
  7 14  1  0  0  0  0
  8 13  1  0  0  0  0
  8 14  1  0  0  0  0
  9 12  1  0  0  0  0
  9 15  1  0  0  0  0
 10 13  1  0  0  0  0
 10 15  1  0  0  0  0
 11 14  1  0  0  0  0
 11 15  1  0  0  0  0
 15 16  1  0  0  0  0
 17 18  1  4  0  0  0
  1 20  1  0  0  0  0
  2 21  1  0  0  0  0
  3 22  1  0  0  0  0
  6 23  1  0  0  0  0
  6 24  1  0  0  0  0
  7 25  1  0  0  0  0
  7 26  1  0  0  0  0
  8 27  1  0  0  0  0
  8 28  1  0  0  0  0
  9 29  1  0  0  0  0
  9 30  1  0  0  0  0
 10 31  1  0  0  0  0
 10 32  1  0  0  0  0
 11 33  1  0  0  0  0
 11 34  1  0  0  0  0
 12 35  1  0  0  0  0
 13 36  1  0  0  0  0
 14 37  1  0  0  0  0
 16 38  1  0  0  0  0
 16 39  1  0  0  0  0
 18 40  1  0  0  0  0
M  END
> <id>
EN300-07554

> <smiles>
ON=C(CC1(CC2CC3CC(C2)C1)C3)C4=CC=CS4

> <IUPAC Name>
N-[2-(adamantan-1-yl)-1-(thiophen-2-yl)ethylidene]hydroxylamine

> <CAS>
851169-27-2

> <URL>
https://www.enaminestore.com/catalog/EN300-07554

> <ROCS_ShapeQuery>
x0446_0A_x1080_0A_x0929_0A_x0812_0A_x0719_0A_x1140_0A_x0528_0A_x0310_0A

> <ROCS_TanimotoCombo>
0.426 

> <ROCS_ShapeTanimoto>
0.230 

> <ROCS_ColorTanimoto>
0.196 

> <ROCS_RefTversky>
0.209 

> <ROCS_RefColorTversky>
0.213 

> <ROCS_RefTverskyCombo>
0.423 

> <ROCS_FitTversky>
1.740 

> <ROCS_FitColorTversky>
0.704 

> <ROCS_FitTverskyCombo>
2.443 

> <ROCS_ColorScore>
-7.637

> <ROCS_Overlap>
2473.051

> <ROCS_Rank>
116                 

$$$$
untitled-dbase-510514_0
  -OEChem-02082415563D

 36 38  0     1  0  0  0  0  0999 V2000
    6.2045   10.6692   25.2756 C   0  0  0  0  0  0  0  0  0  0  0  0
   10.2771   14.6234   21.6646 C   0  0  0  0  0  0  0  0  0  0  0  0
   10.3670   11.0515   24.2526 C   0  0  0  0  0  0  0  0  0  0  0  0
    9.1113   10.7505   22.1009 C   0  0  0  0  0  0  0  0  0  0  0  0
    8.2309    9.7372   24.2185 C   0  0  0  0  0  0  0  0  0  0  0  0
    8.3066   11.9887   25.3277 C   0  0  0  0  0  0  0  0  0  0  0  0
    7.0467   11.6842   23.1722 C   0  0  0  0  0  0  0  0  0  0  0  0
    9.5064   10.0788   23.4277 C   0  0  0  0  0  0  0  0  0  0  0  0
    9.5818   12.3476   24.5391 C   0  0  2  0  0  0  0  0  0  0  0  0
    8.3164   12.0438   22.3738 C   0  0  1  0  0  0  0  0  0  0  0  0
    9.1627   13.0259   23.2152 C   0  0  0  0  0  0  0  0  0  0  0  0
    7.4439   11.0240   24.5018 C   0  0  0  0  0  0  0  0  0  0  0  0
   11.6050   14.8874   21.0182 C   0  0  0  0  0  0  0  0  0  0  0  0
   10.3097   13.5039   22.4778 N   0  0  0  0  0  0  0  0  0  0  0  0
    5.8890    9.5386   25.6156 O   0  0  0  0  0  0  0  0  0  0  0  0
    9.3016   15.3414   21.4639 O   0  0  0  0  0  0  0  0  0  0  0  0
    5.4751   11.7791   25.5464 O   0  0  0  0  0  0  0  0  0  0  0  0
   12.5358   13.9676   21.3786 F   0  0  0  0  0  0  0  0  0  0  0  0
   12.1021   16.1049   21.3549 F   0  0  0  0  0  0  0  0  0  0  0  0
   11.5275   14.8567   19.6635 F   0  0  0  0  0  0  0  0  0  0  0  0
   10.6595   10.5786   25.1984 H   0  0  0  0  0  0  0  0  0  0  0  0
   11.2960   11.2780   23.7159 H   0  0  0  0  0  0  0  0  0  0  0  0
   10.0085   10.9703   21.5101 H   0  0  0  0  0  0  0  0  0  0  0  0
    8.5032   10.0613   21.5018 H   0  0  0  0  0  0  0  0  0  0  0  0
    7.6177    9.0250   23.6508 H   0  0  0  0  0  0  0  0  0  0  0  0
    8.4971    9.2327   25.1568 H   0  0  0  0  0  0  0  0  0  0  0  0
    8.5802   11.5363   26.2901 H   0  0  0  0  0  0  0  0  0  0  0  0
    7.7438   12.9006   25.5668 H   0  0  0  0  0  0  0  0  0  0  0  0
    6.4499   12.5876   23.3546 H   0  0  0  0  0  0  0  0  0  0  0  0
    6.4124   11.0120   22.5795 H   0  0  0  0  0  0  0  0  0  0  0  0
   10.0722    9.1626   23.2256 H   0  0  0  0  0  0  0  0  0  0  0  0
   10.1955   13.0304   25.1386 H   0  0  0  0  0  0  0  0  0  0  0  0
    8.0250   12.5095   21.4249 H   0  0  0  0  0  0  0  0  0  0  0  0
    8.5681   13.9208   23.4369 H   0  0  0  0  0  0  0  0  0  0  0  0
   11.1837   12.9927   22.5603 H   0  0  0  0  0  0  0  0  0  0  0  0
    4.6601   11.5681   26.0498 H   0  0  0  0  0  0  0  0  0  0  0  0
  1 12  1  0  0  0  0
  1 15  2  0  0  0  0
  1 17  1  0  0  0  0
  2 13  1  0  0  0  0
  2 14  1  0  0  0  0
  2 16  2  0  0  0  0
  3  8  1  0  0  0  0
  3  9  1  0  0  0  0
  4  8  1  0  0  0  0
  4 10  1  0  0  0  0
  5  8  1  0  0  0  0
  5 12  1  0  0  0  0
  6  9  1  0  0  0  0
  6 12  1  0  0  0  0
  7 10  1  0  0  0  0
  7 12  1  0  0  0  0
  9 11  1  0  0  0  0
 10 11  1  0  0  0  0
 11 14  1  0  0  0  0
 13 18  1  0  0  0  0
 13 19  1  0  0  0  0
 13 20  1  0  0  0  0
  3 21  1  0  0  0  0
  3 22  1  0  0  0  0
  4 23  1  0  0  0  0
  4 24  1  0  0  0  0
  5 25  1  0  0  0  0
  5 26  1  0  0  0  0
  6 27  1  0  0  0  0
  6 28  1  0  0  0  0
  7 29  1  0  0  0  0
  7 30  1  0  0  0  0
  8 31  1  0  0  0  0
  9 32  1  0  0  0  0
 10 33  1  0  0  0  0
 11 34  1  0  0  0  0
 14 35  1  0  0  0  0
 17 36  1  0  0  0  0
M  END
> <id>
EN300-28288402

> <smiles>
OC(=O)C1(CC2CC3C1)CC(C2)C3NC(=O)C(F)(F)F

> <IUPAC Name>
4-(2,2,2-trifluoroacetamido)adamantane-1-carboxylic acid

> <CAS>
2680904-32-7

> <URL>
https://www.enaminestore.com/catalog/EN300-28288402

> <ROCS_ShapeQuery>
x0446_0A_x1080_0A_x0929_0A_x0812_0A_x0719_0A_x1140_0A_x0528_0A_x0310_0A

> <ROCS_TanimotoCombo>
0.426 

> <ROCS_ShapeTanimoto>
0.235 

> <ROCS_ColorTanimoto>
0.190 

> <ROCS_RefTversky>
0.214 

> <ROCS_RefColorTversky>
0.217 

> <ROCS_RefTverskyCombo>
0.431 

> <ROCS_FitTversky>
1.700 

> <ROCS_FitColorTversky>
0.610 

> <ROCS_FitTverskyCombo>
2.310 

> <ROCS_ColorScore>
-7.784

> <ROCS_Overlap>
2532.170

> <ROCS_Rank>
117                 

$$$$
untitled-dbase-563093_1
  -OEChem-02082415563D

 53 57  0     0  0  0  0  0  0999 V2000
    9.7071    8.8033   21.9588 C   0  0  0  0  0  0  0  0  0  0  0  0
    5.5724   11.5849   25.2682 C   0  0  0  0  0  0  0  0  0  0  0  0
    3.5099   10.9481   19.2203 C   0  0  0  0  0  0  0  0  0  0  0  0
   10.8619    9.6021   21.9185 C   0  0  0  0  0  0  0  0  0  0  0  0
    6.1064   12.8014   25.7245 C   0  0  0  0  0  0  0  0  0  0  0  0
    2.3874   11.2248   20.0007 C   0  0  0  0  0  0  0  0  0  0  0  0
    8.5741    9.2145   22.6668 C   0  0  0  0  0  0  0  0  0  0  0  0
    6.3277   10.7257   24.4648 C   0  0  0  0  0  0  0  0  0  0  0  0
    4.5461   11.8779   19.1345 C   0  0  0  0  0  0  0  0  0  0  0  0
   10.9059   10.8286   22.5839 C   0  0  0  0  0  0  0  0  0  0  0  0
    7.4055   13.1835   25.3852 C   0  0  0  0  0  0  0  0  0  0  0  0
    2.3011   12.4314   20.6953 C   0  0  0  0  0  0  0  0  0  0  0  0
    8.6172   10.4317   23.3272 C   0  0  0  0  0  0  0  0  0  0  0  0
    7.6170   11.1045   24.1276 C   0  0  0  0  0  0  0  0  0  0  0  0
    4.4599   13.0844   19.8290 C   0  0  0  0  0  0  0  0  0  0  0  0
    9.7788   11.2350   23.2797 C   0  0  0  0  0  0  0  0  0  0  0  0
    8.1487   12.3317   24.5842 C   0  0  0  0  0  0  0  0  0  0  0  0
    3.3374   13.3612   20.6094 C   0  0  0  0  0  0  0  0  0  0  0  0
    5.3663   15.2938   19.2323 C   0  0  0  0  0  0  0  0  0  0  0  0
    5.5756   14.0564   19.7213 C   0  0  0  0  0  0  0  0  0  0  0  0
    8.8305   14.8206   21.3290 C   0  0  0  0  0  0  0  0  0  0  0  0
    6.4577   16.3120   19.0840 C   0  0  0  0  0  0  0  0  0  0  0  0
    6.9417   13.5949   20.1779 C   0  0  0  0  0  0  0  0  0  0  0  0
    7.8492   15.7081   19.2333 C   0  0  0  0  0  0  0  0  0  0  0  0
    9.5766   12.5089   24.0878 C   0  0  0  0  0  0  0  0  0  0  0  0
    9.7558   13.7697   23.2518 C   0  0  0  0  0  0  0  0  0  0  0  0
    7.8752   14.7232   20.3113 N   0  0  0  0  0  0  0  0  0  0  0  0
    9.6176   15.7572   21.4539 O   0  0  0  0  0  0  0  0  0  0  0  0
    3.2267   14.5332   21.2978 O   0  0  0  0  0  0  0  0  0  0  0  0
    8.8034   13.7492   22.1823 O   0  0  0  0  0  0  0  0  0  0  0  0
    9.6964    7.8517   21.4337 H   0  0  0  0  0  0  0  0  0  0  0  0
    4.5584   11.3081   25.5450 H   0  0  0  0  0  0  0  0  0  0  0  0
    3.5759   10.0091   18.6786 H   0  0  0  0  0  0  0  0  0  0  0  0
   11.7310    9.2581   21.3639 H   0  0  0  0  0  0  0  0  0  0  0  0
    5.4993   13.4505   26.3500 H   0  0  0  0  0  0  0  0  0  0  0  0
    1.5811   10.5004   20.0666 H   0  0  0  0  0  0  0  0  0  0  0  0
    7.6900    8.5860   22.6901 H   0  0  0  0  0  0  0  0  0  0  0  0
    5.9023    9.7885   24.1216 H   0  0  0  0  0  0  0  0  0  0  0  0
    5.4135   11.6466   18.5206 H   0  0  0  0  0  0  0  0  0  0  0  0
   11.8010   11.4399   22.5538 H   0  0  0  0  0  0  0  0  0  0  0  0
    7.8154   14.1213   25.7439 H   0  0  0  0  0  0  0  0  0  0  0  0
    1.4239   12.6400   21.3019 H   0  0  0  0  0  0  0  0  0  0  0  0
    4.3686   15.6023   18.9290 H   0  0  0  0  0  0  0  0  0  0  0  0
    6.3769   16.7898   18.1013 H   0  0  0  0  0  0  0  0  0  0  0  0
    6.3064   17.0929   19.8386 H   0  0  0  0  0  0  0  0  0  0  0  0
    6.8533   13.0678   21.1330 H   0  0  0  0  0  0  0  0  0  0  0  0
    7.3702   12.9006   19.4459 H   0  0  0  0  0  0  0  0  0  0  0  0
    8.1394   15.1844   18.3138 H   0  0  0  0  0  0  0  0  0  0  0  0
    8.5859   16.5007   19.4000 H   0  0  0  0  0  0  0  0  0  0  0  0
   10.2586   12.5017   24.9463 H   0  0  0  0  0  0  0  0  0  0  0  0
   10.7632   13.8019   22.8346 H   0  0  0  0  0  0  0  0  0  0  0  0
    9.5858   14.6542   23.8670 H   0  0  0  0  0  0  0  0  0  0  0  0
    2.3874   14.5575   21.7826 H   0  0  0  0  0  0  0  0  0  0  0  0
  1  4  1  0  0  0  0
  1  7  2  0  0  0  0
  2  5  1  0  0  0  0
  2  8  2  0  0  0  0
  3  6  1  0  0  0  0
  3  9  2  0  0  0  0
  4 10  2  0  0  0  0
  5 11  2  0  0  0  0
  6 12  2  0  0  0  0
  7 13  1  0  0  0  0
  8 14  1  0  0  0  0
  9 15  1  0  0  0  0
 10 16  1  0  0  0  0
 11 17  1  0  0  0  0
 12 18  1  0  0  0  0
 13 14  1  0  0  0  0
 13 16  2  0  0  0  0
 14 17  2  0  0  0  0
 15 18  2  0  0  0  0
 15 20  1  0  0  0  0
 16 25  1  0  0  0  0
 17 25  1  0  0  0  0
 18 29  1  0  0  0  0
 19 20  2  0  0  0  0
 19 22  1  0  0  0  0
 20 23  1  0  0  0  0
 21 27  1  0  0  0  0
 21 28  2  0  0  0  0
 21 30  1  0  0  0  0
 22 24  1  0  0  0  0
 23 27  1  0  0  0  0
 24 27  1  0  0  0  0
 25 26  1  0  0  0  0
 26 30  1  0  0  0  0
  1 31  1  0  0  0  0
  2 32  1  0  0  0  0
  3 33  1  0  0  0  0
  4 34  1  0  0  0  0
  5 35  1  0  0  0  0
  6 36  1  0  0  0  0
  7 37  1  0  0  0  0
  8 38  1  0  0  0  0
  9 39  1  0  0  0  0
 10 40  1  0  0  0  0
 11 41  1  0  0  0  0
 12 42  1  0  0  0  0
 19 43  1  0  0  0  0
 22 44  1  0  0  0  0
 22 45  1  0  0  0  0
 23 46  1  0  0  0  0
 23 47  1  0  0  0  0
 24 48  1  0  0  0  0
 24 49  1  0  0  0  0
 25 50  1  0  0  0  0
 26 51  1  0  0  0  0
 26 52  1  0  0  0  0
 29 53  1  0  0  0  0
M  END
> <id>
EN300-37389734

> <smiles>
OC=1C=CC=CC1C2=CCCN(C2)C(=O)OCC3C=4C=CC=CC4C=5C=CC=CC35

> <IUPAC Name>
(9H-fluoren-9-yl)methyl 5-(2-hydroxyphenyl)-1,2,3,6-tetrahydropyridine-1-carboxylate

> <CAS>
2763915-98-4

> <URL>
https://www.enaminestore.com/catalog/EN300-37389734

> <ROCS_ShapeQuery>
x0446_0A_x1080_0A_x0929_0A_x0812_0A_x0719_0A_x1140_0A_x0528_0A_x0310_0A

> <ROCS_TanimotoCombo>
0.426 

> <ROCS_ShapeTanimoto>
0.251 

> <ROCS_ColorTanimoto>
0.174 

> <ROCS_RefTversky>
0.234 

> <ROCS_RefColorTversky>
0.188 

> <ROCS_RefTverskyCombo>
0.422 

> <ROCS_FitTversky>
1.427 

> <ROCS_FitColorTversky>
0.707 

> <ROCS_FitTverskyCombo>
2.134 

> <ROCS_ColorScore>
-6.708

> <ROCS_Overlap>
2766.433

> <ROCS_Rank>
118                 

$$$$
untitled-dbase-292932_7
  -OEChem-02082415563D

 38 42  0     1  0  0  0  0  0999 V2000
    5.0028   18.4822   20.0793 C   0  0  0  0  0  0  0  0  0  0  0  0
    6.3701   18.7364   19.8422 C   0  0  0  0  0  0  0  0  0  0  0  0
    4.5876   17.3108   20.7195 C   0  0  0  0  0  0  0  0  0  0  0  0
    7.3523   17.8246   20.2402 C   0  0  0  0  0  0  0  0  0  0  0  0
    5.5720   16.4262   21.1069 C   0  0  0  0  0  0  0  0  0  0  0  0
    6.9224   16.6771   20.8727 C   0  0  0  0  0  0  0  0  0  0  0  0
    5.4619   15.1278   21.7796 C   0  0  0  0  0  0  0  0  0  0  0  0
    7.6915   15.5420   21.3927 C   0  0  0  0  0  0  0  0  0  0  0  0
    6.2388   11.1138   24.5893 C   0  0  0  0  0  0  0  0  0  0  0  0
    7.2823   13.7446   23.9498 C   0  0  0  0  0  0  0  0  0  0  0  0
   10.4518   11.5717   23.9206 C   0  0  0  0  0  0  0  0  0  0  0  0
    9.8277   10.2097   24.2548 C   0  0  0  0  0  0  0  0  0  0  0  0
    7.4252    9.3285   23.7100 C   0  0  0  0  0  0  0  0  0  0  0  0
    7.6913   11.4095   24.8757 C   0  0  2  0  0  0  0  0  0  0  0  0
    8.2845   12.7606   24.4719 C   0  0  1  0  0  0  0  0  0  0  0  0
    9.2597   12.3553   23.3561 C   0  0  2  0  0  0  0  0  0  0  0  0
    8.3749   10.4644   23.8982 C   0  0  1  0  0  0  0  0  0  0  0  0
    6.7509   14.7237   21.9355 N   0  0  0  0  0  0  0  0  0  0  0  0
    4.4182   14.6006   22.1105 O   0  0  0  0  0  0  0  0  0  0  0  0
    8.9003   15.4332   21.3323 O   0  0  0  0  0  0  0  0  0  0  0  0
    5.2860   11.7944   24.9371 O   0  0  0  0  0  0  0  0  0  0  0  0
    6.7348   14.5948   24.6392 O   0  0  0  0  0  0  0  0  0  0  0  0
    6.1296    9.9259   23.9104 O   0  0  0  0  0  0  0  0  0  0  0  0
    8.5134   11.2916   22.7205 O   0  0  0  0  0  0  0  0  0  0  0  0
    7.0900   13.5337   22.6157 O   0  0  0  0  0  0  0  0  0  0  0  0
    4.2622   19.2097   19.7569 H   0  0  0  0  0  0  0  0  0  0  0  0
    6.6618   19.6557   19.3409 H   0  0  0  0  0  0  0  0  0  0  0  0
    3.5370   17.1155   20.8987 H   0  0  0  0  0  0  0  0  0  0  0  0
    8.4020   18.0195   20.0552 H   0  0  0  0  0  0  0  0  0  0  0  0
   10.9079   12.0586   24.7876 H   0  0  0  0  0  0  0  0  0  0  0  0
   11.2230   11.4391   23.1537 H   0  0  0  0  0  0  0  0  0  0  0  0
   10.2657    9.4349   23.6155 H   0  0  0  0  0  0  0  0  0  0  0  0
    9.9734    9.9238   25.3006 H   0  0  0  0  0  0  0  0  0  0  0  0
    7.4587    8.9085   22.7011 H   0  0  0  0  0  0  0  0  0  0  0  0
    7.5501    8.5350   24.4530 H   0  0  0  0  0  0  0  0  0  0  0  0
    7.8970   11.1447   25.9187 H   0  0  0  0  0  0  0  0  0  0  0  0
    8.8094   13.2384   25.3062 H   0  0  0  0  0  0  0  0  0  0  0  0
    9.5250   13.1455   22.6493 H   0  0  0  0  0  0  0  0  0  0  0  0
  1  2  1  0  0  0  0
  1  3  2  0  0  0  0
  2  4  2  0  0  0  0
  3  5  1  0  0  0  0
  4  6  1  0  0  0  0
  5  6  2  0  0  0  0
  5  7  1  0  0  0  0
  6  8  1  0  0  0  0
  7 18  1  0  0  0  0
  7 19  2  0  0  0  0
  8 18  1  0  0  0  0
  8 20  2  0  0  0  0
  9 14  1  6  0  0  0
  9 21  2  0  0  0  0
  9 23  1  0  0  0  0
 10 15  1  6  0  0  0
 10 22  2  0  0  0  0
 10 25  1  0  0  0  0
 11 12  1  0  0  0  0
 11 16  1  0  0  0  0
 12 17  1  0  0  0  0
 13 17  1  0  0  0  0
 13 23  1  0  0  0  0
 14 15  1  0  0  0  0
 14 17  1  0  0  0  0
 15 16  1  0  0  0  0
 16 24  1  1  0  0  0
 17 24  1  6  0  0  0
 18 25  1  0  0  0  0
  1 26  1  0  0  0  0
  2 27  1  0  0  0  0
  3 28  1  0  0  0  0
  4 29  1  0  0  0  0
 11 30  1  0  0  0  0
 11 31  1  0  0  0  0
 12 32  1  0  0  0  0
 12 33  1  0  0  0  0
 13 34  1  0  0  0  0
 13 35  1  0  0  0  0
 14 36  1  0  0  0  0
 15 37  1  0  0  0  0
 16 38  1  0  0  0  0
M  END
> <id>
EN300-6525563

> <smiles>
O=C(ON1C(=O)C=2C=CC=CC2C1=O)[C@@H]3[C@H]4CC[C@]5(COC(=O)[C@H]35)O4 |&1:14,15,18,23,r|

> <IUPAC Name>
rac-1,3-dioxo-2,3-dihydro-1H-isoindol-2-yl (1R,5S,6R,7S)-4-oxo-3,10-dioxatricyclo[5.2.1.0,1,5]decane-6-carboxylate

> <CAS>
2248302-36-3

> <URL>
https://www.enaminestore.com/catalog/EN300-6525563

> <ROCS_ShapeQuery>
x0446_0A_x1080_0A_x0929_0A_x0812_0A_x0719_0A_x1140_0A_x0528_0A_x0310_0A

> <ROCS_TanimotoCombo>
0.425 

> <ROCS_ShapeTanimoto>
0.233 

> <ROCS_ColorTanimoto>
0.192 

> <ROCS_RefTversky>
0.218 

> <ROCS_RefColorTversky>
0.231 

> <ROCS_RefTverskyCombo>
0.448 

> <ROCS_FitTversky>
1.449 

> <ROCS_FitColorTversky>
0.533 

> <ROCS_FitTverskyCombo>
1.982 

> <ROCS_ColorScore>
-8.321

> <ROCS_Overlap>
2572.622

> <ROCS_Rank>
119                 

$$$$
untitled-dbase-6600_5
  -OEChem-02082415563D

 41 44  0     0  0  0  0  0  0999 V2000
   13.7938   15.2751   21.9685 C   0  0  0  0  0  0  0  0  0  0  0  0
   13.1618   15.9964   22.9813 C   0  0  0  0  0  0  0  0  0  0  0  0
   13.0402   14.4846   21.1007 C   0  0  0  0  0  0  0  0  0  0  0  0
   11.7762   15.9271   23.1266 C   0  0  0  0  0  0  0  0  0  0  0  0
   11.6547   14.4153   21.2459 C   0  0  0  0  0  0  0  0  0  0  0  0
   11.0226   15.1366   22.2588 C   0  0  0  0  0  0  0  0  0  0  0  0
    9.5593   15.0635   22.4123 C   0  0  0  0  0  0  0  0  0  0  0  0
    9.4008   10.3488   22.5938 C   0  0  0  0  0  0  0  0  0  0  0  0
    7.0683   10.6464   23.4650 C   0  0  0  0  0  0  0  0  0  0  0  0
    8.9811   10.3876   25.0656 C   0  0  0  0  0  0  0  0  0  0  0  0
    8.2482   12.5641   22.3605 C   0  0  0  0  0  0  0  0  0  0  0  0
   10.1654   12.3047   23.9647 C   0  0  0  0  0  0  0  0  0  0  0  0
    7.8279   12.6029   24.8381 C   0  0  0  0  0  0  0  0  0  0  0  0
    8.0487   11.0384   22.3471 C   0  0  0  0  0  0  0  0  0  0  0  0
    9.9710   10.7784   23.9557 C   0  0  0  0  0  0  0  0  0  0  0  0
    7.6269   11.0773   24.8313 C   0  0  0  0  0  0  0  0  0  0  0  0
    8.8163   13.0229   23.7244 C   0  0  0  0  0  0  0  0  0  0  0  0
    9.0137   14.5410   23.7341 C   0  0  0  0  0  0  0  0  0  0  0  0
    8.7867   15.4069   21.5154 O   0  0  0  0  0  0  0  0  0  0  0  0
   14.8726   15.3290   21.8555 H   0  0  0  0  0  0  0  0  0  0  0  0
   13.7487   16.6116   23.6570 H   0  0  0  0  0  0  0  0  0  0  0  0
   13.5322   13.9232   20.3119 H   0  0  0  0  0  0  0  0  0  0  0  0
   11.2940   16.4933   23.9193 H   0  0  0  0  0  0  0  0  0  0  0  0
   11.0775   13.7960   20.5641 H   0  0  0  0  0  0  0  0  0  0  0  0
    9.2757    9.2593   22.5671 H   0  0  0  0  0  0  0  0  0  0  0  0
   10.1053   10.6079   21.7939 H   0  0  0  0  0  0  0  0  0  0  0  0
    6.0940   11.1197   23.2921 H   0  0  0  0  0  0  0  0  0  0  0  0
    6.9019    9.5621   23.4537 H   0  0  0  0  0  0  0  0  0  0  0  0
    8.8487    9.2987   25.0827 H   0  0  0  0  0  0  0  0  0  0  0  0
    9.3834   10.6746   26.0450 H   0  0  0  0  0  0  0  0  0  0  0  0
    8.9286   12.8536   21.5493 H   0  0  0  0  0  0  0  0  0  0  0  0
    7.2908   13.0625   22.1612 H   0  0  0  0  0  0  0  0  0  0  0  0
   10.5949   12.6156   24.9258 H   0  0  0  0  0  0  0  0  0  0  0  0
   10.8895   12.5883   23.1900 H   0  0  0  0  0  0  0  0  0  0  0  0
    6.8608   13.1024   24.6954 H   0  0  0  0  0  0  0  0  0  0  0  0
    8.2043   12.9203   25.8190 H   0  0  0  0  0  0  0  0  0  0  0  0
    7.6465   10.7270   21.3765 H   0  0  0  0  0  0  0  0  0  0  0  0
   10.9330   10.2825   24.1269 H   0  0  0  0  0  0  0  0  0  0  0  0
    6.9253   10.7936   25.6237 H   0  0  0  0  0  0  0  0  0  0  0  0
    9.7145   14.7876   24.5346 H   0  0  0  0  0  0  0  0  0  0  0  0
    8.0469   15.0084   23.9334 H   0  0  0  0  0  0  0  0  0  0  0  0
  1  2  1  0  0  0  0
  1  3  2  0  0  0  0
  2  4  2  0  0  0  0
  3  5  1  0  0  0  0
  4  6  1  0  0  0  0
  5  6  2  0  0  0  0
  6  7  1  0  0  0  0
  7 18  1  0  0  0  0
  7 19  2  0  0  0  0
  8 14  1  0  0  0  0
  8 15  1  0  0  0  0
  9 14  1  0  0  0  0
  9 16  1  0  0  0  0
 10 15  1  0  0  0  0
 10 16  1  0  0  0  0
 11 14  1  0  0  0  0
 11 17  1  0  0  0  0
 12 15  1  0  0  0  0
 12 17  1  0  0  0  0
 13 16  1  0  0  0  0
 13 17  1  0  0  0  0
 17 18  1  0  0  0  0
  1 20  1  0  0  0  0
  2 21  1  0  0  0  0
  3 22  1  0  0  0  0
  4 23  1  0  0  0  0
  5 24  1  0  0  0  0
  8 25  1  0  0  0  0
  8 26  1  0  0  0  0
  9 27  1  0  0  0  0
  9 28  1  0  0  0  0
 10 29  1  0  0  0  0
 10 30  1  0  0  0  0
 11 31  1  0  0  0  0
 11 32  1  0  0  0  0
 12 33  1  0  0  0  0
 12 34  1  0  0  0  0
 13 35  1  0  0  0  0
 13 36  1  0  0  0  0
 14 37  1  0  0  0  0
 15 38  1  0  0  0  0
 16 39  1  0  0  0  0
 18 40  1  0  0  0  0
 18 41  1  0  0  0  0
M  END
> <id>
EN300-15431

> <smiles>
O=C(CC1(CC2CC3CC(C2)C1)C3)C=4C=CC=CC4

> <MDLNUMBER>
MFCD01846977

> <IUPAC Name>
2-(adamantan-1-yl)-1-phenylethan-1-one

> <CAS>
27648-26-6

> <Purity>
70

> <URL>
https://www.enaminestore.com/catalog/EN300-15431

> <ROCS_ShapeQuery>
x0446_0A_x1080_0A_x0929_0A_x0812_0A_x0719_0A_x1140_0A_x0528_0A_x0310_0A

> <ROCS_TanimotoCombo>
0.425 

> <ROCS_ShapeTanimoto>
0.230 

> <ROCS_ColorTanimoto>
0.195 

> <ROCS_RefTversky>
0.210 

> <ROCS_RefColorTversky>
0.208 

> <ROCS_RefTverskyCombo>
0.418 

> <ROCS_FitTversky>
1.724 

> <ROCS_FitColorTversky>
0.752 

> <ROCS_FitTverskyCombo>
2.476 

> <ROCS_ColorScore>
-7.445

> <ROCS_Overlap>
2477.662

> <ROCS_Rank>
120                 

$$$$
untitled-dbase-340465_9
  -OEChem-02082415563D

 36 39  0     0  0  0  0  0  0999 V2000
    3.8277   11.2022   24.7303 C   0  0  0  0  0  0  0  0  0  0  0  0
    3.6668   12.5498   25.0612 C   0  0  0  0  0  0  0  0  0  0  0  0
    5.0823   10.6904   24.3723 C   0  0  0  0  0  0  0  0  0  0  0  0
   13.1257   15.3129   22.5559 C   0  0  0  0  0  0  0  0  0  0  0  0
    4.7493   13.4343   25.0474 C   0  0  0  0  0  0  0  0  0  0  0  0
   12.2327   14.8858   23.5386 C   0  0  0  0  0  0  0  0  0  0  0  0
   11.3720   15.1701   20.9002 C   0  0  0  0  0  0  0  0  0  0  0  0
    9.6170   10.7021   23.4937 C   0  0  0  0  0  0  0  0  0  0  0  0
    6.1861   11.5612   24.3514 C   0  0  0  0  0  0  0  0  0  0  0  0
   12.6954   15.4551   21.2367 C   0  0  0  0  0  0  0  0  0  0  0  0
    7.5689   11.4457   24.0569 C   0  0  0  0  0  0  0  0  0  0  0  0
    5.9852   12.8989   24.6880 C   0  0  0  0  0  0  0  0  0  0  0  0
    8.1139   12.7088   24.2322 C   0  0  0  0  0  0  0  0  0  0  0  0
   10.9094   14.6007   23.2021 C   0  0  0  0  0  0  0  0  0  0  0  0
   10.4790   14.7429   21.8829 C   0  0  0  0  0  0  0  0  0  0  0  0
    9.4563   12.9473   24.0247 C   0  0  0  0  0  0  0  0  0  0  0  0
   13.6260   15.9025   20.2126 C   0  0  0  0  0  0  0  0  0  0  0  0
    8.2576   15.5482   21.6135 C   0  0  0  0  0  0  0  0  0  0  0  0
    8.3166   10.3819   23.6749 N   0  0  0  0  0  0  0  0  0  0  0  0
   10.2257   11.9034   23.6429 N   0  0  0  0  0  0  0  0  0  0  0  0
   14.8073   16.1721   20.4469 O   0  0  0  0  0  0  0  0  0  0  0  0
    7.1580   13.5945   24.6150 O   0  0  0  0  0  0  0  0  0  0  0  0
   10.0354   14.1789   24.1840 O   0  0  0  0  0  0  0  0  0  0  0  0
    9.1886   14.4701   21.5421 O   0  0  0  0  0  0  0  0  0  0  0  0
    2.9662   10.5394   24.7489 H   0  0  0  0  0  0  0  0  0  0  0  0
    2.6811   12.9188   25.3334 H   0  0  0  0  0  0  0  0  0  0  0  0
    5.1912    9.6403   24.1186 H   0  0  0  0  0  0  0  0  0  0  0  0
   14.1545   15.5322   22.8295 H   0  0  0  0  0  0  0  0  0  0  0  0
    4.6319   14.4806   25.3035 H   0  0  0  0  0  0  0  0  0  0  0  0
   12.5742   14.7767   24.5643 H   0  0  0  0  0  0  0  0  0  0  0  0
   11.0326   15.2823   19.8730 H   0  0  0  0  0  0  0  0  0  0  0  0
   10.2630    9.8863   23.1873 H   0  0  0  0  0  0  0  0  0  0  0  0
   13.2370   16.0008   19.1757 H   0  0  0  0  0  0  0  0  0  0  0  0
    7.2670   15.1954   21.3162 H   0  0  0  0  0  0  0  0  0  0  0  0
    8.5822   16.3556   20.9523 H   0  0  0  0  0  0  0  0  0  0  0  0
    8.2175   15.9157   22.6416 H   0  0  0  0  0  0  0  0  0  0  0  0
  1  2  1  0  0  0  0
  1  3  2  0  0  0  0
  2  5  2  0  0  0  0
  3  9  1  0  0  0  0
  4  6  2  0  0  0  0
  4 10  1  0  0  0  0
  5 12  1  0  0  0  0
  6 14  1  0  0  0  0
  7 10  2  0  0  0  0
  7 15  1  0  0  0  0
  8 19  1  0  0  0  0
  8 20  2  0  0  0  0
  9 11  1  0  0  0  0
  9 12  2  0  0  0  0
 10 17  1  0  0  0  0
 11 13  1  0  0  0  0
 11 19  2  0  0  0  0
 12 22  1  0  0  0  0
 13 16  2  0  0  0  0
 13 22  1  0  0  0  0
 14 15  2  0  0  0  0
 14 23  1  0  0  0  0
 15 24  1  0  0  0  0
 16 20  1  0  0  0  0
 16 23  1  0  0  0  0
 17 21  2  0  0  0  0
 18 24  1  0  0  0  0
  1 25  1  0  0  0  0
  2 26  1  0  0  0  0
  3 27  1  0  0  0  0
  4 28  1  0  0  0  0
  5 29  1  0  0  0  0
  6 30  1  0  0  0  0
  7 31  1  0  0  0  0
  8 32  1  0  0  0  0
 17 33  1  0  0  0  0
 18 34  1  0  0  0  0
 18 35  1  0  0  0  0
 18 36  1  0  0  0  0
M  END
> <id>
EN300-26607785

> <smiles>
COC=1C=C(C=O)C=CC1OC=2N=CN=C3C=4C=CC=CC4OC23

> <IUPAC Name>
3-methoxy-4-{8-oxa-3,5-diazatricyclo[7.4.0.0,2,7]trideca-1(9),2,4,6,10,12-hexaen-6-yloxy}benzaldehyde

> <CAS>
721409-55-8

> <URL>
https://www.enaminestore.com/catalog/EN300-26607785

> <ROCS_ShapeQuery>
x0446_0A_x1080_0A_x0929_0A_x0812_0A_x0719_0A_x1140_0A_x0528_0A_x0310_0A

> <ROCS_TanimotoCombo>
0.425 

> <ROCS_ShapeTanimoto>
0.243 

> <ROCS_ColorTanimoto>
0.182 

> <ROCS_RefTversky>
0.224 

> <ROCS_RefColorTversky>
0.203 

> <ROCS_RefTverskyCombo>
0.427 

> <ROCS_FitTversky>
1.553 

> <ROCS_FitColorTversky>
0.636 

> <ROCS_FitTverskyCombo>
2.190 

> <ROCS_ColorScore>
-7.265

> <ROCS_Overlap>
2645.811

> <ROCS_Rank>
121                 

$$$$
untitled-dbase-345109_7
  -OEChem-02082415563D

 39 42  0     1  0  0  0  0  0999 V2000
   11.5136   15.0883   23.4604 C   0  0  0  0  0  0  0  0  0  0  0  0
   11.7094   15.3641   21.0792 C   0  0  0  0  0  0  0  0  0  0  0  0
   12.8123   15.5590   23.5674 C   0  0  0  0  0  0  0  0  0  0  0  0
   10.9589   14.9919   22.1890 C   0  0  0  0  0  0  0  0  0  0  0  0
   12.9993   15.8227   21.2928 C   0  0  0  0  0  0  0  0  0  0  0  0
    9.5831   14.4988   22.0187 C   0  0  0  0  0  0  0  0  0  0  0  0
    7.3844   10.5672   24.6437 C   0  0  0  0  0  0  0  0  0  0  0  0
    9.0196    9.9511   22.8680 C   0  0  0  0  0  0  0  0  0  0  0  0
    9.7708   11.3286   24.8790 C   0  0  0  0  0  0  0  0  0  0  0  0
    7.2463   11.6970   22.3999 C   0  0  0  0  0  0  0  0  0  0  0  0
    7.8927   13.0025   24.5112 C   0  0  0  0  0  0  0  0  0  0  0  0
   10.2798   12.1281   22.4909 C   0  0  0  0  0  0  0  0  0  0  0  0
    7.5831   10.3954   23.1360 C   0  0  2  0  0  0  0  0  0  0  0  0
    8.3020   11.6787   25.1588 C   0  0  1  0  0  0  0  0  0  0  0  0
   10.0599   10.9294   23.4233 C   0  0  0  0  0  0  0  0  0  0  0  0
    7.9136   12.9547   22.9789 C   0  0  0  0  0  0  0  0  0  0  0  0
   13.5722   15.9300   22.5126 N   0  0  0  0  0  0  0  0  0  0  0  0
    9.2747   13.1978   22.4695 N   0  0  0  0  0  0  0  0  0  0  0  0
    8.7960   15.2774   21.4811 O   0  0  0  0  0  0  0  0  0  0  0  0
   13.7349   16.1859   20.2310 F   0  0  0  0  0  0  0  0  0  0  0  0
   10.9556   14.8064   24.3470 H   0  0  0  0  0  0  0  0  0  0  0  0
   11.3065   15.3014   20.0739 H   0  0  0  0  0  0  0  0  0  0  0  0
   13.2909   15.6531   24.5366 H   0  0  0  0  0  0  0  0  0  0  0  0
    6.3374   10.8109   24.8634 H   0  0  0  0  0  0  0  0  0  0  0  0
    7.6035    9.6253   25.1619 H   0  0  0  0  0  0  0  0  0  0  0  0
    9.1697    8.9858   23.3605 H   0  0  0  0  0  0  0  0  0  0  0  0
    9.1794    9.7863   21.8006 H   0  0  0  0  0  0  0  0  0  0  0  0
   10.4212   12.1640   25.1849 H   0  0  0  0  0  0  0  0  0  0  0  0
   10.0551   10.4868   25.5328 H   0  0  0  0  0  0  0  0  0  0  0  0
    7.4791   11.5996   21.3248 H   0  0  0  0  0  0  0  0  0  0  0  0
    6.1516   11.8418   22.4380 H   0  0  0  0  0  0  0  0  0  0  0  0
    6.8675   13.2192   24.8221 H   0  0  0  0  0  0  0  0  0  0  0  0
    8.5066   13.8245   24.8795 H   0  0  0  0  0  0  0  0  0  0  0  0
   11.2441   12.6039   22.7105 H   0  0  0  0  0  0  0  0  0  0  0  0
   10.3612   11.7355   21.4694 H   0  0  0  0  0  0  0  0  0  0  0  0
    6.9089    9.6097   22.7746 H   0  0  0  0  0  0  0  0  0  0  0  0
    8.1694   11.7717   26.2442 H   0  0  0  0  0  0  0  0  0  0  0  0
   11.0193   10.3923   23.4301 H   0  0  0  0  0  0  0  0  0  0  0  0
    7.3064   13.8122   22.6607 H   0  0  0  0  0  0  0  0  0  0  0  0
  1  3  2  0  0  0  0
  1  4  1  0  0  0  0
  2  4  2  0  0  0  0
  2  5  1  0  0  0  0
  3 17  1  0  0  0  0
  4  6  1  0  0  0  0
  5 17  2  0  0  0  0
  5 20  1  0  0  0  0
  6 18  1  0  0  0  0
  6 19  2  0  0  0  0
  7 13  1  0  0  0  0
  7 14  1  0  0  0  0
  8 13  1  0  0  0  0
  8 15  1  0  0  0  0
  9 14  1  0  0  0  0
  9 15  1  0  0  0  0
 10 13  1  0  0  0  0
 10 16  1  0  0  0  0
 11 14  1  0  0  0  0
 11 16  1  0  0  0  0
 12 15  1  0  0  0  0
 12 18  1  0  0  0  0
 16 18  1  0  0  0  0
  1 21  1  0  0  0  0
  2 22  1  0  0  0  0
  3 23  1  0  0  0  0
  7 24  1  0  0  0  0
  7 25  1  0  0  0  0
  8 26  1  0  0  0  0
  8 27  1  0  0  0  0
  9 28  1  0  0  0  0
  9 29  1  0  0  0  0
 10 30  1  0  0  0  0
 10 31  1  0  0  0  0
 11 32  1  0  0  0  0
 11 33  1  0  0  0  0
 12 34  1  0  0  0  0
 12 35  1  0  0  0  0
 13 36  1  0  0  0  0
 14 37  1  0  0  0  0
 15 38  1  0  0  0  0
 16 39  1  0  0  0  0
M  END
> <id>
EN300-6728297

> <smiles>
FC=1C=C(C=CN1)C(=O)N2CC3CC4CC(C3)CC2C4

> <IUPAC Name>
4-(2-fluoropyridine-4-carbonyl)-4-azatricyclo[4.3.1.1,3,8]undecane

> <CAS>
1808492-77-4

> <URL>
https://www.enaminestore.com/catalog/EN300-6728297

> <ROCS_ShapeQuery>
x0446_0A_x1080_0A_x0929_0A_x0812_0A_x0719_0A_x1140_0A_x0528_0A_x0310_0A

> <ROCS_TanimotoCombo>
0.425 

> <ROCS_ShapeTanimoto>
0.234 

> <ROCS_ColorTanimoto>
0.191 

> <ROCS_RefTversky>
0.214 

> <ROCS_RefColorTversky>
0.206 

> <ROCS_RefTverskyCombo>
0.420 

> <ROCS_FitTversky>
1.694 

> <ROCS_FitColorTversky>
0.713 

> <ROCS_FitTverskyCombo>
2.407 

> <ROCS_ColorScore>
-7.384

> <ROCS_Overlap>
2524.573

> <ROCS_Rank>
122                 

$$$$
untitled-dbase-256025_7
  -OEChem-02082415563D

 42 44  0     1  0  0  0  0  0999 V2000
    5.9311   13.2152   25.2768 C   0  0  0  0  0  0  0  0  0  0  0  0
    7.0516   13.5448   24.5197 C   0  0  0  0  0  0  0  0  0  0  0  0
    5.6629   11.8818   25.5603 C   0  0  0  0  0  0  0  0  0  0  0  0
    9.8702   11.8256   22.8227 C   0  0  0  0  0  0  0  0  0  0  0  0
    7.9088   12.5385   24.0430 C   0  0  0  0  0  0  0  0  0  0  0  0
    6.5153   10.8815   25.0862 C   0  0  0  0  0  0  0  0  0  0  0  0
    9.0435   12.8422   23.2788 C   0  0  0  0  0  0  0  0  0  0  0  0
    7.6426   11.1826   24.3268 C   0  0  0  0  0  0  0  0  0  0  0  0
    9.5283   10.5294   23.1509 C   0  0  0  0  0  0  0  0  0  0  0  0
   12.8055   16.1069   22.5908 C   0  0  0  0  0  0  0  0  0  0  0  0
   13.1902   15.4910   21.2499 C   0  0  0  0  0  0  0  0  0  0  0  0
   11.3178   15.9057   22.8660 C   0  0  0  0  0  0  0  0  0  0  0  0
   12.7292   14.0385   21.1560 C   0  0  0  0  0  0  0  0  0  0  0  0
   10.9203   14.4301   22.7234 C   0  0  1  0  0  0  0  0  0  0  0  0
    9.4153   14.2593   22.9213 C   0  0  1  0  0  0  0  0  0  0  0  0
    6.1841    9.4594   25.4186 C   0  0  0  0  0  0  0  0  0  0  0  0
   10.3878    9.4033   22.6815 C   0  0  0  0  0  0  0  0  0  0  0  0
    8.4431   10.1939   23.8856 N   0  0  0  0  0  0  0  0  0  0  0  0
   11.2916   13.9163   21.3989 N   0  0  0  0  0  0  0  0  0  0  0  0
    8.7550   14.6093   21.7085 O   0  0  0  0  0  0  0  0  0  0  0  0
    5.0522    9.3279   26.1675 F   0  0  0  0  0  0  0  0  0  0  0  0
    5.9820    8.6800   24.3183 F   0  0  0  0  0  0  0  0  0  0  0  0
    7.1730    8.8488   26.1299 F   0  0  0  0  0  0  0  0  0  0  0  0
   11.4649    9.8077   21.9459 F   0  0  0  0  0  0  0  0  0  0  0  0
   10.9102    8.6552   23.6974 F   0  0  0  0  0  0  0  0  0  0  0  0
    9.7113    8.5231   21.8880 F   0  0  0  0  0  0  0  0  0  0  0  0
    5.2712   13.9959   25.6429 H   0  0  0  0  0  0  0  0  0  0  0  0
    7.2382   14.5955   24.3127 H   0  0  0  0  0  0  0  0  0  0  0  0
    4.7869   11.6266   26.1512 H   0  0  0  0  0  0  0  0  0  0  0  0
   10.7529   12.0411   22.2295 H   0  0  0  0  0  0  0  0  0  0  0  0
   13.3913   15.6374   23.3906 H   0  0  0  0  0  0  0  0  0  0  0  0
   13.0481   17.1751   22.5977 H   0  0  0  0  0  0  0  0  0  0  0  0
   12.7394   16.0746   20.4372 H   0  0  0  0  0  0  0  0  0  0  0  0
   14.2765   15.5445   21.1164 H   0  0  0  0  0  0  0  0  0  0  0  0
   11.0845   16.2616   23.8766 H   0  0  0  0  0  0  0  0  0  0  0  0
   10.7361   16.5238   22.1693 H   0  0  0  0  0  0  0  0  0  0  0  0
   12.9552   13.6469   20.1582 H   0  0  0  0  0  0  0  0  0  0  0  0
   13.2813   13.4156   21.8700 H   0  0  0  0  0  0  0  0  0  0  0  0
   11.4311   13.8382   23.4937 H   0  0  0  0  0  0  0  0  0  0  0  0
    9.0830   14.9636   23.6909 H   0  0  0  0  0  0  0  0  0  0  0  0
   10.7872   14.4389   20.6822 H   0  0  0  0  0  0  0  0  0  0  0  0
    9.0131   15.5221   21.5062 H   0  0  0  0  0  0  0  0  0  0  0  0
  1  2  2  0  0  0  0
  1  3  1  0  0  0  0
  2  5  1  0  0  0  0
  3  6  2  0  0  0  0
  4  7  1  0  0  0  0
  4  9  2  0  0  0  0
  5  7  2  0  0  0  0
  5  8  1  0  0  0  0
  6  8  1  0  0  0  0
  6 16  1  0  0  0  0
  7 15  1  0  0  0  0
  8 18  2  0  0  0  0
  9 17  1  0  0  0  0
  9 18  1  0  0  0  0
 10 11  1  0  0  0  0
 10 12  1  0  0  0  0
 11 13  1  0  0  0  0
 12 14  1  0  0  0  0
 13 19  1  0  0  0  0
 14 15  1  0  0  0  0
 14 19  1  6  0  0  0
 15 20  1  6  0  0  0
 16 21  1  0  0  0  0
 16 22  1  0  0  0  0
 16 23  1  0  0  0  0
 17 24  1  0  0  0  0
 17 25  1  0  0  0  0
 17 26  1  0  0  0  0
  1 27  1  0  0  0  0
  2 28  1  0  0  0  0
  3 29  1  0  0  0  0
  4 30  1  0  0  0  0
 10 31  1  0  0  0  0
 10 32  1  0  0  0  0
 11 33  1  0  0  0  0
 11 34  1  0  0  0  0
 12 35  1  0  0  0  0
 12 36  1  0  0  0  0
 13 37  1  0  0  0  0
 13 38  1  0  0  0  0
 14 39  1  0  0  0  0
 15 40  1  0  0  0  0
 19 41  1  0  0  0  0
 20 42  1  0  0  0  0
M  END
> <id>
EN300-23580752

> <smiles>
Cl.O[C@H]([C@@H]1CCCCN1)C=2C=C(N=C3C(=CC=CC23)C(F)(F)F)C(F)(F)F

> <MDLNUMBER>
MFCD28976088

> <IUPAC Name>
(S)-[2,8-bis(trifluoromethyl)quinolin-4-yl][(2S)-piperidin-2-yl]methanol hydrochloride

> <CAS>
51744-85-5

> <URL>
https://www.enaminestore.com/catalog/EN300-23580752

> <Saltdate>
Cl

> <ROCS_ShapeQuery>
x0446_0A_x1080_0A_x0929_0A_x0812_0A_x0719_0A_x1140_0A_x0528_0A_x0310_0A

> <ROCS_TanimotoCombo>
0.425 

> <ROCS_ShapeTanimoto>
0.266 

> <ROCS_ColorTanimoto>
0.158 

> <ROCS_RefTversky>
0.242 

> <ROCS_RefColorTversky>
0.173 

> <ROCS_RefTverskyCombo>
0.415 

> <ROCS_FitTversky>
1.625 

> <ROCS_FitColorTversky>
0.653 

> <ROCS_FitTverskyCombo>
2.278 

> <ROCS_ColorScore>
-6.180

> <ROCS_Overlap>
2857.168

> <ROCS_Rank>
123                 

$$$$
untitled-dbase-115955_0
  -OEChem-02082415563D

 24 26  0     0  0  0  0  0  0999 V2000
    6.2919   10.8809   25.2553 C   0  0  0  0  0  0  0  0  0  0  0  0
    5.5351   11.9745   25.6647 C   0  0  0  0  0  0  0  0  0  0  0  0
    7.1086   13.4853   24.5970 C   0  0  0  0  0  0  0  0  0  0  0  0
    7.8921   12.4074   24.1700 C   0  0  0  0  0  0  0  0  0  0  0  0
    7.4498   11.1090   24.5202 C   0  0  0  0  0  0  0  0  0  0  0  0
    5.9408   13.2707   25.3376 C   0  0  0  0  0  0  0  0  0  0  0  0
    9.6849   13.8660   22.9675 C   0  0  0  0  0  0  0  0  0  0  0  0
    9.2058   11.3695   22.1650 C   0  0  0  0  0  0  0  0  0  0  0  0
   10.3210   11.4709   23.9497 C   0  0  0  0  0  0  0  0  0  0  0  0
    9.4144   10.3530   23.3363 C   0  0  0  0  0  0  0  0  0  0  0  0
    9.2419   12.4425   23.3251 C   0  0  0  0  0  0  0  0  0  0  0  0
    9.3584   14.4694   21.9563 O   0  0  0  0  0  0  0  0  0  0  0  0
    8.2116   10.0203   24.1069 O   0  0  0  0  0  0  0  0  0  0  0  0
   10.4963   14.3705   23.9289 O   0  0  0  0  0  0  0  0  0  0  0  0
    4.9952   14.6164   25.8501 Cl  0  0  0  0  0  0  0  0  0  0  0  0
    5.9794    9.8728   25.5078 H   0  0  0  0  0  0  0  0  0  0  0  0
    4.6280   11.8053   26.2398 H   0  0  0  0  0  0  0  0  0  0  0  0
    7.4124   14.4997   24.3493 H   0  0  0  0  0  0  0  0  0  0  0  0
   10.0295   11.4263   21.4435 H   0  0  0  0  0  0  0  0  0  0  0  0
    8.2631   11.2786   21.6174 H   0  0  0  0  0  0  0  0  0  0  0  0
   10.4021   11.4729   25.0407 H   0  0  0  0  0  0  0  0  0  0  0  0
   11.3273   11.5443   23.5204 H   0  0  0  0  0  0  0  0  0  0  0  0
    9.9444    9.4377   23.0571 H   0  0  0  0  0  0  0  0  0  0  0  0
   10.7925   15.2815   23.7173 H   0  0  0  0  0  0  0  0  0  0  0  0
  1  2  2  0  0  0  0
  1  5  1  0  0  0  0
  2  6  1  0  0  0  0
  3  4  1  0  0  0  0
  3  6  2  0  0  0  0
  4  5  2  0  0  0  0
  4 11  1  0  0  0  0
  5 13  1  0  0  0  0
  6 15  1  0  0  0  0
  7 11  1  1  0  0  0
  7 12  2  0  0  0  0
  7 14  1  0  0  0  0
  8 10  1  6  0  0  0
  8 11  1  0  0  0  0
  9 10  1  0  0  0  0
  9 11  1  0  0  0  0
 10 13  1  0  0  0  0
  1 16  1  0  0  0  0
  2 17  1  0  0  0  0
  3 18  1  0  0  0  0
  8 19  1  0  0  0  0
  8 20  1  0  0  0  0
  9 21  1  0  0  0  0
  9 22  1  0  0  0  0
 10 23  1  0  0  0  0
 14 24  1  0  0  0  0
M  END
> <id>
EN300-37408161

> <smiles>
OC(=O)[C@]1(C[C@H]2C1)C=3C=C(Cl)C=CC3O2

> <IUPAC Name>
(1r)-4-chloro-8-oxatricyclo[7.1.1.0,2,7]undeca-2,4,6-triene-1-carboxylic acid

> <CAS>
2731008-02-7

> <URL>
https://www.enaminestore.com/catalog/EN300-37408161

> <ROCS_ShapeQuery>
x0446_0A_x1080_0A_x0929_0A_x0812_0A_x0719_0A_x1140_0A_x0528_0A_x0310_0A

> <ROCS_TanimotoCombo>
0.425 

> <ROCS_ShapeTanimoto>
0.216 

> <ROCS_ColorTanimoto>
0.209 

> <ROCS_RefTversky>
0.196 

> <ROCS_RefColorTversky>
0.233 

> <ROCS_RefTverskyCombo>
0.429 

> <ROCS_FitTversky>
1.837 

> <ROCS_FitColorTversky>
0.674 

> <ROCS_FitTverskyCombo>
2.511 

> <ROCS_ColorScore>
-8.345

> <ROCS_Overlap>
2317.552

> <ROCS_Rank>
124                 

$$$$
untitled-dbase-146643_0
  -OEChem-02082415563D

 24 26  0     0  0  0  0  0  0999 V2000
    6.2922   10.8809   25.2558 C   0  0  0  0  0  0  0  0  0  0  0  0
    5.5353   11.9745   25.6654 C   0  0  0  0  0  0  0  0  0  0  0  0
    7.1083   13.4853   24.5967 C   0  0  0  0  0  0  0  0  0  0  0  0
    7.8919   12.4074   24.1696 C   0  0  0  0  0  0  0  0  0  0  0  0
    7.4498   11.1090   24.5200 C   0  0  0  0  0  0  0  0  0  0  0  0
    5.9409   13.2706   25.3377 C   0  0  0  0  0  0  0  0  0  0  0  0
    9.6847   13.8659   22.9673 C   0  0  0  0  0  0  0  0  0  0  0  0
   10.3209   11.4713   23.9506 C   0  0  0  0  0  0  0  0  0  0  0  0
    9.2069   11.3691   22.1652 C   0  0  0  0  0  0  0  0  0  0  0  0
    9.4149   10.3530   23.3368 C   0  0  0  0  0  0  0  0  0  0  0  0
    9.2418   12.4425   23.3250 C   0  0  0  0  0  0  0  0  0  0  0  0
    9.3584   14.4692   21.9559 O   0  0  0  0  0  0  0  0  0  0  0  0
    8.2116   10.0203   24.1067 O   0  0  0  0  0  0  0  0  0  0  0  0
   10.4958   14.3708   23.9289 O   0  0  0  0  0  0  0  0  0  0  0  0
    4.9955   14.6163   25.8507 Cl  0  0  0  0  0  0  0  0  0  0  0  0
    5.9799    9.8727   25.5085 H   0  0  0  0  0  0  0  0  0  0  0  0
    4.6287   11.8052   26.2411 H   0  0  0  0  0  0  0  0  0  0  0  0
    7.4120   14.4997   24.3488 H   0  0  0  0  0  0  0  0  0  0  0  0
   10.4013   11.4738   25.0416 H   0  0  0  0  0  0  0  0  0  0  0  0
   11.3274   11.5450   23.5219 H   0  0  0  0  0  0  0  0  0  0  0  0
   10.0310   11.4260   21.4442 H   0  0  0  0  0  0  0  0  0  0  0  0
    8.2646   11.2776   21.6170 H   0  0  0  0  0  0  0  0  0  0  0  0
    9.9453    9.4377   23.0583 H   0  0  0  0  0  0  0  0  0  0  0  0
   10.7920   15.2817   23.7172 H   0  0  0  0  0  0  0  0  0  0  0  0
  1  2  2  0  0  0  0
  1  5  1  0  0  0  0
  2  6  1  0  0  0  0
  3  4  1  0  0  0  0
  3  6  2  0  0  0  0
  4  5  2  0  0  0  0
  4 11  1  0  0  0  0
  5 13  1  0  0  0  0
  6 15  1  0  0  0  0
  7 11  1  0  0  0  0
  7 12  2  0  0  0  0
  7 14  1  0  0  0  0
  8 10  1  0  0  0  0
  8 11  1  0  0  0  0
  9 10  1  0  0  0  0
  9 11  1  0  0  0  0
 10 13  1  0  0  0  0
  1 16  1  0  0  0  0
  2 17  1  0  0  0  0
  3 18  1  0  0  0  0
  8 19  1  0  0  0  0
  8 20  1  0  0  0  0
  9 21  1  0  0  0  0
  9 22  1  0  0  0  0
 10 23  1  0  0  0  0
 14 24  1  0  0  0  0
M  END
> <id>
EN300-28250271

> <smiles>
OC(=O)C1(CC2C1)C=3C=C(Cl)C=CC3O2

> <MDLNUMBER>
MFCD34562030

> <IUPAC Name>
4-chloro-8-oxatricyclo[7.1.1.0,2,7]undeca-2,4,6-triene-1-carboxylic acid

> <CAS>
2731008-02-7

> <Purity>
95

> <URL>
https://www.enaminestore.com/catalog/EN300-28250271

> <ROCS_ShapeQuery>
x0446_0A_x1080_0A_x0929_0A_x0812_0A_x0719_0A_x1140_0A_x0528_0A_x0310_0A

> <ROCS_TanimotoCombo>
0.425 

> <ROCS_ShapeTanimoto>
0.216 

> <ROCS_ColorTanimoto>
0.209 

> <ROCS_RefTversky>
0.196 

> <ROCS_RefColorTversky>
0.233 

> <ROCS_RefTverskyCombo>
0.429 

> <ROCS_FitTversky>
1.837 

> <ROCS_FitColorTversky>
0.674 

> <ROCS_FitTverskyCombo>
2.511 

> <ROCS_ColorScore>
-8.345

> <ROCS_Overlap>
2317.516

> <ROCS_Rank>
125                 

$$$$
untitled-dbase-293983_8
  -OEChem-02082415563D

 35 38  0     0  0  0  0  0  0999 V2000
   14.4148   16.8138   20.1983 C   0  0  0  0  0  0  0  0  0  0  0  0
   13.2722   17.4852   19.7143 C   0  0  0  0  0  0  0  0  0  0  0  0
   14.3002   15.7663   21.1171 C   0  0  0  0  0  0  0  0  0  0  0  0
   11.9901   17.1239   20.1385 C   0  0  0  0  0  0  0  0  0  0  0  0
   13.0269   15.4233   21.5203 C   0  0  0  0  0  0  0  0  0  0  0  0
   11.8985   16.0865   21.0424 C   0  0  0  0  0  0  0  0  0  0  0  0
    9.1892   11.6133   23.2627 C   0  0  0  0  0  0  0  0  0  0  0  0
    9.4073   10.3071   23.6332 C   0  0  0  0  0  0  0  0  0  0  0  0
    7.5087   10.8154   24.4734 C   0  0  0  0  0  0  0  0  0  0  0  0
    6.2428   10.9217   25.1210 C   0  0  0  0  0  0  0  0  0  0  0  0
    5.5578   12.0800   25.0606 C   0  0  0  0  0  0  0  0  0  0  0  0
    6.0776   13.2354   24.3468 C   0  0  0  0  0  0  0  0  0  0  0  0
    7.2690   13.1430   23.7339 C   0  0  0  0  0  0  0  0  0  0  0  0
   12.5818   14.3933   22.4643 C   0  0  0  0  0  0  0  0  0  0  0  0
   10.7188   15.4884   21.6755 C   0  0  0  0  0  0  0  0  0  0  0  0
   10.0570   12.5090   22.4566 C   0  0  0  0  0  0  0  0  0  0  0  0
   10.5631    9.4477   23.3275 C   0  0  0  0  0  0  0  0  0  0  0  0
    8.3656    9.8189   24.3807 N   0  0  0  0  0  0  0  0  0  0  0  0
    7.9716   11.9430   23.8005 N   0  0  0  0  0  0  0  0  0  0  0  0
   11.2255   14.4887   22.4456 N   0  0  0  0  0  0  0  0  0  0  0  0
   13.3174   13.6449   23.0773 O   0  0  0  0  0  0  0  0  0  0  0  0
    9.5723   15.8468   21.4916 O   0  0  0  0  0  0  0  0  0  0  0  0
   10.3909   12.2606   21.3081 O   0  0  0  0  0  0  0  0  0  0  0  0
   10.4173   13.6287   23.1603 O   0  0  0  0  0  0  0  0  0  0  0  0
   10.3728    8.7406   22.1745 F   0  0  0  0  0  0  0  0  0  0  0  0
   10.7670    8.5145   24.3037 F   0  0  0  0  0  0  0  0  0  0  0  0
   15.3987   17.1185   19.8508 H   0  0  0  0  0  0  0  0  0  0  0  0
   13.3936   18.2968   19.0015 H   0  0  0  0  0  0  0  0  0  0  0  0
   15.1786   15.2531   21.4901 H   0  0  0  0  0  0  0  0  0  0  0  0
   11.1135   17.6421   19.7683 H   0  0  0  0  0  0  0  0  0  0  0  0
    5.8451   10.0669   25.6565 H   0  0  0  0  0  0  0  0  0  0  0  0
    4.5936   12.1802   25.5472 H   0  0  0  0  0  0  0  0  0  0  0  0
    5.4920   14.1464   24.3251 H   0  0  0  0  0  0  0  0  0  0  0  0
    7.7082   13.9684   23.1872 H   0  0  0  0  0  0  0  0  0  0  0  0
   11.5043   10.0035   23.2123 H   0  0  0  0  0  0  0  0  0  0  0  0
  1  2  1  0  0  0  0
  1  3  2  0  0  0  0
  2  4  2  0  0  0  0
  3  5  1  0  0  0  0
  4  6  1  0  0  0  0
  5  6  2  0  0  0  0
  5 14  1  0  0  0  0
  6 15  1  0  0  0  0
  7  8  2  0  0  0  0
  7 16  1  0  0  0  0
  7 19  1  0  0  0  0
  8 17  1  0  0  0  0
  8 18  1  0  0  0  0
  9 10  1  0  0  0  0
  9 18  2  0  0  0  0
  9 19  1  0  0  0  0
 10 11  2  0  0  0  0
 11 12  1  0  0  0  0
 12 13  2  0  0  0  0
 13 19  1  0  0  0  0
 14 20  1  0  0  0  0
 14 21  2  0  0  0  0
 15 20  1  0  0  0  0
 15 22  2  0  0  0  0
 16 23  2  0  0  0  0
 16 24  1  0  0  0  0
 17 25  1  0  0  0  0
 17 26  1  0  0  0  0
 20 24  1  0  0  0  0
  1 27  1  0  0  0  0
  2 28  1  0  0  0  0
  3 29  1  0  0  0  0
  4 30  1  0  0  0  0
 10 31  1  0  0  0  0
 11 32  1  0  0  0  0
 12 33  1  0  0  0  0
 13 34  1  0  0  0  0
 17 35  1  0  0  0  0
M  END
> <id>
EN300-6524885

> <smiles>
FC(F)C=1N=C2C=CC=CN2C1C(=O)ON3C(=O)C=4C=CC=CC4C3=O

> <IUPAC Name>
1,3-dioxo-2,3-dihydro-1H-isoindol-2-yl 2-(difluoromethyl)imidazo[1,2-a]pyridine-3-carboxylate

> <CAS>
2248307-05-1

> <URL>
https://www.enaminestore.com/catalog/EN300-6524885

> <ROCS_ShapeQuery>
x0446_0A_x1080_0A_x0929_0A_x0812_0A_x0719_0A_x1140_0A_x0528_0A_x0310_0A

> <ROCS_TanimotoCombo>
0.425 

> <ROCS_ShapeTanimoto>
0.268 

> <ROCS_ColorTanimoto>
0.157 

> <ROCS_RefTversky>
0.244 

> <ROCS_RefColorTversky>
0.175 

> <ROCS_RefTverskyCombo>
0.419 

> <ROCS_FitTversky>
1.594 

> <ROCS_FitColorTversky>
0.600 

> <ROCS_FitTverskyCombo>
2.194 

> <ROCS_ColorScore>
-6.268

> <ROCS_Overlap>
2881.062

> <ROCS_Rank>
126                 

$$$$
untitled-dbase-348166_1
  -OEChem-02082415563D

 31 32  0     0  0  0  0  0  0999 V2000
    8.3203   12.2979   23.6669 C   0  0  0  0  0  0  0  0  0  0  0  0
    6.4308   12.3924   24.7587 C   0  0  0  0  0  0  0  0  0  0  0  0
    7.5380   10.1780   24.5448 C   0  0  0  0  0  0  0  0  0  0  0  0
    9.4542   11.6214   23.1334 C   0  0  0  0  0  0  0  0  0  0  0  0
    9.5029   10.2854   23.3684 C   0  0  0  0  0  0  0  0  0  0  0  0
   10.6784   13.6636   22.6789 C   0  0  0  0  0  0  0  0  0  0  0  0
   12.6015   15.6605   23.3619 C   0  0  0  0  0  0  0  0  0  0  0  0
   13.1557   15.7011   20.9123 C   0  0  0  0  0  0  0  0  0  0  0  0
   10.8530   16.3410   21.6844 C   0  0  0  0  0  0  0  0  0  0  0  0
   12.0629   15.4459   21.9482 C   0  0  0  0  0  0  0  0  0  0  0  0
    7.9138   13.5508   23.6594 N   0  0  0  0  0  0  0  0  0  0  0  0
    6.7171   13.6092   24.3508 N   0  0  0  0  0  0  0  0  0  0  0  0
    8.5639    9.5452   24.0661 N   0  0  0  0  0  0  0  0  0  0  0  0
    7.4089   11.5393   24.3523 N   0  0  0  0  0  0  0  0  0  0  0  0
   10.3866   12.3343   22.4421 N   0  0  0  0  0  0  0  0  0  0  0  0
   10.1512   14.3772   23.5267 O   0  0  0  0  0  0  0  0  0  0  0  0
    5.3654   12.0358   25.4540 O   0  0  0  0  0  0  0  0  0  0  0  0
   11.6559   14.0791   21.8182 O   0  0  0  0  0  0  0  0  0  0  0  0
   10.8404    9.3442   22.7651 Cl  0  0  0  0  0  0  0  0  0  0  0  0
    6.7587    9.6409   25.1088 H   0  0  0  0  0  0  0  0  0  0  0  0
   11.8202   15.4783   24.1084 H   0  0  0  0  0  0  0  0  0  0  0  0
   13.4477   14.9995   23.5759 H   0  0  0  0  0  0  0  0  0  0  0  0
   12.9280   16.6972   23.5028 H   0  0  0  0  0  0  0  0  0  0  0  0
   12.7736   15.5483   19.8965 H   0  0  0  0  0  0  0  0  0  0  0  0
   13.9858   14.9967   21.0391 H   0  0  0  0  0  0  0  0  0  0  0  0
   13.5510   16.7194   20.9845 H   0  0  0  0  0  0  0  0  0  0  0  0
   10.4664   16.1873   20.6704 H   0  0  0  0  0  0  0  0  0  0  0  0
   10.0441   16.1457   22.3959 H   0  0  0  0  0  0  0  0  0  0  0  0
   11.1290   17.3995   21.7530 H   0  0  0  0  0  0  0  0  0  0  0  0
   10.9000   11.8582   21.7056 H   0  0  0  0  0  0  0  0  0  0  0  0
    4.7728   12.7974   25.6514 H   0  0  0  0  0  0  0  0  0  0  0  0
  1  4  1  0  0  0  0
  1 11  2  0  0  0  0
  1 14  1  0  0  0  0
  2 12  2  0  0  0  0
  2 14  1  0  0  0  0
  2 17  1  0  0  0  0
  3 13  2  0  0  0  0
  3 14  1  0  0  0  0
  4  5  2  0  0  0  0
  4 15  1  0  0  0  0
  5 13  1  0  0  0  0
  5 19  1  0  0  0  0
  6 15  1  0  0  0  0
  6 16  2  0  0  0  0
  6 18  1  0  0  0  0
  7 10  1  0  0  0  0
  8 10  1  0  0  0  0
  9 10  1  0  0  0  0
 10 18  1  0  0  0  0
 11 12  1  0  0  0  0
  3 20  1  0  0  0  0
  7 21  1  0  0  0  0
  7 22  1  0  0  0  0
  7 23  1  0  0  0  0
  8 24  1  0  0  0  0
  8 25  1  0  0  0  0
  8 26  1  0  0  0  0
  9 27  1  0  0  0  0
  9 28  1  0  0  0  0
  9 29  1  0  0  0  0
 15 30  1  0  0  0  0
 17 31  1  0  0  0  0
M  END
> <id>
EN300-26665158

> <smiles>
CC(C)(C)OC(=O)NC1=C(Cl)N=CN2C(O)=NN=C12

> <IUPAC Name>
tert-butyl N-{7-chloro-3-hydroxy-[1,2,4]triazolo[4,3-c]pyrimidin-8-yl}carbamate

> <CAS>
2413884-69-0

> <URL>
https://www.enaminestore.com/catalog/EN300-26665158

> <ROCS_ShapeQuery>
x0446_0A_x1080_0A_x0929_0A_x0812_0A_x0719_0A_x1140_0A_x0528_0A_x0310_0A

> <ROCS_TanimotoCombo>
0.425 

> <ROCS_ShapeTanimoto>
0.258 

> <ROCS_ColorTanimoto>
0.167 

> <ROCS_RefTversky>
0.230 

> <ROCS_RefColorTversky>
0.189 

> <ROCS_RefTverskyCombo>
0.420 

> <ROCS_FitTversky>
1.869 

> <ROCS_FitColorTversky>
0.581 

> <ROCS_FitTverskyCombo>
2.450 

> <ROCS_ColorScore>
-6.787

> <ROCS_Overlap>
2721.113

> <ROCS_Rank>
127                 

$$$$
untitled-dbase-289500_5
  -OEChem-02082415563D

 41 45  0     0  0  0  0  0  0999 V2000
    9.4546   19.6792   21.2581 C   0  0  0  0  0  0  0  0  0  0  0  0
   10.7039   19.8877   21.8796 C   0  0  0  0  0  0  0  0  0  0  0  0
    8.9197   18.3941   21.1280 C   0  0  0  0  0  0  0  0  0  0  0  0
   11.4457   18.8157   22.3846 C   0  0  0  0  0  0  0  0  0  0  0  0
    9.6653   17.3510   21.6355 C   0  0  0  0  0  0  0  0  0  0  0  0
   10.8991   17.5569   22.2491 C   0  0  0  0  0  0  0  0  0  0  0  0
    9.3882   15.9110   21.6460 C   0  0  0  0  0  0  0  0  0  0  0  0
   11.4254   16.2510   22.6590 C   0  0  0  0  0  0  0  0  0  0  0  0
    9.9857   13.6900   23.8017 C   0  0  0  0  0  0  0  0  0  0  0  0
    6.2272   12.8106   25.0176 C   0  0  0  0  0  0  0  0  0  0  0  0
    7.6061   12.4579   25.6130 C   0  0  0  0  0  0  0  0  0  0  0  0
    6.8838   12.7927   23.6215 C   0  0  0  0  0  0  0  0  0  0  0  0
    9.5545   11.4113   22.4479 C   0  0  0  0  0  0  0  0  0  0  0  0
   10.2597   11.0846   24.3931 C   0  0  0  0  0  0  0  0  0  0  0  0
    9.4308   12.2760   23.7658 C   0  0  0  0  0  0  0  0  0  0  0  0
    7.9818   11.9019   24.2284 C   0  0  0  0  0  0  0  0  0  0  0  0
    9.2383   10.2738   23.4994 C   0  0  0  0  0  0  0  0  0  0  0  0
    9.5177    8.8385   23.1567 C   0  0  0  0  0  0  0  0  0  0  0  0
   10.4510   15.3726   22.3014 N   0  0  0  0  0  0  0  0  0  0  0  0
    8.3991   15.3881   21.1716 O   0  0  0  0  0  0  0  0  0  0  0  0
   12.4948   16.0717   23.2077 O   0  0  0  0  0  0  0  0  0  0  0  0
    9.9300   14.4223   24.7808 O   0  0  0  0  0  0  0  0  0  0  0  0
    7.8843   10.4665   24.0225 O   0  0  0  0  0  0  0  0  0  0  0  0
   10.5371   13.9933   22.5911 O   0  0  0  0  0  0  0  0  0  0  0  0
    8.9018   20.5327   20.8740 H   0  0  0  0  0  0  0  0  0  0  0  0
   11.0943   20.8986   21.9646 H   0  0  0  0  0  0  0  0  0  0  0  0
    7.9613   18.2349   20.6482 H   0  0  0  0  0  0  0  0  0  0  0  0
   12.4063   18.9767   22.8592 H   0  0  0  0  0  0  0  0  0  0  0  0
    5.4745   12.0264   25.1588 H   0  0  0  0  0  0  0  0  0  0  0  0
    5.8058   13.7689   25.3315 H   0  0  0  0  0  0  0  0  0  0  0  0
    8.1790   13.3303   25.9448 H   0  0  0  0  0  0  0  0  0  0  0  0
    7.5803   11.7279   26.4272 H   0  0  0  0  0  0  0  0  0  0  0  0
    6.2779   12.3316   22.8363 H   0  0  0  0  0  0  0  0  0  0  0  0
    7.2108   13.7789   23.2757 H   0  0  0  0  0  0  0  0  0  0  0  0
    8.7893   11.5772   21.6838 H   0  0  0  0  0  0  0  0  0  0  0  0
   10.5396   11.3837   21.9686 H   0  0  0  0  0  0  0  0  0  0  0  0
   11.3184   11.0229   24.1165 H   0  0  0  0  0  0  0  0  0  0  0  0
   10.1633   10.9407   25.4734 H   0  0  0  0  0  0  0  0  0  0  0  0
    9.2452    8.1742   23.9870 H   0  0  0  0  0  0  0  0  0  0  0  0
   10.5826    8.6848   22.9392 H   0  0  0  0  0  0  0  0  0  0  0  0
    8.9456    8.5250   22.2738 H   0  0  0  0  0  0  0  0  0  0  0  0
  1  2  1  0  0  0  0
  1  3  2  0  0  0  0
  2  4  2  0  0  0  0
  3  5  1  0  0  0  0
  4  6  1  0  0  0  0
  5  6  2  0  0  0  0
  5  7  1  0  0  0  0
  6  8  1  0  0  0  0
  7 19  1  0  0  0  0
  7 20  2  0  0  0  0
  8 19  1  0  0  0  0
  8 21  2  0  0  0  0
  9 15  1  0  0  0  0
  9 22  2  0  0  0  0
  9 24  1  0  0  0  0
 10 11  1  0  0  0  0
 10 12  1  0  0  0  0
 11 16  1  0  0  0  0
 12 16  1  0  0  0  0
 13 15  1  0  0  0  0
 13 17  1  0  0  0  0
 14 15  1  0  0  0  0
 14 17  1  0  0  0  0
 15 16  1  0  0  0  0
 16 23  1  0  0  0  0
 17 18  1  0  0  0  0
 17 23  1  0  0  0  0
 19 24  1  0  0  0  0
  1 25  1  0  0  0  0
  2 26  1  0  0  0  0
  3 27  1  0  0  0  0
  4 28  1  0  0  0  0
 10 29  1  0  0  0  0
 10 30  1  0  0  0  0
 11 31  1  0  0  0  0
 11 32  1  0  0  0  0
 12 33  1  0  0  0  0
 12 34  1  0  0  0  0
 13 35  1  0  0  0  0
 13 36  1  0  0  0  0
 14 37  1  0  0  0  0
 14 38  1  0  0  0  0
 18 39  1  0  0  0  0
 18 40  1  0  0  0  0
 18 41  1  0  0  0  0
M  END
> <id>
EN300-6526432

> <smiles>
CC1(CC2(C1)C(=O)ON3C(=O)C=4C=CC=CC4C3=O)OC52CCC5

> <IUPAC Name>
1,3-dioxo-2,3-dihydro-1H-isoindol-2-yl 4-methyl-3-oxaspiro[bicyclo[2.1.1]hexane-2,1'-cyclobutane]-1-carboxylate

> <CAS>
2490402-23-6

> <URL>
https://www.enaminestore.com/catalog/EN300-6526432

> <ROCS_ShapeQuery>
x0446_0A_x1080_0A_x0929_0A_x0812_0A_x0719_0A_x1140_0A_x0528_0A_x0310_0A

> <ROCS_TanimotoCombo>
0.425 

> <ROCS_ShapeTanimoto>
0.238 

> <ROCS_ColorTanimoto>
0.186 

> <ROCS_RefTversky>
0.220 

> <ROCS_RefColorTversky>
0.222 

> <ROCS_RefTverskyCombo>
0.442 

> <ROCS_FitTversky>
1.531 

> <ROCS_FitColorTversky>
0.534 

> <ROCS_FitTverskyCombo>
2.065 

> <ROCS_ColorScore>
-8.003

> <ROCS_Overlap>
2603.218

> <ROCS_Rank>
128                 

$$$$
untitled-dbase-293804_2
  -OEChem-02082415563D

 56 61  0     1  0  0  0  0  0999 V2000
    3.5838   11.9841   20.5473 C   0  0  0  0  0  0  0  0  0  0  0  0
   13.6773   18.6168   21.0453 C   0  0  0  0  0  0  0  0  0  0  0  0
   14.7975   17.7868   21.2616 C   0  0  0  0  0  0  0  0  0  0  0  0
    4.3841   10.8734   20.2799 C   0  0  0  0  0  0  0  0  0  0  0  0
    3.9437   12.8762   21.5574 C   0  0  0  0  0  0  0  0  0  0  0  0
   12.3787   18.1006   21.0880 C   0  0  0  0  0  0  0  0  0  0  0  0
   14.6438   16.4226   21.5252 C   0  0  0  0  0  0  0  0  0  0  0  0
    5.5443   10.6547   21.0227 C   0  0  0  0  0  0  0  0  0  0  0  0
    5.1039   12.6575   22.3003 C   0  0  0  0  0  0  0  0  0  0  0  0
   12.2486   16.7535   21.3527 C   0  0  0  0  0  0  0  0  0  0  0  0
   13.3549   15.9339   21.5661 C   0  0  0  0  0  0  0  0  0  0  0  0
    5.9042   11.5468   22.0329 C   0  0  0  0  0  0  0  0  0  0  0  0
   11.0435   15.9240   21.4528 C   0  0  0  0  0  0  0  0  0  0  0  0
   12.8701   14.5707   21.8048 C   0  0  0  0  0  0  0  0  0  0  0  0
   10.3329   13.5006   23.3393 C   0  0  0  0  0  0  0  0  0  0  0  0
    7.9664   10.0244   22.4332 C   0  0  0  0  0  0  0  0  0  0  0  0
   10.1529   11.0502   23.1001 C   0  0  0  0  0  0  0  0  0  0  0  0
    8.8418    9.6995   24.7581 C   0  0  0  0  0  0  0  0  0  0  0  0
    8.1555   12.5119   22.6913 C   0  0  0  0  0  0  0  0  0  0  0  0
    6.8288   11.1541   24.3622 C   0  0  0  0  0  0  0  0  0  0  0  0
    9.0207   12.1902   25.0275 C   0  0  0  0  0  0  0  0  0  0  0  0
    9.2355    9.8328   23.2801 C   0  0  1  0  0  0  0  0  0  0  0  0
    7.1825   11.3062   22.8521 C   0  0  1  0  0  0  0  0  0  0  0  0
    9.4113   12.3115   23.5505 C   0  0  2  0  0  0  0  0  0  0  0  0
    8.0972   10.9668   25.2303 C   0  0  2  0  0  0  0  0  0  0  0  0
    7.7125   10.8333   26.7070 C   0  0  0  0  0  0  0  0  0  0  0  0
   11.5160   14.6868   21.7607 N   0  0  0  0  0  0  0  0  0  0  0  0
    9.9066   16.3252   21.3000 O   0  0  0  0  0  0  0  0  0  0  0  0
   13.5789   13.6046   22.0075 O   0  0  0  0  0  0  0  0  0  0  0  0
   10.7079   14.2436   24.2366 O   0  0  0  0  0  0  0  0  0  0  0  0
   10.6579   13.5953   22.0176 O   0  0  0  0  0  0  0  0  0  0  0  0
    2.6812   12.1550   19.9679 H   0  0  0  0  0  0  0  0  0  0  0  0
   13.8290   19.6736   20.8413 H   0  0  0  0  0  0  0  0  0  0  0  0
   15.7949   18.2171   21.2206 H   0  0  0  0  0  0  0  0  0  0  0  0
    4.1046   10.1793   19.4927 H   0  0  0  0  0  0  0  0  0  0  0  0
    3.3214   13.7416   21.7651 H   0  0  0  0  0  0  0  0  0  0  0  0
   11.5192   18.7385   20.9193 H   0  0  0  0  0  0  0  0  0  0  0  0
   15.5049   15.7856   21.6883 H   0  0  0  0  0  0  0  0  0  0  0  0
    6.1616    9.7865   20.8076 H   0  0  0  0  0  0  0  0  0  0  0  0
    5.3763   13.3578   23.0854 H   0  0  0  0  0  0  0  0  0  0  0  0
    8.2392   10.0830   21.3706 H   0  0  0  0  0  0  0  0  0  0  0  0
    7.3207    9.1414   22.5331 H   0  0  0  0  0  0  0  0  0  0  0  0
   11.0745   10.9142   23.6809 H   0  0  0  0  0  0  0  0  0  0  0  0
   10.4618   11.1356   22.0501 H   0  0  0  0  0  0  0  0  0  0  0  0
    8.2079    8.8136   24.8932 H   0  0  0  0  0  0  0  0  0  0  0  0
    9.7415    9.5384   25.3661 H   0  0  0  0  0  0  0  0  0  0  0  0
    8.4291   12.6342   21.6335 H   0  0  0  0  0  0  0  0  0  0  0  0
    7.6465   13.4442   22.9747 H   0  0  0  0  0  0  0  0  0  0  0  0
    6.2744   12.0410   24.7002 H   0  0  0  0  0  0  0  0  0  0  0  0
    6.1503   10.3008   24.5011 H   0  0  0  0  0  0  0  0  0  0  0  0
    9.9186   12.0905   25.6529 H   0  0  0  0  0  0  0  0  0  0  0  0
    8.5173   13.1068   25.3645 H   0  0  0  0  0  0  0  0  0  0  0  0
    9.7596    8.9264   22.9563 H   0  0  0  0  0  0  0  0  0  0  0  0
    7.1890   11.7298   27.0300 H   0  0  0  0  0  0  0  0  0  0  0  0
    8.6098   10.7042   27.3073 H   0  0  0  0  0  0  0  0  0  0  0  0
    7.0639    9.9705   26.8383 H   0  0  0  0  0  0  0  0  0  0  0  0
  1  4  1  0  0  0  0
  1  5  2  0  0  0  0
  2  3  1  0  0  0  0
  2  6  2  0  0  0  0
  3  7  2  0  0  0  0
  4  8  2  0  0  0  0
  5  9  1  0  0  0  0
  6 10  1  0  0  0  0
  7 11  1  0  0  0  0
  8 12  1  0  0  0  0
  9 12  2  0  0  0  0
 10 11  2  0  0  0  0
 10 13  1  0  0  0  0
 11 14  1  0  0  0  0
 12 23  1  0  0  0  0
 13 27  1  0  0  0  0
 13 28  2  0  0  0  0
 14 27  1  0  0  0  0
 14 29  2  0  0  0  0
 15 24  1  0  0  0  0
 15 30  2  0  0  0  0
 15 31  1  0  0  0  0
 16 22  1  0  0  0  0
 16 23  1  0  0  0  0
 17 22  1  0  0  0  0
 17 24  1  0  0  0  0
 18 22  1  0  0  0  0
 18 25  1  0  0  0  0
 19 23  1  0  0  0  0
 19 24  1  0  0  0  0
 20 23  1  0  0  0  0
 20 25  1  0  0  0  0
 21 24  1  0  0  0  0
 21 25  1  0  0  0  0
 25 26  1  0  0  0  0
 27 31  1  0  0  0  0
  1 32  1  0  0  0  0
  2 33  1  0  0  0  0
  3 34  1  0  0  0  0
  4 35  1  0  0  0  0
  5 36  1  0  0  0  0
  6 37  1  0  0  0  0
  7 38  1  0  0  0  0
  8 39  1  0  0  0  0
  9 40  1  0  0  0  0
 16 41  1  0  0  0  0
 16 42  1  0  0  0  0
 17 43  1  0  0  0  0
 17 44  1  0  0  0  0
 18 45  1  0  0  0  0
 18 46  1  0  0  0  0
 19 47  1  0  0  0  0
 19 48  1  0  0  0  0
 20 49  1  0  0  0  0
 20 50  1  0  0  0  0
 21 51  1  0  0  0  0
 21 52  1  0  0  0  0
 22 53  1  0  0  0  0
 26 54  1  0  0  0  0
 26 55  1  0  0  0  0
 26 56  1  0  0  0  0
M  END
> <id>
EN300-6524834

> <smiles>
CC1(CC2CC3(C1)C(=O)ON4C(=O)C=5C=CC=CC5C4=O)CC(C2)(C3)C=6C=CC=CC6

> <IUPAC Name>
1,3-dioxo-2,3-dihydro-1H-isoindol-2-yl 3-methyl-5-phenyladamantane-1-carboxylate

> <CAS>
2248365-05-9

> <URL>
https://www.enaminestore.com/catalog/EN300-6524834

> <ROCS_ShapeQuery>
x0446_0A_x1080_0A_x0929_0A_x0812_0A_x0719_0A_x1140_0A_x0528_0A_x0310_0A

> <ROCS_TanimotoCombo>
0.425 

> <ROCS_ShapeTanimoto>
0.251 

> <ROCS_ColorTanimoto>
0.174 

> <ROCS_RefTversky>
0.235 

> <ROCS_RefColorTversky>
0.204 

> <ROCS_RefTverskyCombo>
0.439 

> <ROCS_FitTversky>
1.380 

> <ROCS_FitColorTversky>
0.536 

> <ROCS_FitTverskyCombo>
1.916 

> <ROCS_ColorScore>
-7.344

> <ROCS_Overlap>
2778.915

> <ROCS_Rank>
129                 

$$$$
untitled-dbase-3604_9
  -OEChem-02082415563D

 46 49  0     0  0  0  0  0  0999 V2000
    5.6459   12.2746   25.1790 C   0  0  0  0  0  0  0  0  0  0  0  0
    6.1977   13.5015   24.8308 C   0  0  0  0  0  0  0  0  0  0  0  0
   12.3165   15.9502   23.3656 C   0  0  0  0  0  0  0  0  0  0  0  0
    6.3970   11.1127   25.0247 C   0  0  0  0  0  0  0  0  0  0  0  0
   12.6909   14.6067   23.3522 C   0  0  0  0  0  0  0  0  0  0  0  0
    7.4996   13.5665   24.3285 C   0  0  0  0  0  0  0  0  0  0  0  0
   11.1936   16.3685   22.6515 C   0  0  0  0  0  0  0  0  0  0  0  0
    7.7062   11.1735   24.5204 C   0  0  0  0  0  0  0  0  0  0  0  0
   11.9426   13.6814   22.6245 C   0  0  0  0  0  0  0  0  0  0  0  0
    8.4763   10.0111   24.3590 C   0  0  0  0  0  0  0  0  0  0  0  0
    9.7562   10.1290   23.8596 C   0  0  0  0  0  0  0  0  0  0  0  0
    8.2758   12.4238   24.1628 C   0  0  0  0  0  0  0  0  0  0  0  0
   10.4454   15.4432   21.9238 C   0  0  0  0  0  0  0  0  0  0  0  0
   10.8198   14.0996   21.9103 C   0  0  0  0  0  0  0  0  0  0  0  0
   10.2215   11.3878   23.5408 C   0  0  0  0  0  0  0  0  0  0  0  0
   11.5844   11.2899   23.0343 C   0  0  0  0  0  0  0  0  0  0  0  0
   12.3494   12.3070   22.6273 C   0  0  0  0  0  0  0  0  0  0  0  0
    7.9776    8.6815   24.6982 C   0  0  0  0  0  0  0  0  0  0  0  0
   10.7590    9.0574   23.5989 C   0  0  0  0  0  0  0  0  0  0  0  0
   11.9753    9.8320   23.0525 C   0  0  0  0  0  0  0  0  0  0  0  0
    9.0392   17.2565   21.2987 C   0  0  0  0  0  0  0  0  0  0  0  0
   10.4559   12.9959   19.8354 C   0  0  0  0  0  0  0  0  0  0  0  0
    9.5280   12.5314   23.6749 N   0  0  0  0  0  0  0  0  0  0  0  0
    7.6042    8.3271   25.8176 O   0  0  0  0  0  0  0  0  0  0  0  0
    7.9638    7.8476   23.6251 O   0  0  0  0  0  0  0  0  0  0  0  0
    9.3513   15.8665   21.2310 O   0  0  0  0  0  0  0  0  0  0  0  0
   10.0786   13.2054   21.1936 O   0  0  0  0  0  0  0  0  0  0  0  0
    4.6341   12.2223   25.5693 H   0  0  0  0  0  0  0  0  0  0  0  0
    5.6171   14.4119   24.9484 H   0  0  0  0  0  0  0  0  0  0  0  0
   12.8982   16.6701   23.9338 H   0  0  0  0  0  0  0  0  0  0  0  0
    5.9377   10.1682   25.3060 H   0  0  0  0  0  0  0  0  0  0  0  0
   13.5684   14.2967   23.9148 H   0  0  0  0  0  0  0  0  0  0  0  0
    7.9070   14.5406   24.0637 H   0  0  0  0  0  0  0  0  0  0  0  0
   10.9064   17.4164   22.6674 H   0  0  0  0  0  0  0  0  0  0  0  0
   13.3418   12.0691   22.2465 H   0  0  0  0  0  0  0  0  0  0  0  0
   11.0198    8.5258   24.5199 H   0  0  0  0  0  0  0  0  0  0  0  0
   10.3899    8.3420   22.8566 H   0  0  0  0  0  0  0  0  0  0  0  0
   12.2260    9.4812   22.0447 H   0  0  0  0  0  0  0  0  0  0  0  0
   12.8471    9.6696   23.6967 H   0  0  0  0  0  0  0  0  0  0  0  0
    8.1458   17.4595   20.7032 H   0  0  0  0  0  0  0  0  0  0  0  0
    9.8828   17.8391   20.9200 H   0  0  0  0  0  0  0  0  0  0  0  0
    8.8497   17.5279   22.3400 H   0  0  0  0  0  0  0  0  0  0  0  0
    9.7865   12.2622   19.3795 H   0  0  0  0  0  0  0  0  0  0  0  0
   11.4879   12.6387   19.7939 H   0  0  0  0  0  0  0  0  0  0  0  0
   10.3779   13.9422   19.2948 H   0  0  0  0  0  0  0  0  0  0  0  0
    7.6292    6.9514   23.8426 H   0  0  0  0  0  0  0  0  0  0  0  0
  1  2  1  0  0  0  0
  1  4  2  0  0  0  0
  2  6  2  0  0  0  0
  3  5  1  0  0  0  0
  3  7  2  0  0  0  0
  4  8  1  0  0  0  0
  5  9  2  0  0  0  0
  6 12  1  0  0  0  0
  7 13  1  0  0  0  0
  8 10  1  0  0  0  0
  8 12  2  0  0  0  0
  9 14  1  0  0  0  0
  9 17  1  4  0  0  0
 10 11  2  0  0  0  0
 10 18  1  0  0  0  0
 11 15  1  0  0  0  0
 11 19  1  0  0  0  0
 12 23  1  0  0  0  0
 13 14  2  0  0  0  0
 13 26  1  0  0  0  0
 14 27  1  0  0  0  0
 15 16  1  0  0  0  0
 15 23  2  0  0  0  0
 16 17  2  0  0  0  0
 16 20  1  0  0  0  0
 18 24  2  0  0  0  0
 18 25  1  0  0  0  0
 19 20  1  0  0  0  0
 21 26  1  0  0  0  0
 22 27  1  0  0  0  0
  1 28  1  0  0  0  0
  2 29  1  0  0  0  0
  3 30  1  0  0  0  0
  4 31  1  0  0  0  0
  5 32  1  0  0  0  0
  6 33  1  0  0  0  0
  7 34  1  0  0  0  0
 17 35  1  0  0  0  0
 19 36  1  0  0  0  0
 19 37  1  0  0  0  0
 20 38  1  0  0  0  0
 20 39  1  0  0  0  0
 21 40  1  0  0  0  0
 21 41  1  0  0  0  0
 21 42  1  0  0  0  0
 22 43  1  0  0  0  0
 22 44  1  0  0  0  0
 22 45  1  0  0  0  0
 25 46  1  0  0  0  0
M  END
> <id>
EN300-00943

> <smiles>
COC=1C=CC=C(C=C2CCC=3C2=NC=4C=CC=CC4C3C(=O)O)C1OC

> <MDLNUMBER>
MFCD26143497

> <IUPAC Name>
3-[(2,3-dimethoxyphenyl)methylidene]-1H,2H,3H-cyclopenta[b]quinoline-9-carboxylic acid

> <CAS>
750617-49-3

> <Purity>
95

> <URL>
https://www.enaminestore.com/catalog/EN300-00943

> <ROCS_ShapeQuery>
x0446_0A_x1080_0A_x0929_0A_x0812_0A_x0719_0A_x1140_0A_x0528_0A_x0310_0A

> <ROCS_TanimotoCombo>
0.424 

> <ROCS_ShapeTanimoto>
0.273 

> <ROCS_ColorTanimoto>
0.151 

> <ROCS_RefTversky>
0.248 

> <ROCS_RefColorTversky>
0.173 

> <ROCS_RefTverskyCombo>
0.421 

> <ROCS_FitTversky>
1.612 

> <ROCS_FitColorTversky>
0.544 

> <ROCS_FitTverskyCombo>
2.156 

> <ROCS_ColorScore>
-6.202

> <ROCS_Overlap>
2927.775

> <ROCS_Rank>
130                 

$$$$
untitled-dbase-258515_7
  -OEChem-02082415563D

 61 65  0     1  0  0  0  0  0999 V2000
    3.8622   14.4623   25.4704 C   0  0  0  0  0  0  0  0  0  0  0  0
    4.2542   13.3351   26.1925 C   0  0  0  0  0  0  0  0  0  0  0  0
    4.1243   14.5402   24.1025 C   0  0  0  0  0  0  0  0  0  0  0  0
    4.9083   12.2858   25.5468 C   0  0  0  0  0  0  0  0  0  0  0  0
    4.7784   13.4909   23.4569 C   0  0  0  0  0  0  0  0  0  0  0  0
    5.1704   12.3638   24.1790 C   0  0  0  0  0  0  0  0  0  0  0  0
    9.6684   14.2293   22.1071 C   0  0  0  0  0  0  0  0  0  0  0  0
   10.1062   10.5006   24.2487 C   0  0  0  0  0  0  0  0  0  0  0  0
    9.7945   12.9888   24.2566 C   0  0  0  0  0  0  0  0  0  0  0  0
    9.9738   11.7503   22.0787 C   0  0  0  0  0  0  0  0  0  0  0  0
    7.9114   11.4879   24.9557 C   0  0  0  0  0  0  0  0  0  0  0  0
    8.0909   10.2486   22.7767 C   0  0  0  0  0  0  0  0  0  0  0  0
    7.7763   12.7427   22.7818 C   0  0  0  0  0  0  0  0  0  0  0  0
   11.4585   15.7824   21.4029 C   0  0  0  0  0  0  0  0  0  0  0  0
   12.1185   13.6680   22.4790 C   0  0  0  0  0  0  0  0  0  0  0  0
   12.5028   16.5134   22.2459 C   0  0  0  0  0  0  0  0  0  0  0  0
   13.1554   14.4392   23.2978 C   0  0  0  0  0  0  0  0  0  0  0  0
    9.4380   11.6781   24.9772 C   0  0  1  0  0  0  0  0  0  0  0  0
    9.6180   10.4356   22.7922 C   0  0  2  0  0  0  0  0  0  0  0  0
    9.3050   12.9384   22.7965 C   0  0  0  0  0  0  0  0  0  0  0  0
    7.3941   11.4259   23.4991 C   0  0  0  0  0  0  0  0  0  0  0  0
   15.1759   17.5053   22.5890 C   0  0  0  0  0  0  0  0  0  0  0  0
    5.8752   11.2340   23.4829 C   0  0  0  0  0  0  0  0  0  0  0  0
   14.6407   16.3370   23.3450 C   0  0  0  0  0  0  0  0  0  0  0  0
   11.0251   14.5453   22.0505 N   0  0  0  0  0  0  0  0  0  0  0  0
   13.6285   15.6240   22.5669 N   0  0  0  0  0  0  0  0  0  0  0  0
    8.7730   14.9359   21.6374 O   0  0  0  0  0  0  0  0  0  0  0  0
    3.3517   15.2786   25.9730 H   0  0  0  0  0  0  0  0  0  0  0  0
    4.0492   13.2738   27.2573 H   0  0  0  0  0  0  0  0  0  0  0  0
    3.8183   15.4171   23.5398 H   0  0  0  0  0  0  0  0  0  0  0  0
    5.2102   11.4116   26.1175 H   0  0  0  0  0  0  0  0  0  0  0  0
    4.9785   13.5604   22.3909 H   0  0  0  0  0  0  0  0  0  0  0  0
   11.1968   10.6154   24.2732 H   0  0  0  0  0  0  0  0  0  0  0  0
    9.8734    9.5606   24.7640 H   0  0  0  0  0  0  0  0  0  0  0  0
    9.3420   13.8399   24.7825 H   0  0  0  0  0  0  0  0  0  0  0  0
   10.8800   13.1503   24.2903 H   0  0  0  0  0  0  0  0  0  0  0  0
   11.0641   11.8787   22.0587 H   0  0  0  0  0  0  0  0  0  0  0  0
    9.6512   11.7073   21.0301 H   0  0  0  0  0  0  0  0  0  0  0  0
    7.6480   10.5666   25.4913 H   0  0  0  0  0  0  0  0  0  0  0  0
    7.4298   12.3139   25.4947 H   0  0  0  0  0  0  0  0  0  0  0  0
    7.7389   10.1786   21.7393 H   0  0  0  0  0  0  0  0  0  0  0  0
    7.8314    9.2989   23.2619 H   0  0  0  0  0  0  0  0  0  0  0  0
    7.2816   13.5941   23.2693 H   0  0  0  0  0  0  0  0  0  0  0  0
    7.4090   12.7314   21.7464 H   0  0  0  0  0  0  0  0  0  0  0  0
   10.5646   16.4074   21.2741 H   0  0  0  0  0  0  0  0  0  0  0  0
   11.8671   15.5984   20.4059 H   0  0  0  0  0  0  0  0  0  0  0  0
   12.6011   13.2021   21.6154 H   0  0  0  0  0  0  0  0  0  0  0  0
   11.6723   12.8666   23.0786 H   0  0  0  0  0  0  0  0  0  0  0  0
   12.8478   17.4074   21.7112 H   0  0  0  0  0  0  0  0  0  0  0  0
   12.0222   16.8494   23.1717 H   0  0  0  0  0  0  0  0  0  0  0  0
   12.6850   14.7491   24.2398 H   0  0  0  0  0  0  0  0  0  0  0  0
   13.9915   13.7738   23.5552 H   0  0  0  0  0  0  0  0  0  0  0  0
    9.7904   11.7188   26.0139 H   0  0  0  0  0  0  0  0  0  0  0  0
   10.0980    9.5951   22.2786 H   0  0  0  0  0  0  0  0  0  0  0  0
   14.3547   18.1987   22.3551 H   0  0  0  0  0  0  0  0  0  0  0  0
   15.9300   18.0230   23.2000 H   0  0  0  0  0  0  0  0  0  0  0  0
   15.6384   17.1561   21.6540 H   0  0  0  0  0  0  0  0  0  0  0  0
    5.6271   10.2832   23.9625 H   0  0  0  0  0  0  0  0  0  0  0  0
    5.5326   11.1579   22.4473 H   0  0  0  0  0  0  0  0  0  0  0  0
   15.4675   15.6489   23.5749 H   0  0  0  0  0  0  0  0  0  0  0  0
   14.1883   16.6927   24.2824 H   0  0  0  0  0  0  0  0  0  0  0  0
  1  2  1  0  0  0  0
  1  3  2  0  0  0  0
  2  4  2  0  0  0  0
  3  5  1  0  0  0  0
  4  6  1  0  0  0  0
  5  6  2  0  0  0  0
  6 23  1  0  0  0  0
  7 20  1  0  0  0  0
  7 25  1  0  0  0  0
  7 27  2  0  0  0  0
  8 18  1  0  0  0  0
  8 19  1  0  0  0  0
  9 18  1  0  0  0  0
  9 20  1  0  0  0  0
 10 19  1  0  0  0  0
 10 20  1  0  0  0  0
 11 18  1  0  0  0  0
 11 21  1  0  0  0  0
 12 19  1  0  0  0  0
 12 21  1  0  0  0  0
 13 20  1  0  0  0  0
 13 21  1  0  0  0  0
 14 16  1  0  0  0  0
 14 25  1  0  0  0  0
 15 17  1  0  0  0  0
 15 25  1  0  0  0  0
 16 26  1  0  0  0  0
 17 26  1  0  0  0  0
 21 23  1  0  0  0  0
 22 24  1  0  0  0  0
 24 26  1  0  0  0  0
  1 28  1  0  0  0  0
  2 29  1  0  0  0  0
  3 30  1  0  0  0  0
  4 31  1  0  0  0  0
  5 32  1  0  0  0  0
  8 33  1  0  0  0  0
  8 34  1  0  0  0  0
  9 35  1  0  0  0  0
  9 36  1  0  0  0  0
 10 37  1  0  0  0  0
 10 38  1  0  0  0  0
 11 39  1  0  0  0  0
 11 40  1  0  0  0  0
 12 41  1  0  0  0  0
 12 42  1  0  0  0  0
 13 43  1  0  0  0  0
 13 44  1  0  0  0  0
 14 45  1  0  0  0  0
 14 46  1  0  0  0  0
 15 47  1  0  0  0  0
 15 48  1  0  0  0  0
 16 49  1  0  0  0  0
 16 50  1  0  0  0  0
 17 51  1  0  0  0  0
 17 52  1  0  0  0  0
 18 53  1  0  0  0  0
 19 54  1  0  0  0  0
 22 55  1  0  0  0  0
 22 56  1  0  0  0  0
 22 57  1  0  0  0  0
 23 58  1  0  0  0  0
 23 59  1  0  0  0  0
 24 60  1  0  0  0  0
 24 61  1  0  0  0  0
M  END
> <id>
EN300-26868058

> <smiles>
CCN1CCN(CC1)C(=O)C2(CC3CC4CC(CC=5C=CC=CC5)(C3)C2)C4

> <IUPAC Name>
1-(3-benzyladamantane-1-carbonyl)-4-ethylpiperazine

> <CAS>
930471-23-1

> <URL>
https://www.enaminestore.com/catalog/EN300-26868058

> <ROCS_ShapeQuery>
x0446_0A_x1080_0A_x0929_0A_x0812_0A_x0719_0A_x1140_0A_x0528_0A_x0310_0A

> <ROCS_TanimotoCombo>
0.424 

> <ROCS_ShapeTanimoto>
0.252 

> <ROCS_ColorTanimoto>
0.172 

> <ROCS_RefTversky>
0.232 

> <ROCS_RefColorTversky>
0.195 

> <ROCS_RefTverskyCombo>
0.427 

> <ROCS_FitTversky>
1.536 

> <ROCS_FitColorTversky>
0.593 

> <ROCS_FitTverskyCombo>
2.129 

> <ROCS_ColorScore>
-6.999

> <ROCS_Overlap>
2741.476

> <ROCS_Rank>
131                 

$$$$
untitled-dbase-517505_9
  -OEChem-02082415563D

 51 54  0     1  0  0  0  0  0999 V2000
    8.4387   14.6155   22.3515 C   0  0  0  0  0  0  0  0  0  0  0  0
    7.7674   13.7432   23.2723 C   0  0  0  0  0  0  0  0  0  0  0  0
    8.2056   12.4406   23.5516 C   0  0  0  0  0  0  0  0  0  0  0  0
    7.4797   11.6593   24.4705 C   0  0  0  0  0  0  0  0  0  0  0  0
    9.3297   11.8568   22.9717 C   0  0  0  0  0  0  0  0  0  0  0  0
    9.6827   10.5560   23.3137 C   0  0  0  0  0  0  0  0  0  0  0  0
    6.6308   14.2064   23.9177 C   0  0  0  0  0  0  0  0  0  0  0  0
    7.9258   10.3550   24.7443 C   0  0  0  0  0  0  0  0  0  0  0  0
    6.3506   12.2316   25.0597 C   0  0  0  0  0  0  0  0  0  0  0  0
   11.2771   11.2458   21.7791 C   0  0  0  0  0  0  0  0  0  0  0  0
   10.3015   12.4056   21.9753 C   0  0  0  0  0  0  0  0  0  0  0  0
   12.6225    7.0821   21.6837 C   0  0  0  0  0  0  0  0  0  0  0  0
   13.4886    7.6168   22.8277 C   0  0  0  0  0  0  0  0  0  0  0  0
   11.5763    8.1589   21.4082 C   0  0  0  0  0  0  0  0  0  0  0  0
   12.9185    8.9875   23.1831 C   0  0  0  0  0  0  0  0  0  0  0  0
   11.4645    8.8994   22.7355 C   0  0  0  0  0  0  0  0  0  0  0  0
    6.6483   16.6332   24.4380 C   0  0  0  0  0  0  0  0  0  0  0  0
    5.2432   15.7575   22.5652 C   0  0  0  0  0  0  0  0  0  0  0  0
    4.3416   14.5482   22.3970 C   0  0  0  0  0  0  0  0  0  0  0  0
    8.9815   15.3210   21.6069 N   0  0  0  0  0  0  0  0  0  0  0  0
    9.0167    9.7794   24.1848 N   0  0  0  0  0  0  0  0  0  0  0  0
    5.9108   13.4845   24.8043 N   0  0  0  0  0  0  0  0  0  0  0  0
   10.8386   10.2025   22.6006 N   0  0  0  0  0  0  0  0  0  0  0  0
    7.2384    9.5241   25.6588 N   0  0  0  0  0  0  0  0  0  0  0  0
    5.5641   11.5185   25.9922 N   0  0  0  0  0  0  0  0  0  0  0  0
    6.1740   15.5217   23.6454 N   0  0  3  0  0  0  0  0  0  0  0  0
   12.2453   11.2683   21.0340 O   0  0  0  0  0  0  0  0  0  0  0  0
    3.4046   14.7987   21.3572 O   0  0  0  0  0  0  0  0  0  0  0  0
    9.8257   12.6239   21.0154 H   0  0  0  0  0  0  0  0  0  0  0  0
   10.8558   13.2605   22.3716 H   0  0  0  0  0  0  0  0  0  0  0  0
   13.2159    6.8657   20.7897 H   0  0  0  0  0  0  0  0  0  0  0  0
   12.1372    6.1484   21.9909 H   0  0  0  0  0  0  0  0  0  0  0  0
   13.4244    6.9418   23.6889 H   0  0  0  0  0  0  0  0  0  0  0  0
   14.5432    7.6855   22.5423 H   0  0  0  0  0  0  0  0  0  0  0  0
   11.9380    8.8265   20.6159 H   0  0  0  0  0  0  0  0  0  0  0  0
   10.6229    7.7314   21.0832 H   0  0  0  0  0  0  0  0  0  0  0  0
   13.0189    9.2103   24.2498 H   0  0  0  0  0  0  0  0  0  0  0  0
   13.4561    9.7621   22.6216 H   0  0  0  0  0  0  0  0  0  0  0  0
   10.8758    8.3231   23.4533 H   0  0  0  0  0  0  0  0  0  0  0  0
    6.1852   17.5642   24.0790 H   0  0  0  0  0  0  0  0  0  0  0  0
    6.3792   16.4728   25.4924 H   0  0  0  0  0  0  0  0  0  0  0  0
    7.7419   16.7087   24.3461 H   0  0  0  0  0  0  0  0  0  0  0  0
    5.8175   15.9541   21.6543 H   0  0  0  0  0  0  0  0  0  0  0  0
    4.6503   16.6431   22.8131 H   0  0  0  0  0  0  0  0  0  0  0  0
    3.7817   14.3669   23.3198 H   0  0  0  0  0  0  0  0  0  0  0  0
    4.9152   13.6503   22.1453 H   0  0  0  0  0  0  0  0  0  0  0  0
    6.4508    9.8917   26.1496 H   0  0  0  0  0  0  0  0  0  0  0  0
    7.6094    8.6206   25.8652 H   0  0  0  0  0  0  0  0  0  0  0  0
    5.7964   10.5692   26.1975 H   0  0  0  0  0  0  0  0  0  0  0  0
    4.7376   11.9449   26.3562 H   0  0  0  0  0  0  0  0  0  0  0  0
    2.8506   14.0051   21.2830 H   0  0  0  0  0  0  0  0  0  0  0  0
  1  2  1  0  0  0  0
  1 20  3  0  0  0  0
  2  3  1  0  0  0  0
  2  7  2  0  0  0  0
  3  4  2  0  0  0  0
  3  5  1  0  0  0  0
  4  8  1  0  0  0  0
  4  9  1  0  0  0  0
  5  6  2  0  0  0  0
  5 11  1  0  0  0  0
  6 21  1  0  0  0  0
  6 23  1  0  0  0  0
  7 22  1  0  0  0  0
  7 26  1  0  0  0  0
  8 21  2  0  0  0  0
  8 24  1  0  0  0  0
  9 22  2  0  0  0  0
  9 25  1  0  0  0  0
 10 11  1  0  0  0  0
 10 23  1  0  0  0  0
 10 27  2  0  0  0  0
 12 13  1  0  0  0  0
 12 14  1  0  0  0  0
 13 15  1  0  0  0  0
 14 16  1  0  0  0  0
 15 16  1  0  0  0  0
 16 23  1  0  0  0  0
 17 26  1  0  0  0  0
 18 19  1  0  0  0  0
 18 26  1  0  0  0  0
 19 28  1  0  0  0  0
 11 29  1  0  0  0  0
 11 30  1  0  0  0  0
 12 31  1  0  0  0  0
 12 32  1  0  0  0  0
 13 33  1  0  0  0  0
 13 34  1  0  0  0  0
 14 35  1  0  0  0  0
 14 36  1  0  0  0  0
 15 37  1  0  0  0  0
 15 38  1  0  0  0  0
 16 39  1  0  0  0  0
 17 40  1  0  0  0  0
 17 41  1  0  0  0  0
 17 42  1  0  0  0  0
 18 43  1  0  0  0  0
 18 44  1  0  0  0  0
 19 45  1  0  0  0  0
 19 46  1  0  0  0  0
 24 47  1  0  0  0  0
 24 48  1  0  0  0  0
 25 49  1  0  0  0  0
 25 50  1  0  0  0  0
 28 51  1  0  0  0  0
M  END
> <id>
EN300-18203876

> <smiles>
CN(CCO)C=1N=C(N)C=2C(N)=NC=3N(C4CCCC4)C(=O)CC3C2C1C#N

> <MDLNUMBER>
MFCD06338674

> <IUPAC Name>
5,6-diamino-3-cyclopentyl-8-[(2-hydroxyethyl)(methyl)amino]-2-oxo-1H,2H,3H-pyrrolo[2,3-c]2,7-naphthyridine-9-carbonitrile

> <CAS>
753467-65-1

> <Purity>
95

> <URL>
https://www.enaminestore.com/catalog/EN300-18203876

> <ROCS_ShapeQuery>
x0446_0A_x1080_0A_x0929_0A_x0812_0A_x0719_0A_x1140_0A_x0528_0A_x0310_0A

> <ROCS_TanimotoCombo>
0.424 

> <ROCS_ShapeTanimoto>
0.248 

> <ROCS_ColorTanimoto>
0.176 

> <ROCS_RefTversky>
0.230 

> <ROCS_RefColorTversky>
0.213 

> <ROCS_RefTverskyCombo>
0.443 

> <ROCS_FitTversky>
1.470 

> <ROCS_FitColorTversky>
0.504 

> <ROCS_FitTverskyCombo>
1.974 

> <ROCS_ColorScore>
-7.664

> <ROCS_Overlap>
2722.153

> <ROCS_Rank>
132                 

$$$$
untitled-dbase-320587_3
  -OEChem-02082415563D

 41 44  0     1  0  0  0  0  0999 V2000
   12.0878   13.5398   22.1177 C   0  0  0  0  0  0  0  0  0  0  0  0
   12.3898   14.7664   21.5784 C   0  0  0  0  0  0  0  0  0  0  0  0
   11.1712   15.4709   21.6022 C   0  0  0  0  0  0  0  0  0  0  0  0
    6.1067   13.4729   24.9231 C   0  0  0  0  0  0  0  0  0  0  0  0
    9.7586    9.7520   24.1272 C   0  0  0  0  0  0  0  0  0  0  0  0
    8.2669   11.4444   25.2197 C   0  0  0  0  0  0  0  0  0  0  0  0
    7.7219   10.5814   22.9250 C   0  0  0  0  0  0  0  0  0  0  0  0
   10.5405   12.1150   24.4097 C   0  0  0  0  0  0  0  0  0  0  0  0
   10.0065   11.2391   22.1233 C   0  0  0  0  0  0  0  0  0  0  0  0
    8.4980   12.9540   23.2232 C   0  0  0  0  0  0  0  0  0  0  0  0
    9.7192   10.9809   25.0440 C   0  0  2  0  0  0  0  0  0  0  0  0
    9.1754   10.1100   22.7548 C   0  0  1  0  0  0  0  0  0  0  0  0
    7.6573   11.8170   23.8520 C   0  0  0  0  0  0  0  0  0  0  0  0
    9.9799   12.5206   23.0084 C   0  0  0  0  0  0  0  0  0  0  0  0
    6.2049   12.2710   24.0267 C   0  0  0  0  0  0  0  0  0  0  0  0
   10.1697   14.7517   22.1158 N   0  0  0  0  0  0  0  0  0  0  0  0
   10.7584   13.5825   22.4197 N   0  0  0  0  0  0  0  0  0  0  0  0
   10.8324   16.7691   21.1906 N   0  3  0  0  0  0  0  0  0  0  0  0
    9.6436   17.1752   21.3201 O   0  5  0  0  0  0  0  0  0  0  0  0
    5.9701   13.4680   26.1373 O   0  0  0  0  0  0  0  0  0  0  0  0
   11.7196   17.5186   20.6944 O   0  0  0  0  0  0  0  0  0  0  0  0
    6.1935   14.6046   24.1780 O   0  0  0  0  0  0  0  0  0  0  0  0
   14.0311   15.3840   20.9481 Br  0  0  0  0  0  0  0  0  0  0  0  0
   12.6895   12.6614   22.3081 H   0  0  0  0  0  0  0  0  0  0  0  0
   10.7914    9.3991   24.0160 H   0  0  0  0  0  0  0  0  0  0  0  0
    9.1878    8.9295   24.5757 H   0  0  0  0  0  0  0  0  0  0  0  0
    7.6796   10.6477   25.6943 H   0  0  0  0  0  0  0  0  0  0  0  0
    8.2335   12.3061   25.8988 H   0  0  0  0  0  0  0  0  0  0  0  0
    7.2934   10.8198   21.9430 H   0  0  0  0  0  0  0  0  0  0  0  0
    7.1182    9.7645   23.3412 H   0  0  0  0  0  0  0  0  0  0  0  0
   10.5432   12.9882   25.0760 H   0  0  0  0  0  0  0  0  0  0  0  0
   11.5895   11.8032   24.3138 H   0  0  0  0  0  0  0  0  0  0  0  0
   11.0419   10.9035   21.9774 H   0  0  0  0  0  0  0  0  0  0  0  0
    9.6149   11.4708   21.1239 H   0  0  0  0  0  0  0  0  0  0  0  0
    8.0628   13.2516   22.2591 H   0  0  0  0  0  0  0  0  0  0  0  0
    8.4620   13.8480   23.8611 H   0  0  0  0  0  0  0  0  0  0  0  0
   10.1429   10.7237   26.0213 H   0  0  0  0  0  0  0  0  0  0  0  0
    9.2011    9.2289   22.1036 H   0  0  0  0  0  0  0  0  0  0  0  0
    5.7970   12.5230   23.0470 H   0  0  0  0  0  0  0  0  0  0  0  0
    5.6330   11.4522   24.4651 H   0  0  0  0  0  0  0  0  0  0  0  0
    6.1334   15.4124   24.7315 H   0  0  0  0  0  0  0  0  0  0  0  0
  1  2  2  0  0  0  0
  1 17  1  0  0  0  0
  2  3  1  0  0  0  0
  2 23  1  0  0  0  0
  3 16  2  0  0  0  0
  3 18  1  0  0  0  0
  4 15  1  0  0  0  0
  4 20  2  0  0  0  0
  4 22  1  0  0  0  0
  5 11  1  0  0  0  0
  5 12  1  0  0  0  0
  6 11  1  0  0  0  0
  6 13  1  0  0  0  0
  7 12  1  0  0  0  0
  7 13  1  0  0  0  0
  8 11  1  0  0  0  0
  8 14  1  0  0  0  0
  9 12  1  0  0  0  0
  9 14  1  0  0  0  0
 10 13  1  0  0  0  0
 10 14  1  0  0  0  0
 13 15  1  0  0  0  0
 14 17  1  0  0  0  0
 16 17  1  0  0  0  0
 18 19  1  0  0  0  0
 18 21  2  0  0  0  0
  1 24  1  0  0  0  0
  5 25  1  0  0  0  0
  5 26  1  0  0  0  0
  6 27  1  0  0  0  0
  6 28  1  0  0  0  0
  7 29  1  0  0  0  0
  7 30  1  0  0  0  0
  8 31  1  0  0  0  0
  8 32  1  0  0  0  0
  9 33  1  0  0  0  0
  9 34  1  0  0  0  0
 10 35  1  0  0  0  0
 10 36  1  0  0  0  0
 11 37  1  0  0  0  0
 12 38  1  0  0  0  0
 15 39  1  0  0  0  0
 15 40  1  0  0  0  0
 22 41  1  0  0  0  0
M  CHG  2  18   1  19  -1
M  END
> <id>
EN300-228904

> <smiles>
OC(=O)CC1(CC2CC3C1)CC(C2)(C3)N4C=C(Br)C(=N4)[N+](=O)[O-]

> <MDLNUMBER>
MFCD04967172

> <IUPAC Name>
2-[3-(4-bromo-3-nitro-1H-pyrazol-1-yl)adamantan-1-yl]acetic acid

> <CAS>
1004944-59-5

> <Purity>
95

> <URL>
https://www.enaminestore.com/catalog/EN300-228904

> <ROCS_ShapeQuery>
x0446_0A_x1080_0A_x0929_0A_x0812_0A_x0719_0A_x1140_0A_x0528_0A_x0310_0A

> <ROCS_TanimotoCombo>
0.424 

> <ROCS_ShapeTanimoto>
0.261 

> <ROCS_ColorTanimoto>
0.163 

> <ROCS_RefTversky>
0.235 

> <ROCS_RefColorTversky>
0.201 

> <ROCS_RefTverskyCombo>
0.437 

> <ROCS_FitTversky>
1.713 

> <ROCS_FitColorTversky>
0.465 

> <ROCS_FitTverskyCombo>
2.178 

> <ROCS_ColorScore>
-7.258

> <ROCS_Overlap>
2780.656

> <ROCS_Rank>
133                 

$$$$
untitled-dbase-356552_5
  -OEChem-02082415563D

 38 41  0     0  0  0  0  0  0999 V2000
   13.9169   17.0382   22.3727 C   0  0  0  0  0  0  0  0  0  0  0  0
   10.2144   14.9519   21.9839 C   0  0  0  0  0  0  0  0  0  0  0  0
   11.4398   15.8063   21.7486 C   0  0  0  0  0  0  0  0  0  0  0  0
   12.0296   13.9359   22.8878 C   0  0  0  0  0  0  0  0  0  0  0  0
    8.5225   10.1499   22.6174 C   0  0  0  0  0  0  0  0  0  0  0  0
    7.1741   11.7545   23.9944 C   0  0  0  0  0  0  0  0  0  0  0  0
    9.1594   10.5995   25.0011 C   0  0  0  0  0  0  0  0  0  0  0  0
    8.6151   12.6075   22.1280 C   0  0  0  0  0  0  0  0  0  0  0  0
   10.6023   11.4510   23.1357 C   0  0  0  0  0  0  0  0  0  0  0  0
    9.2522   13.0580   24.5154 C   0  0  0  0  0  0  0  0  0  0  0  0
    7.7060   11.4528   22.5830 C   0  0  0  0  0  0  0  0  0  0  0  0
    9.7014   10.2917   23.5949 C   0  0  0  0  0  0  0  0  0  0  0  0
    8.3459   11.9047   24.9795 C   0  0  0  0  0  0  0  0  0  0  0  0
    9.8031   12.7727   23.1015 C   0  0  0  0  0  0  0  0  0  0  0  0
   13.8499   15.5786   22.3312 C   0  0  0  0  0  0  0  0  0  0  0  0
   13.9737   18.1967   22.4060 N   0  0  0  0  0  0  0  0  0  0  0  0
   10.6566   13.8572   22.6687 N   0  0  0  0  0  0  0  0  0  0  0  0
   12.4738   15.1251   22.3190 N   0  0  0  0  0  0  0  0  0  0  0  0
    9.1132   15.2783   21.5949 O   0  0  0  0  0  0  0  0  0  0  0  0
   11.3875   16.8645   21.1589 O   0  0  0  0  0  0  0  0  0  0  0  0
   12.7193   13.1089   23.4735 O   0  0  0  0  0  0  0  0  0  0  0  0
    7.8813    9.3141   22.9230 H   0  0  0  0  0  0  0  0  0  0  0  0
    8.8949    9.9142   21.6128 H   0  0  0  0  0  0  0  0  0  0  0  0
    6.5757   12.6739   23.9807 H   0  0  0  0  0  0  0  0  0  0  0  0
    6.5093   10.9468   24.3246 H   0  0  0  0  0  0  0  0  0  0  0  0
    8.5291    9.7716   25.3487 H   0  0  0  0  0  0  0  0  0  0  0  0
    9.9902   10.6870   25.7119 H   0  0  0  0  0  0  0  0  0  0  0  0
    8.9793   12.4063   21.1120 H   0  0  0  0  0  0  0  0  0  0  0  0
    8.0310   13.5358   22.0798 H   0  0  0  0  0  0  0  0  0  0  0  0
   11.4583   11.5412   23.8172 H   0  0  0  0  0  0  0  0  0  0  0  0
   11.0092   11.2262   22.1411 H   0  0  0  0  0  0  0  0  0  0  0  0
    8.6821   13.9960   24.5196 H   0  0  0  0  0  0  0  0  0  0  0  0
   10.0776   13.1831   25.2285 H   0  0  0  0  0  0  0  0  0  0  0  0
    6.8671   11.3450   21.8865 H   0  0  0  0  0  0  0  0  0  0  0  0
   10.2786    9.3606   23.6162 H   0  0  0  0  0  0  0  0  0  0  0  0
    7.9609   12.1172   25.9830 H   0  0  0  0  0  0  0  0  0  0  0  0
   14.3351   15.1871   21.4325 H   0  0  0  0  0  0  0  0  0  0  0  0
   14.3359   15.1368   23.2057 H   0  0  0  0  0  0  0  0  0  0  0  0
  1 15  1  0  0  0  0
  1 16  3  0  0  0  0
  2  3  1  0  0  0  0
  2 17  1  0  0  0  0
  2 19  2  0  0  0  0
  3 18  1  0  0  0  0
  3 20  2  0  0  0  0
  4 17  1  0  0  0  0
  4 18  1  0  0  0  0
  4 21  2  0  0  0  0
  5 11  1  0  0  0  0
  5 12  1  0  0  0  0
  6 11  1  0  0  0  0
  6 13  1  0  0  0  0
  7 12  1  0  0  0  0
  7 13  1  0  0  0  0
  8 11  1  0  0  0  0
  8 14  1  0  0  0  0
  9 12  1  0  0  0  0
  9 14  1  0  0  0  0
 10 13  1  0  0  0  0
 10 14  1  0  0  0  0
 14 17  1  0  0  0  0
 15 18  1  0  0  0  0
  5 22  1  0  0  0  0
  5 23  1  0  0  0  0
  6 24  1  0  0  0  0
  6 25  1  0  0  0  0
  7 26  1  0  0  0  0
  7 27  1  0  0  0  0
  8 28  1  0  0  0  0
  8 29  1  0  0  0  0
  9 30  1  0  0  0  0
  9 31  1  0  0  0  0
 10 32  1  0  0  0  0
 10 33  1  0  0  0  0
 11 34  1  0  0  0  0
 12 35  1  0  0  0  0
 13 36  1  0  0  0  0
 15 37  1  0  0  0  0
 15 38  1  0  0  0  0
M  END
> <id>
EN300-26679838

> <smiles>
O=C1N(CC#N)C(=O)C(=O)N1C2(CC3CC4CC(C3)C2)C4

> <IUPAC Name>
2-[3-(adamantan-1-yl)-2,4,5-trioxoimidazolidin-1-yl]acetonitrile

> <CAS>
1030686-69-1

> <URL>
https://www.enaminestore.com/catalog/EN300-26679838

> <ROCS_ShapeQuery>
x0446_0A_x1080_0A_x0929_0A_x0812_0A_x0719_0A_x1140_0A_x0528_0A_x0310_0A

> <ROCS_TanimotoCombo>
0.424 

> <ROCS_ShapeTanimoto>
0.247 

> <ROCS_ColorTanimoto>
0.178 

> <ROCS_RefTversky>
0.224 

> <ROCS_RefColorTversky>
0.204 

> <ROCS_RefTverskyCombo>
0.428 

> <ROCS_FitTversky>
1.701 

> <ROCS_FitColorTversky>
0.575 

> <ROCS_FitTverskyCombo>
2.276 

> <ROCS_ColorScore>
-7.342

> <ROCS_Overlap>
2643.400

> <ROCS_Rank>
134                 

$$$$
untitled-dbase-258309_4
  -OEChem-02082415563D

 53 57  0     1  0  0  0  0  0999 V2000
   12.1613   16.1303   21.9947 C   0  0  0  0  0  0  0  0  0  0  0  0
   10.8038   16.0416   21.6871 C   0  0  0  0  0  0  0  0  0  0  0  0
   12.7901   15.0917   22.6815 C   0  0  0  0  0  0  0  0  0  0  0  0
   10.0749   14.9145   22.0663 C   0  0  0  0  0  0  0  0  0  0  0  0
   12.0613   13.9645   23.0608 C   0  0  0  0  0  0  0  0  0  0  0  0
   10.7036   13.8759   22.7532 C   0  0  0  0  0  0  0  0  0  0  0  0
    6.1686   12.2093   24.1669 C   0  0  0  0  0  0  0  0  0  0  0  0
    3.6932   12.6754   20.7941 C   0  0  0  0  0  0  0  0  0  0  0  0
    3.1735   12.4545   22.2137 C   0  0  0  0  0  0  0  0  0  0  0  0
    5.1581   12.2566   20.6774 C   0  0  0  0  0  0  0  0  0  0  0  0
    9.6931    9.7312   23.8663 C   0  0  0  0  0  0  0  0  0  0  0  0
    9.8939   11.4981   22.1017 C   0  0  0  0  0  0  0  0  0  0  0  0
   10.4943   12.0288   24.4783 C   0  0  0  0  0  0  0  0  0  0  0  0
    7.6297   10.7124   22.8331 C   0  0  0  0  0  0  0  0  0  0  0  0
    8.2244   11.2521   25.2111 C   0  0  0  0  0  0  0  0  0  0  0  0
    8.4159   13.0211   23.4369 C   0  0  0  0  0  0  0  0  0  0  0  0
    4.0699   13.1383   23.2424 C   0  0  0  0  0  0  0  0  0  0  0  0
    6.0180   12.9436   21.7361 C   0  0  0  0  0  0  0  0  0  0  0  0
    9.0794   10.2806   22.5711 C   0  0  2  0  0  0  0  0  0  0  0  0
    9.6754   10.8154   24.9524 C   0  0  1  0  0  0  0  0  0  0  0  0
    9.9010   12.6336   23.1716 C   0  0  0  0  0  0  0  0  0  0  0  0
    7.5991   11.8037   23.9159 C   0  0  0  0  0  0  0  0  0  0  0  0
    5.4651   12.7244   23.0787 N   0  0  0  0  0  0  0  0  0  0  0  0
    5.6920   12.0697   25.2962 O   0  0  0  0  0  0  0  0  0  0  0  0
   12.7290   17.0075   21.6982 H   0  0  0  0  0  0  0  0  0  0  0  0
   10.3142   16.8497   21.1514 H   0  0  0  0  0  0  0  0  0  0  0  0
   13.8473   15.1599   22.9202 H   0  0  0  0  0  0  0  0  0  0  0  0
    9.0174   14.8541   21.8226 H   0  0  0  0  0  0  0  0  0  0  0  0
   12.5595   13.1603   23.5957 H   0  0  0  0  0  0  0  0  0  0  0  0
    3.0851   12.1063   20.0821 H   0  0  0  0  0  0  0  0  0  0  0  0
    3.5933   13.7349   20.5285 H   0  0  0  0  0  0  0  0  0  0  0  0
    2.1527   12.8441   22.2962 H   0  0  0  0  0  0  0  0  0  0  0  0
    3.1258   11.3793   22.4259 H   0  0  0  0  0  0  0  0  0  0  0  0
    5.2407   11.1682   20.7885 H   0  0  0  0  0  0  0  0  0  0  0  0
    5.5325   12.5069   19.6786 H   0  0  0  0  0  0  0  0  0  0  0  0
    9.1312    8.8520   24.2042 H   0  0  0  0  0  0  0  0  0  0  0  0
   10.7227    9.4001   23.6831 H   0  0  0  0  0  0  0  0  0  0  0  0
   10.9238   11.1876   21.8787 H   0  0  0  0  0  0  0  0  0  0  0  0
    9.4789   11.8762   21.1573 H   0  0  0  0  0  0  0  0  0  0  0  0
   10.5124   12.7914   25.2685 H   0  0  0  0  0  0  0  0  0  0  0  0
   11.5386   11.7297   24.3161 H   0  0  0  0  0  0  0  0  0  0  0  0
    7.1744   11.0807   21.9043 H   0  0  0  0  0  0  0  0  0  0  0  0
    7.0313    9.8459   23.1446 H   0  0  0  0  0  0  0  0  0  0  0  0
    7.6418   10.4000   25.5855 H   0  0  0  0  0  0  0  0  0  0  0  0
    8.1968   12.0126   26.0026 H   0  0  0  0  0  0  0  0  0  0  0  0
    8.3670   13.8236   24.1868 H   0  0  0  0  0  0  0  0  0  0  0  0
    7.9694   13.4425   22.5249 H   0  0  0  0  0  0  0  0  0  0  0  0
    4.0355   14.2271   23.1172 H   0  0  0  0  0  0  0  0  0  0  0  0
    3.7115   12.9140   24.2520 H   0  0  0  0  0  0  0  0  0  0  0  0
    7.0464   12.5878   21.6530 H   0  0  0  0  0  0  0  0  0  0  0  0
    6.0361   14.0271   21.5682 H   0  0  0  0  0  0  0  0  0  0  0  0
    9.0981    9.5052   21.7970 H   0  0  0  0  0  0  0  0  0  0  0  0
   10.1103   10.4181   25.8765 H   0  0  0  0  0  0  0  0  0  0  0  0
  1  2  1  0  0  0  0
  1  3  2  0  0  0  0
  2  4  2  0  0  0  0
  3  5  1  0  0  0  0
  4  6  1  0  0  0  0
  5  6  2  0  0  0  0
  6 21  1  0  0  0  0
  7 22  1  0  0  0  0
  7 23  1  0  0  0  0
  7 24  2  0  0  0  0
  8  9  1  0  0  0  0
  8 10  1  0  0  0  0
  9 17  1  0  0  0  0
 10 18  1  0  0  0  0
 11 19  1  0  0  0  0
 11 20  1  0  0  0  0
 12 19  1  0  0  0  0
 12 21  1  0  0  0  0
 13 20  1  0  0  0  0
 13 21  1  0  0  0  0
 14 19  1  0  0  0  0
 14 22  1  0  0  0  0
 15 20  1  0  0  0  0
 15 22  1  0  0  0  0
 16 21  1  0  0  0  0
 16 22  1  0  0  0  0
 17 23  1  0  0  0  0
 18 23  1  0  0  0  0
  1 25  1  0  0  0  0
  2 26  1  0  0  0  0
  3 27  1  0  0  0  0
  4 28  1  0  0  0  0
  5 29  1  0  0  0  0
  8 30  1  0  0  0  0
  8 31  1  0  0  0  0
  9 32  1  0  0  0  0
  9 33  1  0  0  0  0
 10 34  1  0  0  0  0
 10 35  1  0  0  0  0
 11 36  1  0  0  0  0
 11 37  1  0  0  0  0
 12 38  1  0  0  0  0
 12 39  1  0  0  0  0
 13 40  1  0  0  0  0
 13 41  1  0  0  0  0
 14 42  1  0  0  0  0
 14 43  1  0  0  0  0
 15 44  1  0  0  0  0
 15 45  1  0  0  0  0
 16 46  1  0  0  0  0
 16 47  1  0  0  0  0
 17 48  1  0  0  0  0
 17 49  1  0  0  0  0
 18 50  1  0  0  0  0
 18 51  1  0  0  0  0
 19 52  1  0  0  0  0
 20 53  1  0  0  0  0
M  END
> <id>
EN300-26868619

> <smiles>
O=C(N1CCCCC1)C2(CC3CC4C2)CC(C3)(C4)C=5C=CC=CC5

> <IUPAC Name>
1-(3-phenyladamantane-1-carbonyl)piperidine

> <CAS>
701257-17-2

> <URL>
https://www.enaminestore.com/catalog/EN300-26868619

> <ROCS_ShapeQuery>
x0446_0A_x1080_0A_x0929_0A_x0812_0A_x0719_0A_x1140_0A_x0528_0A_x0310_0A

> <ROCS_TanimotoCombo>
0.424 

> <ROCS_ShapeTanimoto>
0.258 

> <ROCS_ColorTanimoto>
0.166 

> <ROCS_RefTversky>
0.234 

> <ROCS_RefColorTversky>
0.185 

> <ROCS_RefTverskyCombo>
0.419 

> <ROCS_FitTversky>
1.666 

> <ROCS_FitColorTversky>
0.611 

> <ROCS_FitTverskyCombo>
2.277 

> <ROCS_ColorScore>
-6.629

> <ROCS_Overlap>
2767.575

> <ROCS_Rank>
135                 

$$$$
untitled-dbase-363734_0
  -OEChem-02082415563D

 36 38  0     0  0  0  0  0  0999 V2000
    5.3576   11.6623   24.8104 C   0  0  0  0  0  0  0  0  0  0  0  0
    5.6971   13.0081   24.6610 C   0  0  0  0  0  0  0  0  0  0  0  0
   12.0858    9.7959   23.2859 C   0  0  0  0  0  0  0  0  0  0  0  0
   12.4252   11.1417   23.1363 C   0  0  0  0  0  0  0  0  0  0  0  0
    6.3232   10.6720   24.6280 C   0  0  0  0  0  0  0  0  0  0  0  0
    7.0033   13.3683   24.3286 C   0  0  0  0  0  0  0  0  0  0  0  0
   10.7796    9.4357   23.6183 C   0  0  0  0  0  0  0  0  0  0  0  0
   11.4596   12.1320   23.3186 C   0  0  0  0  0  0  0  0  0  0  0  0
    7.6283   11.0334   24.2958 C   0  0  0  0  0  0  0  0  0  0  0  0
    7.9673   12.3773   24.1466 C   0  0  0  0  0  0  0  0  0  0  0  0
    9.8155   10.4266   23.8003 C   0  0  0  0  0  0  0  0  0  0  0  0
   10.1545   11.7706   23.6509 C   0  0  0  0  0  0  0  0  0  0  0  0
    7.6457   15.3111   19.8319 C   0  0  0  0  0  0  0  0  0  0  0  0
    8.6538   14.4572   20.0337 C   0  0  0  0  0  0  0  0  0  0  0  0
    9.8301   14.8605   20.8497 C   0  0  0  0  0  0  0  0  0  0  0  0
   11.8458   13.5645   23.1522 C   0  0  0  0  0  0  0  0  0  0  0  0
   11.9953   13.9914   21.6874 C   0  0  0  0  0  0  0  0  0  0  0  0
   10.7708   13.8447   20.9472 N   0  0  0  0  0  0  0  0  0  0  0  0
    9.9265   15.9692   21.3661 O   0  0  0  0  0  0  0  0  0  0  0  0
    8.5445   10.0264   24.1263 O   0  0  0  0  0  0  0  0  0  0  0  0
    9.2384   12.7776   23.8206 O   0  0  0  0  0  0  0  0  0  0  0  0
    4.3398   11.3854   25.0692 H   0  0  0  0  0  0  0  0  0  0  0  0
    4.9425   13.7763   24.8045 H   0  0  0  0  0  0  0  0  0  0  0  0
   12.8398    9.0272   23.1429 H   0  0  0  0  0  0  0  0  0  0  0  0
   13.4467   11.4073   22.8765 H   0  0  0  0  0  0  0  0  0  0  0  0
    6.0518    9.6267   24.7452 H   0  0  0  0  0  0  0  0  0  0  0  0
    7.2605   14.4177   24.2150 H   0  0  0  0  0  0  0  0  0  0  0  0
   10.5221    8.3867   23.7336 H   0  0  0  0  0  0  0  0  0  0  0  0
    6.7914   15.0100   19.2346 H   0  0  0  0  0  0  0  0  0  0  0  0
    7.6373   16.3136   20.2454 H   0  0  0  0  0  0  0  0  0  0  0  0
    8.6226   13.4626   19.6022 H   0  0  0  0  0  0  0  0  0  0  0  0
   12.8021   13.7463   23.6701 H   0  0  0  0  0  0  0  0  0  0  0  0
   11.1157   14.2229   23.6524 H   0  0  0  0  0  0  0  0  0  0  0  0
   12.2784   15.0468   21.6232 H   0  0  0  0  0  0  0  0  0  0  0  0
   12.7628   13.4004   21.1768 H   0  0  0  0  0  0  0  0  0  0  0  0
   10.5854   12.9445   20.5073 H   0  0  0  0  0  0  0  0  0  0  0  0
  1  2  1  0  0  0  0
  1  5  2  0  0  0  0
  2  6  2  0  0  0  0
  3  4  2  0  0  0  0
  3  7  1  0  0  0  0
  4  8  1  0  0  0  0
  5  9  1  0  0  0  0
  6 10  1  0  0  0  0
  7 11  2  0  0  0  0
  8 12  2  0  0  0  0
  8 16  1  0  0  0  0
  9 10  2  0  0  0  0
  9 20  1  0  0  0  0
 10 21  1  0  0  0  0
 11 12  1  0  0  0  0
 11 20  1  0  0  0  0
 12 21  1  0  0  0  0
 13 14  2  0  0  0  0
 14 15  1  0  0  0  0
 15 18  1  0  0  0  0
 15 19  2  0  0  0  0
 16 17  1  0  0  0  0
 17 18  1  0  0  0  0
  1 22  1  0  0  0  0
  2 23  1  0  0  0  0
  3 24  1  0  0  0  0
  4 25  1  0  0  0  0
  5 26  1  0  0  0  0
  6 27  1  0  0  0  0
  7 28  1  0  0  0  0
 13 29  1  0  0  0  0
 13 30  1  0  0  0  0
 14 31  1  0  0  0  0
 16 32  1  0  0  0  0
 16 33  1  0  0  0  0
 17 34  1  0  0  0  0
 17 35  1  0  0  0  0
 18 36  1  0  0  0  0
M  END
> <id>
EN300-7471204

> <smiles>
C=CC(=O)NCCC=1C=CC=C2OC=3C=CC=CC3OC12

> <MDLNUMBER>
MFCD32859044

> <IUPAC Name>
N-[2-(oxanthren-1-yl)ethyl]prop-2-enamide

> <CAS>
2411242-63-0

> <URL>
https://www.enaminestore.com/catalog/EN300-7471204

> <ROCS_ShapeQuery>
x0446_0A_x1080_0A_x0929_0A_x0812_0A_x0719_0A_x1140_0A_x0528_0A_x0310_0A

> <ROCS_TanimotoCombo>
0.424 

> <ROCS_ShapeTanimoto>
0.242 

> <ROCS_ColorTanimoto>
0.182 

> <ROCS_RefTversky>
0.220 

> <ROCS_RefColorTversky>
0.195 

> <ROCS_RefTverskyCombo>
0.415 

> <ROCS_FitTversky>
1.693 

> <ROCS_FitColorTversky>
0.735 

> <ROCS_FitTverskyCombo>
2.428 

> <ROCS_ColorScore>
-6.962

> <ROCS_Overlap>
2599.293

> <ROCS_Rank>
136                 

$$$$
untitled-dbase-568609_1
  -OEChem-02082415563D

 43 47  0     0  0  0  0  0  0999 V2000
    5.6148   17.3143   20.1925 C   0  0  0  0  0  0  0  0  0  0  0  0
    6.8494   16.7783   20.5617 C   0  0  0  0  0  0  0  0  0  0  0  0
    4.4171   16.6454   20.5061 C   0  0  0  0  0  0  0  0  0  0  0  0
    6.8371   15.5755   21.2406 C   0  0  0  0  0  0  0  0  0  0  0  0
    5.6576   14.9008   21.5583 C   0  0  0  0  0  0  0  0  0  0  0  0
    4.4329   15.4280   21.1949 C   0  0  0  0  0  0  0  0  0  0  0  0
    7.9689   14.7892   21.7443 C   0  0  0  0  0  0  0  0  0  0  0  0
    5.9608   13.6367   22.2876 C   0  0  0  0  0  0  0  0  0  0  0  0
   10.0611   11.6731   25.0598 C   0  0  0  0  0  0  0  0  0  0  0  0
   10.1745   10.4365   22.8810 C   0  0  0  0  0  0  0  0  0  0  0  0
    8.2607   10.0365   24.4514 C   0  0  0  0  0  0  0  0  0  0  0  0
    9.6808   12.8948   22.9033 C   0  0  0  0  0  0  0  0  0  0  0  0
    7.7651   12.4943   24.4755 C   0  0  0  0  0  0  0  0  0  0  0  0
    7.8781   11.2554   22.2935 C   0  0  0  0  0  0  0  0  0  0  0  0
   10.4806   11.7703   23.5833 C   0  0  0  0  0  0  0  0  0  0  0  0
    8.5571   11.3682   25.1619 C   0  0  0  0  0  0  0  0  0  0  0  0
    8.6710   10.1248   22.9716 C   0  0  0  0  0  0  0  0  0  0  0  0
    8.1658   12.6043   22.9876 C   0  0  0  0  0  0  0  0  0  0  0  0
    7.4175   13.6650   22.3497 N   0  0  0  0  0  0  0  0  0  0  0  0
    3.2305   14.7683   21.5031 N   0  0  0  0  0  0  0  0  0  0  0  0
    9.1349   15.1162   21.6216 O   0  0  0  0  0  0  0  0  0  0  0  0
    5.5757   18.2593   19.6571 H   0  0  0  0  0  0  0  0  0  0  0  0
    7.7729   17.2918   20.3213 H   0  0  0  0  0  0  0  0  0  0  0  0
    3.4720   17.0912   20.2038 H   0  0  0  0  0  0  0  0  0  0  0  0
    5.5585   13.6405   23.3045 H   0  0  0  0  0  0  0  0  0  0  0  0
    5.6429   12.7519   21.7292 H   0  0  0  0  0  0  0  0  0  0  0  0
   10.6375   10.8865   25.5618 H   0  0  0  0  0  0  0  0  0  0  0  0
   10.2888   12.6133   25.5770 H   0  0  0  0  0  0  0  0  0  0  0  0
   10.4842   10.4870   21.8298 H   0  0  0  0  0  0  0  0  0  0  0  0
   10.7527    9.6279   23.3448 H   0  0  0  0  0  0  0  0  0  0  0  0
    8.8057    9.2209   24.9426 H   0  0  0  0  0  0  0  0  0  0  0  0
    7.1929    9.7990   24.5311 H   0  0  0  0  0  0  0  0  0  0  0  0
    9.9132   13.8522   23.3877 H   0  0  0  0  0  0  0  0  0  0  0  0
    9.9932   12.9834   21.8546 H   0  0  0  0  0  0  0  0  0  0  0  0
    6.6896   12.2930   24.5663 H   0  0  0  0  0  0  0  0  0  0  0  0
    7.9564   13.4436   24.9926 H   0  0  0  0  0  0  0  0  0  0  0  0
    8.1511   11.3080   21.2315 H   0  0  0  0  0  0  0  0  0  0  0  0
    6.8055   11.0254   22.3362 H   0  0  0  0  0  0  0  0  0  0  0  0
   11.5528   11.9860   23.5172 H   0  0  0  0  0  0  0  0  0  0  0  0
    8.2641   11.2988   26.2155 H   0  0  0  0  0  0  0  0  0  0  0  0
    8.4596    9.1730   22.4718 H   0  0  0  0  0  0  0  0  0  0  0  0
    2.3573   15.1999   21.2671 H   0  0  0  0  0  0  0  0  0  0  0  0
    3.2568   13.9211   22.0380 H   0  0  0  0  0  0  0  0  0  0  0  0
  1  2  1  0  0  0  0
  1  3  2  0  0  0  0
  2  4  2  0  0  0  0
  3  6  1  0  0  0  0
  4  5  1  0  0  0  0
  4  7  1  0  0  0  0
  5  6  2  0  0  0  0
  5  8  1  0  0  0  0
  6 20  1  0  0  0  0
  7 19  1  0  0  0  0
  7 21  2  0  0  0  0
  8 19  1  0  0  0  0
  9 15  1  0  0  0  0
  9 16  1  0  0  0  0
 10 15  1  0  0  0  0
 10 17  1  0  0  0  0
 11 16  1  0  0  0  0
 11 17  1  0  0  0  0
 12 15  1  0  0  0  0
 12 18  1  0  0  0  0
 13 16  1  0  0  0  0
 13 18  1  0  0  0  0
 14 17  1  0  0  0  0
 14 18  1  0  0  0  0
 18 19  1  0  0  0  0
  1 22  1  0  0  0  0
  2 23  1  0  0  0  0
  3 24  1  0  0  0  0
  8 25  1  0  0  0  0
  8 26  1  0  0  0  0
  9 27  1  0  0  0  0
  9 28  1  0  0  0  0
 10 29  1  0  0  0  0
 10 30  1  0  0  0  0
 11 31  1  0  0  0  0
 11 32  1  0  0  0  0
 12 33  1  0  0  0  0
 12 34  1  0  0  0  0
 13 35  1  0  0  0  0
 13 36  1  0  0  0  0
 14 37  1  0  0  0  0
 14 38  1  0  0  0  0
 15 39  1  0  0  0  0
 16 40  1  0  0  0  0
 17 41  1  0  0  0  0
 20 42  1  0  0  0  0
 20 43  1  0  0  0  0
M  END
> <id>
EN300-20051716

> <smiles>
NC=1C=CC=C2C(=O)N(CC21)C3(CC4CC5CC(C4)C3)C5

> <IUPAC Name>
2-(adamantan-1-yl)-4-amino-2,3-dihydro-1H-isoindol-1-one

> <CAS>
1282238-21-4

> <URL>
https://www.enaminestore.com/catalog/EN300-20051716

> <ROCS_ShapeQuery>
x0446_0A_x1080_0A_x0929_0A_x0812_0A_x0719_0A_x1140_0A_x0528_0A_x0310_0A

> <ROCS_TanimotoCombo>
0.424 

> <ROCS_ShapeTanimoto>
0.217 

> <ROCS_ColorTanimoto>
0.207 

> <ROCS_RefTversky>
0.202 

> <ROCS_RefColorTversky>
0.233 

> <ROCS_RefTverskyCombo>
0.434 

> <ROCS_FitTversky>
1.528 

> <ROCS_FitColorTversky>
0.654 

> <ROCS_FitTverskyCombo>
2.182 

> <ROCS_ColorScore>
-8.354

> <ROCS_Overlap>
2381.153

> <ROCS_Rank>
137                 

$$$$
untitled-dbase-279430_0
  -OEChem-02082415563D

 44 47  0     1  0  0  0  0  0999 V2000
    6.3374   13.9532   22.5449 C   0  0  0  0  0  0  0  0  0  0  0  0
    7.9952   11.0266   25.4057 C   0  0  0  0  0  0  0  0  0  0  0  0
    5.4943   13.5143   23.7325 C   0  0  0  0  0  0  0  0  0  0  0  0
    9.1251   10.0987   24.9494 C   0  0  0  0  0  0  0  0  0  0  0  0
    7.1315   12.7807   21.9486 C   0  0  1  0  0  0  0  0  0  0  0  0
    7.1662   11.6911   24.2818 C   0  0  1  0  0  0  0  0  0  0  0  0
    6.3557   12.8927   24.8352 C   0  0  2  0  0  0  0  0  0  0  0  0
    8.0089   13.1757   20.7290 C   0  0  2  0  0  0  0  0  0  0  0  0
    9.2768   12.8865   23.3164 C   0  0  2  0  0  0  0  0  0  0  0  0
    9.2815   13.9310   21.1447 C   0  0  2  0  0  0  0  0  0  0  0  0
    8.0025   12.0575   23.0132 C   0  0  2  0  0  0  0  0  0  0  0  0
   10.1015   10.7730   23.9686 C   0  0  2  0  0  0  0  0  0  0  0  0
    5.4514   12.5074   26.0125 C   0  0  0  0  0  0  0  0  0  0  0  0
    7.2328   13.9264   19.6448 C   0  0  0  0  0  0  0  0  0  0  0  0
   11.5149   10.2329   24.1735 C   0  0  0  0  0  0  0  0  0  0  0  0
   10.0083   13.1946   22.1232 O   0  0  0  0  0  0  0  0  0  0  0  0
   10.1451   12.1818   24.2148 O   0  0  0  0  0  0  0  0  0  0  0  0
    8.3395   10.7711   22.4285 O   0  0  0  0  0  0  0  0  0  0  0  0
    9.7622   10.4950   22.6069 O   0  0  0  0  0  0  0  0  0  0  0  0
    8.9983   15.2574   21.5715 O   0  0  0  0  0  0  0  0  0  0  0  0
    5.6640   14.3776   21.7921 H   0  0  0  0  0  0  0  0  0  0  0  0
    6.9996   14.7613   22.8687 H   0  0  0  0  0  0  0  0  0  0  0  0
    7.3254   10.4451   26.0519 H   0  0  0  0  0  0  0  0  0  0  0  0
    8.4270   11.8047   26.0494 H   0  0  0  0  0  0  0  0  0  0  0  0
    4.9547   14.3848   24.1252 H   0  0  0  0  0  0  0  0  0  0  0  0
    4.7342   12.7969   23.3972 H   0  0  0  0  0  0  0  0  0  0  0  0
    9.6605    9.7950   25.8584 H   0  0  0  0  0  0  0  0  0  0  0  0
    8.7085    9.1834   24.5118 H   0  0  0  0  0  0  0  0  0  0  0  0
    6.3932   12.0565   21.5714 H   0  0  0  0  0  0  0  0  0  0  0  0
    6.4400   10.9262   23.9641 H   0  0  0  0  0  0  0  0  0  0  0  0
    7.0561   13.6573   25.1962 H   0  0  0  0  0  0  0  0  0  0  0  0
    8.3424   12.2295   20.2785 H   0  0  0  0  0  0  0  0  0  0  0  0
    9.0281   13.8313   23.8108 H   0  0  0  0  0  0  0  0  0  0  0  0
    9.9328   14.0121   20.2664 H   0  0  0  0  0  0  0  0  0  0  0  0
    4.7419   11.7494   25.6920 H   0  0  0  0  0  0  0  0  0  0  0  0
    4.9117   13.3850   26.3576 H   0  0  0  0  0  0  0  0  0  0  0  0
    6.0591   12.1144   26.8231 H   0  0  0  0  0  0  0  0  0  0  0  0
    6.8778   14.8759   20.0394 H   0  0  0  0  0  0  0  0  0  0  0  0
    6.3813   13.3301   19.3245 H   0  0  0  0  0  0  0  0  0  0  0  0
    7.8820   14.1124   18.7919 H   0  0  0  0  0  0  0  0  0  0  0  0
   12.1991   10.7144   23.4766 H   0  0  0  0  0  0  0  0  0  0  0  0
   11.5283    9.1579   24.0006 H   0  0  0  0  0  0  0  0  0  0  0  0
   11.8433   10.4343   25.1920 H   0  0  0  0  0  0  0  0  0  0  0  0
    9.8475   15.6604   21.8138 H   0  0  0  0  0  0  0  0  0  0  0  0
  1  3  1  0  0  0  0
  1  5  1  1  0  0  0
  2  4  1  0  0  0  0
  2  6  1  1  0  0  0
  3  7  1  0  0  0  0
  4 12  1  0  0  0  0
  5  8  1  0  0  0  0
  5 11  1  0  0  0  0
  6  7  1  0  0  0  0
  6 11  1  0  0  0  0
  7 13  1  6  0  0  0
  8 10  1  0  0  0  0
  8 14  1  1  0  0  0
  9 11  1  0  0  0  0
  9 16  1  6  0  0  0
  9 17  1  0  0  0  0
 10 16  1  0  0  0  0
 10 20  1  1  0  0  0
 11 18  1  6  0  0  0
 12 15  1  0  0  0  0
 12 17  1  0  0  0  0
 12 19  1  0  0  0  0
 18 19  1  0  0  0  0
  1 21  1  0  0  0  0
  1 22  1  0  0  0  0
  2 23  1  0  0  0  0
  2 24  1  0  0  0  0
  3 25  1  0  0  0  0
  3 26  1  0  0  0  0
  4 27  1  0  0  0  0
  4 28  1  0  0  0  0
  5 29  1  0  0  0  0
  6 30  1  0  0  0  0
  7 31  1  0  0  0  0
  8 32  1  0  0  0  0
  9 33  1  0  0  0  0
 10 34  1  0  0  0  0
 13 35  1  0  0  0  0
 13 36  1  0  0  0  0
 13 37  1  0  0  0  0
 14 38  1  0  0  0  0
 14 39  1  0  0  0  0
 14 40  1  0  0  0  0
 15 41  1  0  0  0  0
 15 42  1  0  0  0  0
 15 43  1  0  0  0  0
 20 44  1  0  0  0  0
M  END
> <id>
EN300-27122030

> <smiles>
C[C@@H]1CC[C@H]2[C@@H](C)[C@@H](O)O[C@@H]3OC4(C)CC[C@@H]1[C@@]23OO4

> <IUPAC Name>
(4S,5R,8S,9R,10S,12R,13R)-1,5,9-trimethyl-11,14,15,16-tetraoxatetracyclo[10.3.1.0?,.0?,]hexadecan-10-ol

> <URL>
https://www.enaminestore.com/catalog/EN300-27122030

> <ROCS_ShapeQuery>
x0446_0A_x1080_0A_x0929_0A_x0812_0A_x0719_0A_x1140_0A_x0528_0A_x0310_0A

> <ROCS_TanimotoCombo>
0.423 

> <ROCS_ShapeTanimoto>
0.234 

> <ROCS_ColorTanimoto>
0.189 

> <ROCS_RefTversky>
0.214 

> <ROCS_RefColorTversky>
0.217 

> <ROCS_RefTverskyCombo>
0.431 

> <ROCS_FitTversky>
1.692 

> <ROCS_FitColorTversky>
0.597 

> <ROCS_FitTverskyCombo>
2.289 

> <ROCS_ColorScore>
-7.804

> <ROCS_Overlap>
2522.018

> <ROCS_Rank>
138                 

$$$$
untitled-dbase-128693_0
  -OEChem-02082415563D

 44 47  0     1  0  0  0  0  0999 V2000
    6.3378   13.9532   22.5441 C   0  0  0  0  0  0  0  0  0  0  0  0
    7.9948   11.0273   25.4058 C   0  0  0  0  0  0  0  0  0  0  0  0
    5.4940   13.5142   23.7310 C   0  0  0  0  0  0  0  0  0  0  0  0
    9.1247   10.0993   24.9499 C   0  0  0  0  0  0  0  0  0  0  0  0
    7.1321   12.7805   21.9482 C   0  0  1  0  0  0  0  0  0  0  0  0
    7.1661   11.6913   24.2815 C   0  0  1  0  0  0  0  0  0  0  0  0
    6.3549   12.8928   24.8343 C   0  0  2  0  0  0  0  0  0  0  0  0
    8.0096   13.1752   20.7286 C   0  0  2  0  0  0  0  0  0  0  0  0
    9.2770   12.8864   23.3163 C   0  0  2  0  0  0  0  0  0  0  0  0
    9.2820   13.9308   21.1445 C   0  0  2  0  0  0  0  0  0  0  0  0
    8.0028   12.0575   23.0130 C   0  0  2  0  0  0  0  0  0  0  0  0
   10.1014   10.7729   23.9692 C   0  0  2  0  0  0  0  0  0  0  0  0
    5.4501   12.5072   26.0111 C   0  0  0  0  0  0  0  0  0  0  0  0
    7.2335   13.9253   19.6440 C   0  0  0  0  0  0  0  0  0  0  0  0
   11.5147   10.2325   24.1749 C   0  0  0  0  0  0  0  0  0  0  0  0
   10.0087   13.1943   22.1230 O   0  0  0  0  0  0  0  0  0  0  0  0
   10.1453   12.1818   24.2148 O   0  0  0  0  0  0  0  0  0  0  0  0
    8.3398   10.7708   22.4286 O   0  0  0  0  0  0  0  0  0  0  0  0
    9.7625   10.4946   22.6074 O   0  0  0  0  0  0  0  0  0  0  0  0
    8.9984   15.2571   21.5715 O   0  0  0  0  0  0  0  0  0  0  0  0
    5.6649   14.3778   21.7910 H   0  0  0  0  0  0  0  0  0  0  0  0
    7.0000   14.7612   22.8683 H   0  0  0  0  0  0  0  0  0  0  0  0
    7.3251   10.4461   26.0522 H   0  0  0  0  0  0  0  0  0  0  0  0
    8.4266   11.8057   26.0492 H   0  0  0  0  0  0  0  0  0  0  0  0
    4.9540   14.3847   24.1233 H   0  0  0  0  0  0  0  0  0  0  0  0
    4.7342   12.7966   23.3953 H   0  0  0  0  0  0  0  0  0  0  0  0
    9.6597    9.7958   25.8592 H   0  0  0  0  0  0  0  0  0  0  0  0
    8.7082    9.1838   24.5123 H   0  0  0  0  0  0  0  0  0  0  0  0
    6.3937   12.0563   21.5710 H   0  0  0  0  0  0  0  0  0  0  0  0
    6.4401   10.9261   23.9638 H   0  0  0  0  0  0  0  0  0  0  0  0
    7.0549   13.6577   25.1955 H   0  0  0  0  0  0  0  0  0  0  0  0
    8.3435   12.2291   20.2781 H   0  0  0  0  0  0  0  0  0  0  0  0
    9.0283   13.8312   23.8106 H   0  0  0  0  0  0  0  0  0  0  0  0
    9.9334   14.0121   20.2664 H   0  0  0  0  0  0  0  0  0  0  0  0
    4.7411   11.7489   25.6903 H   0  0  0  0  0  0  0  0  0  0  0  0
    4.9099   13.3847   26.3559 H   0  0  0  0  0  0  0  0  0  0  0  0
    6.0575   12.1145   26.8221 H   0  0  0  0  0  0  0  0  0  0  0  0
    6.8780   14.8748   20.0383 H   0  0  0  0  0  0  0  0  0  0  0  0
    6.3823   13.3285   19.3237 H   0  0  0  0  0  0  0  0  0  0  0  0
    7.8828   14.1113   18.7913 H   0  0  0  0  0  0  0  0  0  0  0  0
   12.1992   10.7135   23.4780 H   0  0  0  0  0  0  0  0  0  0  0  0
   11.5278    9.1574   24.0026 H   0  0  0  0  0  0  0  0  0  0  0  0
   11.8427   10.4344   25.1934 H   0  0  0  0  0  0  0  0  0  0  0  0
    9.8474   15.6603   21.8139 H   0  0  0  0  0  0  0  0  0  0  0  0
  1  3  1  0  0  0  0
  1  5  1  0  0  0  0
  2  4  1  0  0  0  0
  2  6  1  1  0  0  0
  3  7  1  0  0  0  0
  4 12  1  0  0  0  0
  5  8  1  0  0  0  0
  5 11  1  0  0  0  0
  6  7  1  0  0  0  0
  6 11  1  0  0  0  0
  7 13  1  6  0  0  0
  8 10  1  0  0  0  0
  8 14  1  1  0  0  0
  9 11  1  0  0  0  0
  9 16  1  6  0  0  0
  9 17  1  0  0  0  0
 10 16  1  0  0  0  0
 10 20  1  1  0  0  0
 11 18  1  6  0  0  0
 12 15  1  0  0  0  0
 12 17  1  0  0  0  0
 12 19  1  0  0  0  0
 18 19  1  0  0  0  0
  1 21  1  0  0  0  0
  1 22  1  0  0  0  0
  2 23  1  0  0  0  0
  2 24  1  0  0  0  0
  3 25  1  0  0  0  0
  3 26  1  0  0  0  0
  4 27  1  0  0  0  0
  4 28  1  0  0  0  0
  5 29  1  0  0  0  0
  6 30  1  0  0  0  0
  7 31  1  0  0  0  0
  8 32  1  0  0  0  0
  9 33  1  0  0  0  0
 10 34  1  0  0  0  0
 13 35  1  0  0  0  0
 13 36  1  0  0  0  0
 13 37  1  0  0  0  0
 14 38  1  0  0  0  0
 14 39  1  0  0  0  0
 14 40  1  0  0  0  0
 15 41  1  0  0  0  0
 15 42  1  0  0  0  0
 15 43  1  0  0  0  0
 20 44  1  0  0  0  0
M  END
> <id>
EN300-746891

> <smiles>
C[C@@H]1CCC2[C@@H](C)[C@@H](O)O[C@@H]3OC4(C)CC[C@@H]1[C@@]23OO4

> <MDLNUMBER>
MFCD31456973

> <IUPAC Name>
(4S,5R,9R,10S,12R,13R)-1,5,9-trimethyl-11,14,15,16-tetraoxatetracyclo[10.3.1.0^{4,13}.0^{8,13}]hexadecan-10-ol

> <Purity>
95

> <URL>
https://www.enaminestore.com/catalog/EN300-746891

> <ROCS_ShapeQuery>
x0446_0A_x1080_0A_x0929_0A_x0812_0A_x0719_0A_x1140_0A_x0528_0A_x0310_0A

> <ROCS_TanimotoCombo>
0.423 

> <ROCS_ShapeTanimoto>
0.234 

> <ROCS_ColorTanimoto>
0.189 

> <ROCS_RefTversky>
0.214 

> <ROCS_RefColorTversky>
0.217 

> <ROCS_RefTverskyCombo>
0.431 

> <ROCS_FitTversky>
1.692 

> <ROCS_FitColorTversky>
0.597 

> <ROCS_FitTverskyCombo>
2.289 

> <ROCS_ColorScore>
-7.804

> <ROCS_Overlap>
2521.868

> <ROCS_Rank>
139                 

$$$$
untitled-dbase-341114_8
  -OEChem-02082415563D

 32 34  0     0  0  0  0  0  0999 V2000
    6.0409   13.2691   25.3386 C   0  0  0  0  0  0  0  0  0  0  0  0
    5.4869   12.0143   25.1114 C   0  0  0  0  0  0  0  0  0  0  0  0
   13.0972   14.4314   22.2776 C   0  0  0  0  0  0  0  0  0  0  0  0
    7.3793   13.4943   25.0319 C   0  0  0  0  0  0  0  0  0  0  0  0
   12.5537   15.2372   21.2771 C   0  0  0  0  0  0  0  0  0  0  0  0
    6.2716   10.9877   24.5779 C   0  0  0  0  0  0  0  0  0  0  0  0
   12.2863   13.9576   23.3089 C   0  0  0  0  0  0  0  0  0  0  0  0
   10.3884   15.0956   22.3394 C   0  0  0  0  0  0  0  0  0  0  0  0
    8.1617   12.4568   24.4957 C   0  0  0  0  0  0  0  0  0  0  0  0
   11.1994   15.5693   21.3081 C   0  0  0  0  0  0  0  0  0  0  0  0
    7.6134   11.1852   24.2615 C   0  0  0  0  0  0  0  0  0  0  0  0
   10.9319   14.2897   23.3398 C   0  0  0  0  0  0  0  0  0  0  0  0
    9.5050   12.6158   24.1671 C   0  0  0  0  0  0  0  0  0  0  0  0
    9.6423   10.4661   23.4725 C   0  0  0  0  0  0  0  0  0  0  0  0
   10.6321   16.4094   20.2650 C   0  0  0  0  0  0  0  0  0  0  0  0
   10.4558    9.3523   22.9054 C   0  0  0  0  0  0  0  0  0  0  0  0
    8.3526   10.1859   23.7489 N   0  0  0  0  0  0  0  0  0  0  0  0
   10.2736   11.6374   23.6528 N   0  0  0  0  0  0  0  0  0  0  0  0
    9.4428   16.7374   20.2365 O   0  0  0  0  0  0  0  0  0  0  0  0
   10.1293   13.8210   24.3602 O   0  0  0  0  0  0  0  0  0  0  0  0
    9.7571    8.1892   22.7474 F   0  0  0  0  0  0  0  0  0  0  0  0
   10.9738    9.6266   21.6716 F   0  0  0  0  0  0  0  0  0  0  0  0
   11.5266    9.0322   23.6889 F   0  0  0  0  0  0  0  0  0  0  0  0
    5.4340   14.0674   25.7543 H   0  0  0  0  0  0  0  0  0  0  0  0
    4.4430   11.8295   25.3480 H   0  0  0  0  0  0  0  0  0  0  0  0
   14.1518   14.1729   22.2534 H   0  0  0  0  0  0  0  0  0  0  0  0
    7.7981   14.4803   25.2153 H   0  0  0  0  0  0  0  0  0  0  0  0
   13.1942   15.6002   20.4776 H   0  0  0  0  0  0  0  0  0  0  0  0
    5.8144   10.0143   24.4104 H   0  0  0  0  0  0  0  0  0  0  0  0
   12.7155   13.3303   24.0853 H   0  0  0  0  0  0  0  0  0  0  0  0
    9.3315   15.3510   22.3679 H   0  0  0  0  0  0  0  0  0  0  0  0
   11.3172   16.7627   19.4639 H   0  0  0  0  0  0  0  0  0  0  0  0
  1  2  1  0  0  0  0
  1  4  2  0  0  0  0
  2  6  2  0  0  0  0
  3  5  1  0  0  0  0
  3  7  2  0  0  0  0
  4  9  1  0  0  0  0
  5 10  2  0  0  0  0
  6 11  1  0  0  0  0
  7 12  1  0  0  0  0
  8 10  1  0  0  0  0
  8 12  2  0  0  0  0
  9 11  2  0  0  0  0
  9 13  1  0  0  0  0
 10 15  1  0  0  0  0
 11 17  1  0  0  0  0
 12 20  1  0  0  0  0
 13 18  2  0  0  0  0
 13 20  1  0  0  0  0
 14 16  1  0  0  0  0
 14 17  2  0  0  0  0
 14 18  1  0  0  0  0
 15 19  2  0  0  0  0
 16 21  1  0  0  0  0
 16 22  1  0  0  0  0
 16 23  1  0  0  0  0
  1 24  1  0  0  0  0
  2 25  1  0  0  0  0
  3 26  1  0  0  0  0
  4 27  1  0  0  0  0
  5 28  1  0  0  0  0
  6 29  1  0  0  0  0
  7 30  1  0  0  0  0
  8 31  1  0  0  0  0
 15 32  1  0  0  0  0
M  END
> <id>
EN300-26587182

> <smiles>
FC(F)(F)C=1N=C(OC=2C=CC=C(C=O)C2)C=3C=CC=CC3N1

> <IUPAC Name>
3-{[2-(trifluoromethyl)quinazolin-4-yl]oxy}benzaldehyde

> <CAS>
924154-57-4

> <URL>
https://www.enaminestore.com/catalog/EN300-26587182

> <ROCS_ShapeQuery>
x0446_0A_x1080_0A_x0929_0A_x0812_0A_x0719_0A_x1140_0A_x0528_0A_x0310_0A

> <ROCS_TanimotoCombo>
0.423 

> <ROCS_ShapeTanimoto>
0.261 

> <ROCS_ColorTanimoto>
0.163 

> <ROCS_RefTversky>
0.236 

> <ROCS_RefColorTversky>
0.173 

> <ROCS_RefTverskyCombo>
0.409 

> <ROCS_FitTversky>
1.691 

> <ROCS_FitColorTversky>
0.725 

> <ROCS_FitTverskyCombo>
2.416 

> <ROCS_ColorScore>
-6.184

> <ROCS_Overlap>
2784.518

> <ROCS_Rank>
140                 

$$$$
untitled-dbase-474264_5
  -OEChem-02082415563D

 26 28  0     1  0  0  0  0  0999 V2000
   10.3541    9.9365   23.3562 C   0  0  0  0  0  0  0  0  0  0  0  0
    7.5124   11.9420   24.8621 C   0  0  0  0  0  0  0  0  0  0  0  0
    9.1723   10.1912   24.2535 C   0  0  2  0  0  0  0  0  0  0  0  0
    9.1123   10.5988   22.8207 C   0  0  1  0  0  0  0  0  0  0  0  0
    7.4306   12.3469   23.3670 C   0  0  2  0  0  0  0  0  0  0  0  0
    8.9759   11.4979   24.9881 C   0  0  1  0  0  0  0  0  0  0  0  0
    8.8794   12.0920   22.9041 C   0  0  1  0  0  0  0  0  0  0  0  0
    7.0236   13.8064   23.1985 C   0  0  0  0  0  0  0  0  0  0  0  0
    6.4453   15.7615   21.4972 N   0  0  0  0  0  0  0  0  0  0  0  0
    8.8590   14.8930   21.6891 O   0  0  0  0  0  0  0  0  0  0  0  0
    7.0974   13.4355   20.6130 O   0  0  0  0  0  0  0  0  0  0  0  0
    9.6001   12.4656   24.1071 O   0  0  0  0  0  0  0  0  0  0  0  0
    7.4870   14.4156   21.6148 S   0  0  0  0  0  0  0  0  0  0  0  0
   11.2490   10.5318   23.4859 H   0  0  0  0  0  0  0  0  0  0  0  0
   10.5444    8.9120   23.0593 H   0  0  0  0  0  0  0  0  0  0  0  0
    7.3146   12.8007   25.5134 H   0  0  0  0  0  0  0  0  0  0  0  0
    6.8081   11.1427   25.1132 H   0  0  0  0  0  0  0  0  0  0  0  0
    8.5729    9.3642   24.6014 H   0  0  0  0  0  0  0  0  0  0  0  0
    8.4712   10.0639   22.1371 H   0  0  0  0  0  0  0  0  0  0  0  0
    6.7179   11.7143   22.8252 H   0  0  0  0  0  0  0  0  0  0  0  0
    9.3922   11.5279   25.9970 H   0  0  0  0  0  0  0  0  0  0  0  0
    9.2158   12.6560   22.0311 H   0  0  0  0  0  0  0  0  0  0  0  0
    7.5152   14.4260   23.9474 H   0  0  0  0  0  0  0  0  0  0  0  0
    5.9436   13.9119   23.2901 H   0  0  0  0  0  0  0  0  0  0  0  0
    5.4430   15.5790   21.3646 H   0  0  0  0  0  0  0  0  0  0  0  0
    6.6429   16.5716   22.0974 H   0  0  0  0  0  0  0  0  0  0  0  0
  1  3  1  1  0  0  0
  1  4  1  1  0  0  0
  2  5  1  0  0  0  0
  2  6  1  0  0  0  0
  3  4  1  0  0  0  0
  3  6  1  0  0  0  0
  4  7  1  0  0  0  0
  5  7  1  0  0  0  0
  5  8  1  1  0  0  0
  6 12  1  1  0  0  0
  7 12  1  1  0  0  0
  8 13  1  0  0  0  0
  9 13  1  0  0  0  0
 10 13  2  0  0  0  0
 11 13  2  0  0  0  0
  1 14  1  0  0  0  0
  1 15  1  0  0  0  0
  2 16  1  0  0  0  0
  2 17  1  0  0  0  0
  3 18  1  0  0  0  0
  4 19  1  0  0  0  0
  5 20  1  0  0  0  0
  6 21  1  0  0  0  0
  7 22  1  0  0  0  0
  8 23  1  0  0  0  0
  8 24  1  0  0  0  0
  9 25  1  0  0  0  0
  9 26  1  0  0  0  0
M  END
> <id>
EN300-27733719

> <smiles>
NS(=O)(=O)C[C@@H]1C[C@@H]2O[C@H]1[C@H]3C[C@H]32 |&1:5,7,9,10,12,r|

> <IUPAC Name>
rac-[(1R,2S,4R,5R,6S)-8-oxatricyclo[3.2.1.0,2,4]octan-6-yl]methanesulfonamide

> <CAS>
2276437-30-8

> <URL>
https://www.enaminestore.com/catalog/EN300-27733719

> <ROCS_ShapeQuery>
x0446_0A_x1080_0A_x0929_0A_x0812_0A_x0719_0A_x1140_0A_x0528_0A_x0310_0A

> <ROCS_TanimotoCombo>
0.423 

> <ROCS_ShapeTanimoto>
0.189 

> <ROCS_ColorTanimoto>
0.234 

> <ROCS_RefTversky>
0.175 

> <ROCS_RefColorTversky>
0.304 

> <ROCS_RefTverskyCombo>
0.479 

> <ROCS_FitTversky>
1.779 

> <ROCS_FitColorTversky>
0.504 

> <ROCS_FitTverskyCombo>
2.283 

> <ROCS_ColorScore>
-11.077

> <ROCS_Overlap>
2059.398

> <ROCS_Rank>
141                 

$$$$
untitled-dbase-485979_0
  -OEChem-02082415563D

 44 46  0     0  0  0  0  0  0999 V2000
   13.4101   15.1238   22.8121 C   0  0  0  0  0  0  0  0  0  0  0  0
    6.3023   13.4076   25.0501 C   0  0  0  0  0  0  0  0  0  0  0  0
    6.0067   12.1632   25.5952 C   0  0  0  0  0  0  0  0  0  0  0  0
   12.8093   14.3325   23.7911 C   0  0  0  0  0  0  0  0  0  0  0  0
   12.7154   15.4346   21.6431 C   0  0  0  0  0  0  0  0  0  0  0  0
    7.3340   13.5237   24.1237 C   0  0  0  0  0  0  0  0  0  0  0  0
    6.7426   11.0377   25.2130 C   0  0  0  0  0  0  0  0  0  0  0  0
   11.5137   13.8517   23.6010 C   0  0  0  0  0  0  0  0  0  0  0  0
   11.4198   14.9539   21.4531 C   0  0  0  0  0  0  0  0  0  0  0  0
    8.0693   12.3872   23.7445 C   0  0  0  0  0  0  0  0  0  0  0  0
    7.7801   11.1249   24.2879 C   0  0  0  0  0  0  0  0  0  0  0  0
   10.8190   14.1624   22.4320 C   0  0  0  0  0  0  0  0  0  0  0  0
    9.1122   12.4346   22.8237 C   0  0  0  0  0  0  0  0  0  0  0  0
    9.4638   10.2083   23.0305 C   0  0  0  0  0  0  0  0  0  0  0  0
    8.5559   14.4392   21.4459 C   0  0  0  0  0  0  0  0  0  0  0  0
    7.3814   15.1105   18.9194 C   0  0  0  0  0  0  0  0  0  0  0  0
    5.7269   13.2855   19.4108 C   0  0  0  0  0  0  0  0  0  0  0  0
    5.8636   15.2891   20.9191 C   0  0  0  0  0  0  0  0  0  0  0  0
    6.6508   14.3392   20.0177 C   0  0  0  0  0  0  0  0  0  0  0  0
    8.4768   10.0314   23.9322 N   0  0  0  0  0  0  0  0  0  0  0  0
    9.8300   11.3602   22.4456 N   0  0  0  0  0  0  0  0  0  0  0  0
    9.4634   13.6595   22.2334 N   0  0  0  0  0  0  0  0  0  0  0  0
    8.5645   15.6648   21.3357 O   0  0  0  0  0  0  0  0  0  0  0  0
    7.6222   13.6530   20.8161 O   0  0  0  0  0  0  0  0  0  0  0  0
   10.3837    8.7544   22.5673 S   0  0  0  0  0  0  0  0  0  0  0  0
   14.4186   15.4990   22.9601 H   0  0  0  0  0  0  0  0  0  0  0  0
    5.7319   14.2830   25.3452 H   0  0  0  0  0  0  0  0  0  0  0  0
    5.2028   12.0649   26.3194 H   0  0  0  0  0  0  0  0  0  0  0  0
   13.3495   14.0911   24.7017 H   0  0  0  0  0  0  0  0  0  0  0  0
   13.1832   16.0517   20.8815 H   0  0  0  0  0  0  0  0  0  0  0  0
    7.5462   14.5069   23.7114 H   0  0  0  0  0  0  0  0  0  0  0  0
    6.4918   10.0750   25.6547 H   0  0  0  0  0  0  0  0  0  0  0  0
   11.0556   13.2360   24.3710 H   0  0  0  0  0  0  0  0  0  0  0  0
   10.8880   15.2025   20.5380 H   0  0  0  0  0  0  0  0  0  0  0  0
    8.0456   15.8678   19.3510 H   0  0  0  0  0  0  0  0  0  0  0  0
    7.9777   14.4445   18.2872 H   0  0  0  0  0  0  0  0  0  0  0  0
    6.6715   15.6493   18.2816 H   0  0  0  0  0  0  0  0  0  0  0  0
    5.2006   12.7297   20.1952 H   0  0  0  0  0  0  0  0  0  0  0  0
    6.3001   12.5460   18.8400 H   0  0  0  0  0  0  0  0  0  0  0  0
    4.9826   13.7356   18.7459 H   0  0  0  0  0  0  0  0  0  0  0  0
    5.3394   14.7361   21.7070 H   0  0  0  0  0  0  0  0  0  0  0  0
    6.5163   16.0297   21.3925 H   0  0  0  0  0  0  0  0  0  0  0  0
    5.0926   15.8189   20.3480 H   0  0  0  0  0  0  0  0  0  0  0  0
   11.2185    9.3487   21.7012 H   0  0  0  0  0  0  0  0  0  0  0  0
  1  4  1  0  0  0  0
  1  5  2  0  0  0  0
  2  3  1  0  0  0  0
  2  6  2  0  0  0  0
  3  7  2  0  0  0  0
  4  8  2  0  0  0  0
  5  9  1  0  0  0  0
  6 10  1  0  0  0  0
  7 11  1  0  0  0  0
  8 12  1  0  0  0  0
  9 12  2  0  0  0  0
 10 11  1  0  0  0  0
 10 13  2  0  0  0  0
 11 20  2  0  0  0  0
 12 22  1  0  0  0  0
 13 21  1  0  0  0  0
 13 22  1  0  0  0  0
 14 20  1  0  0  0  0
 14 21  2  0  0  0  0
 14 25  1  0  0  0  0
 15 22  1  0  0  0  0
 15 23  2  0  0  0  0
 15 24  1  0  0  0  0
 16 19  1  0  0  0  0
 17 19  1  0  0  0  0
 18 19  1  0  0  0  0
 19 24  1  0  0  0  0
  1 26  1  0  0  0  0
  2 27  1  0  0  0  0
  3 28  1  0  0  0  0
  4 29  1  0  0  0  0
  5 30  1  0  0  0  0
  6 31  1  0  0  0  0
  7 32  1  0  0  0  0
  8 33  1  0  0  0  0
  9 34  1  0  0  0  0
 16 35  1  0  0  0  0
 16 36  1  0  0  0  0
 16 37  1  0  0  0  0
 17 38  1  0  0  0  0
 17 39  1  0  0  0  0
 17 40  1  0  0  0  0
 18 41  1  0  0  0  0
 18 42  1  0  0  0  0
 18 43  1  0  0  0  0
 25 44  1  0  0  0  0
M  END
> <id>
EN300-26666437

> <smiles>
CC(C)(C)OC(=O)N(C=1C=CC=CC1)C=2N=C(S)N=C3C=CC=CC23

> <IUPAC Name>
tert-butyl N-phenyl-N-(2-sulfanylquinazolin-4-yl)carbamate

> <CAS>
2413905-29-8

> <URL>
https://www.enaminestore.com/catalog/EN300-26666437

> <ROCS_ShapeQuery>
x0446_0A_x1080_0A_x0929_0A_x0812_0A_x0719_0A_x1140_0A_x0528_0A_x0310_0A

> <ROCS_TanimotoCombo>
0.423 

> <ROCS_ShapeTanimoto>
0.272 

> <ROCS_ColorTanimoto>
0.152 

> <ROCS_RefTversky>
0.244 

> <ROCS_RefColorTversky>
0.167 

> <ROCS_RefTverskyCombo>
0.411 

> <ROCS_FitTversky>
1.691 

> <ROCS_FitColorTversky>
0.629 

> <ROCS_FitTverskyCombo>
2.319 

> <ROCS_ColorScore>
-5.953

> <ROCS_Overlap>
2889.317

> <ROCS_Rank>
142                 

$$$$
untitled-dbase-463859_5
  -OEChem-02082415563D

 39 41  0     0  0  0  0  0  0999 V2000
    5.5182   15.3122   23.5511 C   0  0  0  0  0  0  0  0  0  0  0  0
    6.1413   14.6453   24.3310 C   0  0  0  0  0  0  0  0  0  0  0  0
    9.2195   13.3981   23.5848 C   0  0  0  0  0  0  0  0  0  0  0  0
    9.9500   10.7976   22.9001 C   0  0  0  0  0  0  0  0  0  0  0  0
    8.3854   12.3336   23.9579 C   0  0  0  0  0  0  0  0  0  0  0  0
   10.3975   13.1634   22.8701 C   0  0  0  0  0  0  0  0  0  0  0  0
    8.7623   11.0343   23.5980 C   0  0  0  0  0  0  0  0  0  0  0  0
   10.7638   11.8644   22.5300 C   0  0  0  0  0  0  0  0  0  0  0  0
    6.3448   11.4523   24.9655 C   0  0  0  0  0  0  0  0  0  0  0  0
   10.6682   15.2646   21.6375 C   0  0  0  0  0  0  0  0  0  0  0  0
   12.5628   14.3089   22.9545 C   0  0  0  0  0  0  0  0  0  0  0  0
   12.8737   16.4623   21.7024 C   0  0  0  0  0  0  0  0  0  0  0  0
    6.6753   10.2128   24.1601 C   0  0  0  0  0  0  0  0  0  0  0  0
   11.0394   17.1540   20.1449 C   0  0  0  0  0  0  0  0  0  0  0  0
   14.5877   15.6135   23.3183 C   0  0  0  0  0  0  0  0  0  0  0  0
    6.9011   13.8354   25.2865 C   0  0  0  0  0  0  0  0  0  0  0  0
    7.2007   12.5241   24.7255 N   0  0  0  0  0  0  0  0  0  0  0  0
   11.2349   14.2794   22.4754 N   0  0  0  0  0  0  0  0  0  0  0  0
   11.5741   16.2454   21.1718 N   0  0  0  0  0  0  0  0  0  0  0  0
   13.2795   15.4904   22.6551 N   0  0  0  0  0  0  0  0  0  0  0  0
    5.3550   11.4781   25.6960 O   0  0  0  0  0  0  0  0  0  0  0  0
    9.4597   15.3215   21.3820 O   0  0  0  0  0  0  0  0  0  0  0  0
   13.0961   13.3523   23.5287 O   0  0  0  0  0  0  0  0  0  0  0  0
    8.0400    9.9294   23.9559 O   0  0  0  0  0  0  0  0  0  0  0  0
   11.8915   11.6297   21.8439 F   0  0  0  0  0  0  0  0  0  0  0  0
    6.0816   10.2774   22.9339 F   0  0  0  0  0  0  0  0  0  0  0  0
    6.1416    9.1115   24.7612 F   0  0  0  0  0  0  0  0  0  0  0  0
   13.8581   17.7721   21.2373 S   0  0  0  0  0  0  0  0  0  0  0  0
    4.9651   15.9034   22.8592 H   0  0  0  0  0  0  0  0  0  0  0  0
    8.9688   14.4237   23.8438 H   0  0  0  0  0  0  0  0  0  0  0  0
   10.2468    9.7837   22.6457 H   0  0  0  0  0  0  0  0  0  0  0  0
   10.5845   18.0299   20.6307 H   0  0  0  0  0  0  0  0  0  0  0  0
   11.8560   17.4834   19.4857 H   0  0  0  0  0  0  0  0  0  0  0  0
   10.2779   16.6279   19.5506 H   0  0  0  0  0  0  0  0  0  0  0  0
   15.3656   15.1669   22.6816 H   0  0  0  0  0  0  0  0  0  0  0  0
   14.8157   16.6767   23.4845 H   0  0  0  0  0  0  0  0  0  0  0  0
   14.5594   15.0891   24.2848 H   0  0  0  0  0  0  0  0  0  0  0  0
    6.3326   13.7068   26.2127 H   0  0  0  0  0  0  0  0  0  0  0  0
    7.8383   14.3390   25.5439 H   0  0  0  0  0  0  0  0  0  0  0  0
  1  2  3  0  0  0  0
  2 16  1  0  0  0  0
  3  5  2  0  0  0  0
  3  6  1  0  0  0  0
  4  7  2  0  0  0  0
  4  8  1  0  0  0  0
  5  7  1  0  0  0  0
  5 17  1  0  0  0  0
  6  8  2  0  0  0  0
  6 18  1  0  0  0  0
  7 24  1  0  0  0  0
  8 25  1  0  0  0  0
  9 13  1  0  0  0  0
  9 17  1  0  0  0  0
  9 21  2  0  0  0  0
 10 18  1  0  0  0  0
 10 19  1  0  0  0  0
 10 22  2  0  0  0  0
 11 18  1  0  0  0  0
 11 20  1  0  0  0  0
 11 23  2  0  0  0  0
 12 19  1  0  0  0  0
 12 20  1  0  0  0  0
 12 28  2  0  0  0  0
 13 24  1  0  0  0  0
 13 26  1  0  0  0  0
 13 27  1  0  0  0  0
 14 19  1  0  0  0  0
 15 20  1  0  0  0  0
 16 17  1  0  0  0  0
  1 29  1  0  0  0  0
  3 30  1  0  0  0  0
  4 31  1  0  0  0  0
 14 32  1  0  0  0  0
 14 33  1  0  0  0  0
 14 34  1  0  0  0  0
 15 35  1  0  0  0  0
 15 36  1  0  0  0  0
 15 37  1  0  0  0  0
 16 38  1  0  0  0  0
 16 39  1  0  0  0  0
M  END
> <id>
EN300-183277

> <smiles>
CN1C(=O)N(C=2C=C3N(CC#C)C(=O)C(F)(F)OC3=CC2F)C(=O)N(C)C1=S

> <MDLNUMBER>
MFCD32205805

> <IUPAC Name>
1,5-dimethyl-6-sulfanylidene-3-[2,2,7-trifluoro-3-oxo-4-(prop-2-yn-1-yl)-3,4-dihydro-2H-1,4-benzoxazin-6-yl]-1,3,5-triazinane-2,4-dione

> <CAS>
1258836-72-4

> <Purity>
95

> <URL>
https://www.enaminestore.com/catalog/EN300-183277

> <MP>
203-208

> <ROCS_ShapeQuery>
x0446_0A_x1080_0A_x0929_0A_x0812_0A_x0719_0A_x1140_0A_x0528_0A_x0310_0A

> <ROCS_TanimotoCombo>
0.423 

> <ROCS_ShapeTanimoto>
0.278 

> <ROCS_ColorTanimoto>
0.145 

> <ROCS_RefTversky>
0.252 

> <ROCS_RefColorTversky>
0.164 

> <ROCS_RefTverskyCombo>
0.415 

> <ROCS_FitTversky>
1.601 

> <ROCS_FitColorTversky>
0.563 

> <ROCS_FitTverskyCombo>
2.163 

> <ROCS_ColorScore>
-5.859

> <ROCS_Overlap>
2976.732

> <ROCS_Rank>
143                 

$$$$
untitled-dbase-344088_0
  -OEChem-02082415563D

 37 39  0     0  0  0  0  0  0999 V2000
    8.6772   14.5273   20.0656 C   0  0  0  0  0  0  0  0  0  0  0  0
    7.7083   14.2569   19.4096 C   0  0  0  0  0  0  0  0  0  0  0  0
    5.3610   11.6710   24.8120 C   0  0  0  0  0  0  0  0  0  0  0  0
    5.7064   13.0159   24.6676 C   0  0  0  0  0  0  0  0  0  0  0  0
   12.0804    9.7806   23.2786 C   0  0  0  0  0  0  0  0  0  0  0  0
   12.4258   11.1254   23.1340 C   0  0  0  0  0  0  0  0  0  0  0  0
    6.3221   10.6771   24.6256 C   0  0  0  0  0  0  0  0  0  0  0  0
    7.0141   13.3715   24.3362 C   0  0  0  0  0  0  0  0  0  0  0  0
   10.7727    9.4250   23.6101 C   0  0  0  0  0  0  0  0  0  0  0  0
   11.4646   12.1193   23.3203 C   0  0  0  0  0  0  0  0  0  0  0  0
    7.6287   11.0340   24.2944 C   0  0  0  0  0  0  0  0  0  0  0  0
    7.9737   12.3770   24.1502 C   0  0  0  0  0  0  0  0  0  0  0  0
    9.8131   10.4195   23.7960 C   0  0  0  0  0  0  0  0  0  0  0  0
   10.1580   11.7624   23.6516 C   0  0  0  0  0  0  0  0  0  0  0  0
    9.8420   14.8546   20.8556 C   0  0  0  0  0  0  0  0  0  0  0  0
    6.5291   13.9273   18.6104 C   0  0  0  0  0  0  0  0  0  0  0  0
   11.8571   13.5507   23.1592 C   0  0  0  0  0  0  0  0  0  0  0  0
   12.0081   13.9824   21.6959 C   0  0  0  0  0  0  0  0  0  0  0  0
   10.7827   13.8440   20.9555 N   0  0  0  0  0  0  0  0  0  0  0  0
    9.9158   15.9669   21.3632 O   0  0  0  0  0  0  0  0  0  0  0  0
    8.5404   10.0236   24.1208 O   0  0  0  0  0  0  0  0  0  0  0  0
    9.2464   12.7728   23.8254 O   0  0  0  0  0  0  0  0  0  0  0  0
    4.3420   11.3977   25.0700 H   0  0  0  0  0  0  0  0  0  0  0  0
    4.9553   13.7868   24.8142 H   0  0  0  0  0  0  0  0  0  0  0  0
   12.8310    9.0091   23.1325 H   0  0  0  0  0  0  0  0  0  0  0  0
   13.4484   11.3875   22.8749 H   0  0  0  0  0  0  0  0  0  0  0  0
    6.0461    9.6326   24.7389 H   0  0  0  0  0  0  0  0  0  0  0  0
    7.2759   14.4202   24.2265 H   0  0  0  0  0  0  0  0  0  0  0  0
   10.5107    8.3767   23.7215 H   0  0  0  0  0  0  0  0  0  0  0  0
    5.6243   14.3468   19.0605 H   0  0  0  0  0  0  0  0  0  0  0  0
    6.6214   14.3286   17.5968 H   0  0  0  0  0  0  0  0  0  0  0  0
    6.3998   12.8434   18.5358 H   0  0  0  0  0  0  0  0  0  0  0  0
   12.8143   13.7263   23.6775 H   0  0  0  0  0  0  0  0  0  0  0  0
   11.1301   14.2104   23.6621 H   0  0  0  0  0  0  0  0  0  0  0  0
   12.2959   15.0368   21.6357 H   0  0  0  0  0  0  0  0  0  0  0  0
   12.7728   13.3900   21.1829 H   0  0  0  0  0  0  0  0  0  0  0  0
   10.5984   12.9604   20.4823 H   0  0  0  0  0  0  0  0  0  0  0  0
  1  2  3  0  0  0  0
  1 15  1  0  0  0  0
  2 16  1  0  0  0  0
  3  4  1  0  0  0  0
  3  7  2  0  0  0  0
  4  8  2  0  0  0  0
  5  6  2  0  0  0  0
  5  9  1  0  0  0  0
  6 10  1  0  0  0  0
  7 11  1  0  0  0  0
  8 12  1  0  0  0  0
  9 13  2  0  0  0  0
 10 14  2  0  0  0  0
 10 17  1  0  0  0  0
 11 12  2  0  0  0  0
 11 21  1  0  0  0  0
 12 22  1  0  0  0  0
 13 14  1  0  0  0  0
 13 21  1  0  0  0  0
 14 22  1  0  0  0  0
 15 19  1  0  0  0  0
 15 20  2  0  0  0  0
 17 18  1  0  0  0  0
 18 19  1  0  0  0  0
  3 23  1  0  0  0  0
  4 24  1  0  0  0  0
  5 25  1  0  0  0  0
  6 26  1  0  0  0  0
  7 27  1  0  0  0  0
  8 28  1  0  0  0  0
  9 29  1  0  0  0  0
 16 30  1  0  0  0  0
 16 31  1  0  0  0  0
 16 32  1  0  0  0  0
 17 33  1  0  0  0  0
 17 34  1  0  0  0  0
 18 35  1  0  0  0  0
 18 36  1  0  0  0  0
 19 37  1  0  0  0  0
M  END
> <id>
EN300-7470794

> <smiles>
CC#CC(=O)NCCC=1C=CC=C2OC=3C=CC=CC3OC12

> <MDLNUMBER>
MFCD32858990

> <IUPAC Name>
N-[2-(oxanthren-1-yl)ethyl]but-2-ynamide

> <CAS>
2411249-99-3

> <URL>
https://www.enaminestore.com/catalog/EN300-7470794

> <ROCS_ShapeQuery>
x0446_0A_x1080_0A_x0929_0A_x0812_0A_x0719_0A_x1140_0A_x0528_0A_x0310_0A

> <ROCS_TanimotoCombo>
0.423 

> <ROCS_ShapeTanimoto>
0.240 

> <ROCS_ColorTanimoto>
0.183 

> <ROCS_RefTversky>
0.220 

> <ROCS_RefColorTversky>
0.195 

> <ROCS_RefTverskyCombo>
0.415 

> <ROCS_FitTversky>
1.649 

> <ROCS_FitColorTversky>
0.737 

> <ROCS_FitTverskyCombo>
2.386 

> <ROCS_ColorScore>
-6.984

> <ROCS_Overlap>
2594.583

> <ROCS_Rank>
144                 

$$$$
untitled-dbase-7344_1
  -OEChem-02082415563D

 43 46  0     0  0  0  0  0  0999 V2000
   13.7994   15.3415   21.9095 C   0  0  0  0  0  0  0  0  0  0  0  0
   13.1855   16.0575   22.9371 C   0  0  0  0  0  0  0  0  0  0  0  0
   13.0352   14.5274   21.0734 C   0  0  0  0  0  0  0  0  0  0  0  0
   11.8074   15.9594   23.1287 C   0  0  0  0  0  0  0  0  0  0  0  0
   11.6571   14.4294   21.2650 C   0  0  0  0  0  0  0  0  0  0  0  0
   11.0431   15.1453   22.2927 C   0  0  0  0  0  0  0  0  0  0  0  0
    9.5867   15.0417   22.4953 C   0  0  0  0  0  0  0  0  0  0  0  0
    9.3605   10.3629   22.5521 C   0  0  0  0  0  0  0  0  0  0  0  0
    7.0438   10.6671   23.4621 C   0  0  0  0  0  0  0  0  0  0  0  0
    8.9723   10.3317   25.0292 C   0  0  0  0  0  0  0  0  0  0  0  0
    8.2381   12.6006   22.4015 C   0  0  0  0  0  0  0  0  0  0  0  0
   10.1710   12.2645   23.9721 C   0  0  0  0  0  0  0  0  0  0  0  0
    7.8493   12.5693   24.8843 C   0  0  0  0  0  0  0  0  0  0  0  0
    8.0158   11.0791   22.3440 C   0  0  0  0  0  0  0  0  0  0  0  0
    9.9540   10.7421   23.9190 C   0  0  0  0  0  0  0  0  0  0  0  0
    7.6257   11.0477   24.8335 C   0  0  0  0  0  0  0  0  0  0  0  0
    8.8298   13.0090   23.7713 C   0  0  0  0  0  0  0  0  0  0  0  0
    9.0498   14.5232   23.8248 C   0  0  0  0  0  0  0  0  0  0  0  0
    8.8091   15.4015   21.5146 N   0  0  0  0  0  0  0  0  0  0  0  0
    9.5295   15.8385   20.4027 O   0  0  0  0  0  0  0  0  0  0  0  0
   14.8725   15.4178   21.7603 H   0  0  0  0  0  0  0  0  0  0  0  0
   13.7807   16.6911   23.5881 H   0  0  0  0  0  0  0  0  0  0  0  0
   13.5132   13.9702   20.2731 H   0  0  0  0  0  0  0  0  0  0  0  0
   11.3392   16.5217   23.9326 H   0  0  0  0  0  0  0  0  0  0  0  0
   11.0715   13.7919   20.6075 H   0  0  0  0  0  0  0  0  0  0  0  0
    9.2190    9.2766   22.4938 H   0  0  0  0  0  0  0  0  0  0  0  0
   10.0587   10.6363   21.7514 H   0  0  0  0  0  0  0  0  0  0  0  0
    6.0745   11.1595   23.3163 H   0  0  0  0  0  0  0  0  0  0  0  0
    6.8611    9.5862   23.4198 H   0  0  0  0  0  0  0  0  0  0  0  0
    8.8240    9.2449   25.0146 H   0  0  0  0  0  0  0  0  0  0  0  0
    9.3910   10.5827   26.0115 H   0  0  0  0  0  0  0  0  0  0  0  0
    8.9125   12.9051   21.5907 H   0  0  0  0  0  0  0  0  0  0  0  0
    7.2857   13.1186   22.2299 H   0  0  0  0  0  0  0  0  0  0  0  0
   10.6170   12.5395   24.9366 H   0  0  0  0  0  0  0  0  0  0  0  0
   10.8895   12.5613   23.1971 H   0  0  0  0  0  0  0  0  0  0  0  0
    6.8880   13.0869   24.7695 H   0  0  0  0  0  0  0  0  0  0  0  0
    8.2426   12.8510   25.8695 H   0  0  0  0  0  0  0  0  0  0  0  0
    7.5970   10.8036   21.3697 H   0  0  0  0  0  0  0  0  0  0  0  0
   10.9106   10.2274   24.0625 H   0  0  0  0  0  0  0  0  0  0  0  0
    6.9299   10.7500   25.6259 H   0  0  0  0  0  0  0  0  0  0  0  0
    9.7299   14.7683   24.6416 H   0  0  0  0  0  0  0  0  0  0  0  0
    8.1040   15.0142   24.0637 H   0  0  0  0  0  0  0  0  0  0  0  0
    8.8153   16.0620   19.7824 H   0  0  0  0  0  0  0  0  0  0  0  0
  1  2  1  0  0  0  0
  1  3  2  0  0  0  0
  2  4  2  0  0  0  0
  3  5  1  0  0  0  0
  4  6  1  0  0  0  0
  5  6  2  0  0  0  0
  6  7  1  0  0  0  0
  7 18  1  0  0  0  0
  7 19  2  0  0  0  0
  8 14  1  0  0  0  0
  8 15  1  0  0  0  0
  9 14  1  0  0  0  0
  9 16  1  0  0  0  0
 10 15  1  0  0  0  0
 10 16  1  0  0  0  0
 11 14  1  0  0  0  0
 11 17  1  0  0  0  0
 12 15  1  0  0  0  0
 12 17  1  0  0  0  0
 13 16  1  0  0  0  0
 13 17  1  0  0  0  0
 17 18  1  0  0  0  0
 19 20  1  4  0  0  0
  1 21  1  0  0  0  0
  2 22  1  0  0  0  0
  3 23  1  0  0  0  0
  4 24  1  0  0  0  0
  5 25  1  0  0  0  0
  8 26  1  0  0  0  0
  8 27  1  0  0  0  0
  9 28  1  0  0  0  0
  9 29  1  0  0  0  0
 10 30  1  0  0  0  0
 10 31  1  0  0  0  0
 11 32  1  0  0  0  0
 11 33  1  0  0  0  0
 12 34  1  0  0  0  0
 12 35  1  0  0  0  0
 13 36  1  0  0  0  0
 13 37  1  0  0  0  0
 14 38  1  0  0  0  0
 15 39  1  0  0  0  0
 16 40  1  0  0  0  0
 18 41  1  0  0  0  0
 18 42  1  0  0  0  0
 20 43  1  0  0  0  0
M  END
> <id>
EN300-07357

> <smiles>
ON=C(CC1(CC2CC3CC(C2)C1)C3)C=4C=CC=CC4

> <IUPAC Name>
N-[2-(adamantan-1-yl)-1-phenylethylidene]hydroxylamine

> <CAS>
731776-58-2

> <URL>
https://www.enaminestore.com/catalog/EN300-07357

> <ROCS_ShapeQuery>
x0446_0A_x1080_0A_x0929_0A_x0812_0A_x0719_0A_x1140_0A_x0528_0A_x0310_0A

> <ROCS_TanimotoCombo>
0.423 

> <ROCS_ShapeTanimoto>
0.233 

> <ROCS_ColorTanimoto>
0.190 

> <ROCS_RefTversky>
0.213 

> <ROCS_RefColorTversky>
0.208 

> <ROCS_RefTverskyCombo>
0.421 

> <ROCS_FitTversky>
1.698 

> <ROCS_FitColorTversky>
0.685 

> <ROCS_FitTverskyCombo>
2.383 

> <ROCS_ColorScore>
-7.440

> <ROCS_Overlap>
2514.551

> <ROCS_Rank>
145                 

$$$$
untitled-dbase-294178_6
  -OEChem-02082415563D

 43 47  0     1  0  0  0  0  0999 V2000
   13.3115   18.7197   22.0238 C   0  0  0  0  0  0  0  0  0  0  0  0
   14.4626   17.9461   22.2826 C   0  0  0  0  0  0  0  0  0  0  0  0
   12.0759   18.1137   21.7777 C   0  0  0  0  0  0  0  0  0  0  0  0
   14.4034   16.5495   22.3009 C   0  0  0  0  0  0  0  0  0  0  0  0
    6.5975   13.7637   22.7768 C   0  0  0  0  0  0  0  0  0  0  0  0
    5.6966   11.5825   22.2594 C   0  0  0  0  0  0  0  0  0  0  0  0
    5.4862   14.3633   22.1842 C   0  0  0  0  0  0  0  0  0  0  0  0
    4.5853   12.1820   21.6669 C   0  0  0  0  0  0  0  0  0  0  0  0
   12.0382   16.7354   21.8035 C   0  0  0  0  0  0  0  0  0  0  0  0
   13.1750   15.9714   22.0589 C   0  0  0  0  0  0  0  0  0  0  0  0
    6.7027   12.3733   22.8144 C   0  0  0  0  0  0  0  0  0  0  0  0
    4.4801   13.5725   21.6293 C   0  0  0  0  0  0  0  0  0  0  0  0
   10.9163   15.8182   21.5790 C   0  0  0  0  0  0  0  0  0  0  0  0
   12.7933   14.5568   22.0004 C   0  0  0  0  0  0  0  0  0  0  0  0
   10.1741   13.0657   22.9242 C   0  0  0  0  0  0  0  0  0  0  0  0
    9.3764   11.2151   25.2107 C   0  0  0  0  0  0  0  0  0  0  0  0
    8.1211   12.0537   24.9461 C   0  0  0  0  0  0  0  0  0  0  0  0
    8.1430   10.1716   23.3928 C   0  0  0  0  0  0  0  0  0  0  0  0
    9.3427   11.7857   22.7957 C   0  0  1  0  0  0  0  0  0  0  0  0
    9.5732   10.6163   23.8194 C   0  0  1  0  0  0  0  0  0  0  0  0
    7.9109   11.7224   23.4581 C   0  0  1  0  0  0  0  0  0  0  0  0
   11.4552   14.5830   21.7601 N   0  0  0  0  0  0  0  0  0  0  0  0
    9.7805   16.1584   21.3121 O   0  0  0  0  0  0  0  0  0  0  0  0
   13.5542   13.6227   22.1591 O   0  0  0  0  0  0  0  0  0  0  0  0
   10.3417   13.6701   23.9752 O   0  0  0  0  0  0  0  0  0  0  0  0
   10.6772   13.4061   21.7026 O   0  0  0  0  0  0  0  0  0  0  0  0
    3.1094   14.3121   20.8981 Cl  0  0  0  0  0  0  0  0  0  0  0  0
   13.3894   19.8039   22.0150 H   0  0  0  0  0  0  0  0  0  0  0  0
   15.4095   18.4463   22.4690 H   0  0  0  0  0  0  0  0  0  0  0  0
   11.1931   18.7088   21.5766 H   0  0  0  0  0  0  0  0  0  0  0  0
   15.2886   15.9563   22.4969 H   0  0  0  0  0  0  0  0  0  0  0  0
    7.3769   14.3867   23.2071 H   0  0  0  0  0  0  0  0  0  0  0  0
    5.7720   10.4988   22.2850 H   0  0  0  0  0  0  0  0  0  0  0  0
    5.4179   15.4479   22.1623 H   0  0  0  0  0  0  0  0  0  0  0  0
    3.8087   11.5536   21.2384 H   0  0  0  0  0  0  0  0  0  0  0  0
   10.2247   11.8308   25.5249 H   0  0  0  0  0  0  0  0  0  0  0  0
    9.1996   10.4460   25.9694 H   0  0  0  0  0  0  0  0  0  0  0  0
    7.2814   11.7276   25.5695 H   0  0  0  0  0  0  0  0  0  0  0  0
    8.2995   13.1199   25.1208 H   0  0  0  0  0  0  0  0  0  0  0  0
    8.0585    9.7076   22.4027 H   0  0  0  0  0  0  0  0  0  0  0  0
    7.5876    9.5574   24.1093 H   0  0  0  0  0  0  0  0  0  0  0  0
    9.3615   11.4584   21.7441 H   0  0  0  0  0  0  0  0  0  0  0  0
   10.3987    9.9266   23.6476 H   0  0  0  0  0  0  0  0  0  0  0  0
  1  2  1  0  0  0  0
  1  3  2  0  0  0  0
  2  4  2  0  0  0  0
  3  9  1  0  0  0  0
  4 10  1  0  0  0  0
  5  7  2  0  0  0  0
  5 11  1  0  0  0  0
  6  8  1  0  0  0  0
  6 11  2  0  0  0  0
  7 12  1  0  0  0  0
  8 12  2  0  0  0  0
  9 10  2  0  0  0  0
  9 13  1  0  0  0  0
 10 14  1  0  0  0  0
 11 21  1  1  0  0  0
 12 27  1  0  0  0  0
 13 22  1  0  0  0  0
 13 23  2  0  0  0  0
 14 22  1  0  0  0  0
 14 24  2  0  0  0  0
 15 19  1  6  0  0  0
 15 25  2  0  0  0  0
 15 26  1  0  0  0  0
 16 17  1  0  0  0  0
 16 20  1  0  0  0  0
 17 21  1  0  0  0  0
 18 20  1  1  0  0  0
 18 21  1  0  0  0  0
 19 20  1  0  0  0  0
 19 21  1  0  0  0  0
 22 26  1  0  0  0  0
  1 28  1  0  0  0  0
  2 29  1  0  0  0  0
  3 30  1  0  0  0  0
  4 31  1  0  0  0  0
  5 32  1  0  0  0  0
  6 33  1  0  0  0  0
  7 34  1  0  0  0  0
  8 35  1  0  0  0  0
 16 36  1  0  0  0  0
 16 37  1  0  0  0  0
 17 38  1  0  0  0  0
 17 39  1  0  0  0  0
 18 40  1  0  0  0  0
 18 41  1  0  0  0  0
 19 42  1  0  0  0  0
 20 43  1  0  0  0  0
M  END
> <id>
EN300-6526578

> <smiles>
ClC=1C=CC(=CC1)[C@@]2(C[C@@H]3CC2)[C@H]3C(=O)ON4C(=O)C=5C=CC=CC5C4=O |&1:7,9,12,r|

> <IUPAC Name>
rac-1,3-dioxo-2,3-dihydro-1H-isoindol-2-yl (1R,4R,5R)-1-(4-chlorophenyl)bicyclo[2.1.1]hexane-5-carboxylate

> <CAS>
2248309-15-9

> <URL>
https://www.enaminestore.com/catalog/EN300-6526578

> <ROCS_ShapeQuery>
x0446_0A_x1080_0A_x0929_0A_x0812_0A_x0719_0A_x1140_0A_x0528_0A_x0310_0A

> <ROCS_TanimotoCombo>
0.423 

> <ROCS_ShapeTanimoto>
0.233 

> <ROCS_ColorTanimoto>
0.190 

> <ROCS_RefTversky>
0.218 

> <ROCS_RefColorTversky>
0.222 

> <ROCS_RefTverskyCombo>
0.440 

> <ROCS_FitTversky>
1.415 

> <ROCS_FitColorTversky>
0.570 

> <ROCS_FitTverskyCombo>
1.985 

> <ROCS_ColorScore>
-7.988

> <ROCS_Overlap>
2576.823

> <ROCS_Rank>
146                 

$$$$
untitled-dbase-400875_1
  -OEChem-02082415563D

 44 47  0     1  0  0  0  0  0999 V2000
    8.2461   14.3591   22.1954 C   0  0  0  0  0  0  0  0  0  0  0  0
    6.8097   16.9475   23.4499 C   0  0  0  0  0  0  0  0  0  0  0  0
    5.1724   16.3168   21.7133 C   0  0  0  0  0  0  0  0  0  0  0  0
    9.2994   10.2080   22.7663 C   0  0  0  0  0  0  0  0  0  0  0  0
    9.6690   11.3520   24.9677 C   0  0  0  0  0  0  0  0  0  0  0  0
    7.3549   10.6710   24.2818 C   0  0  0  0  0  0  0  0  0  0  0  0
    9.9276   12.6352   22.8289 C   0  0  0  0  0  0  0  0  0  0  0  0
    7.6095   11.9529   22.1418 C   0  0  0  0  0  0  0  0  0  0  0  0
    7.9801   13.0994   24.3456 C   0  0  0  0  0  0  0  0  0  0  0  0
    5.7303   14.0299   22.1384 C   0  0  0  0  0  0  0  0  0  0  0  0
    6.6415   16.2607   22.1078 C   0  0  2  0  0  0  0  0  0  0  0  0
   10.1354   11.2682   23.5038 C   0  0  0  0  0  0  0  0  0  0  0  0
    7.8081   10.5831   22.8140 C   0  0  0  0  0  0  0  0  0  0  0  0
    8.1798   11.7344   25.0276 C   0  0  0  0  0  0  0  0  0  0  0  0
    4.5943   15.0298   22.3019 C   0  0  2  0  0  0  0  0  0  0  0  0
    8.4372   13.0270   22.8754 C   0  0  0  0  0  0  0  0  0  0  0  0
    6.9464   14.8364   22.1716 N   0  0  0  0  0  0  0  0  0  0  0  0
    9.2095   14.9552   21.7109 O   0  0  0  0  0  0  0  0  0  0  0  0
    6.6832   16.4041   24.5371 O   0  0  0  0  0  0  0  0  0  0  0  0
    7.1190   18.2565   23.2823 O   0  0  0  0  0  0  0  0  0  0  0  0
    3.4434   14.6114   21.5955 O   0  0  0  0  0  0  0  0  0  0  0  0
    4.6645   17.1860   22.1480 H   0  0  0  0  0  0  0  0  0  0  0  0
    5.0584   16.3561   20.6251 H   0  0  0  0  0  0  0  0  0  0  0  0
    9.6320   10.1275   21.7240 H   0  0  0  0  0  0  0  0  0  0  0  0
    9.4524    9.2244   23.2268 H   0  0  0  0  0  0  0  0  0  0  0  0
    9.8283   10.3882   25.4668 H   0  0  0  0  0  0  0  0  0  0  0  0
   10.2681   12.0941   25.5095 H   0  0  0  0  0  0  0  0  0  0  0  0
    6.2882   10.9227   24.3301 H   0  0  0  0  0  0  0  0  0  0  0  0
    7.4737    9.6954   24.7691 H   0  0  0  0  0  0  0  0  0  0  0  0
   10.5383   13.3973   23.3305 H   0  0  0  0  0  0  0  0  0  0  0  0
   10.2806   12.5947   21.7898 H   0  0  0  0  0  0  0  0  0  0  0  0
    7.9053   11.8960   21.0859 H   0  0  0  0  0  0  0  0  0  0  0  0
    6.5450   12.2218   22.1475 H   0  0  0  0  0  0  0  0  0  0  0  0
    6.9243   13.3949   24.4040 H   0  0  0  0  0  0  0  0  0  0  0  0
    8.5453   13.8716   24.8841 H   0  0  0  0  0  0  0  0  0  0  0  0
    5.7793   13.3410   22.9918 H   0  0  0  0  0  0  0  0  0  0  0  0
    5.6612   13.4551   21.2078 H   0  0  0  0  0  0  0  0  0  0  0  0
    7.2920   16.7491   21.3570 H   0  0  0  0  0  0  0  0  0  0  0  0
   11.1955   10.9947   23.4679 H   0  0  0  0  0  0  0  0  0  0  0  0
    7.2181    9.8238   22.2890 H   0  0  0  0  0  0  0  0  0  0  0  0
    7.8536   11.7911   26.0719 H   0  0  0  0  0  0  0  0  0  0  0  0
    4.3158   15.1660   23.3674 H   0  0  0  0  0  0  0  0  0  0  0  0
    7.2302   18.7195   24.1400 H   0  0  0  0  0  0  0  0  0  0  0  0
    2.7948   15.3296   21.6689 H   0  0  0  0  0  0  0  0  0  0  0  0
  1 16  1  0  0  0  0
  1 17  1  0  0  0  0
  1 18  2  0  0  0  0
  2 11  1  1  0  0  0
  2 19  2  0  0  0  0
  2 20  1  0  0  0  0
  3 11  1  0  0  0  0
  3 15  1  0  0  0  0
  4 12  1  0  0  0  0
  4 13  1  0  0  0  0
  5 12  1  0  0  0  0
  5 14  1  0  0  0  0
  6 13  1  0  0  0  0
  6 14  1  0  0  0  0
  7 12  1  0  0  0  0
  7 16  1  0  0  0  0
  8 13  1  0  0  0  0
  8 16  1  0  0  0  0
  9 14  1  0  0  0  0
  9 16  1  0  0  0  0
 10 15  1  0  0  0  0
 10 17  1  0  0  0  0
 11 17  1  0  0  0  0
 15 21  1  6  0  0  0
  3 22  1  0  0  0  0
  3 23  1  0  0  0  0
  4 24  1  0  0  0  0
  4 25  1  0  0  0  0
  5 26  1  0  0  0  0
  5 27  1  0  0  0  0
  6 28  1  0  0  0  0
  6 29  1  0  0  0  0
  7 30  1  0  0  0  0
  7 31  1  0  0  0  0
  8 32  1  0  0  0  0
  8 33  1  0  0  0  0
  9 34  1  0  0  0  0
  9 35  1  0  0  0  0
 10 36  1  0  0  0  0
 10 37  1  0  0  0  0
 11 38  1  0  0  0  0
 12 39  1  0  0  0  0
 13 40  1  0  0  0  0
 14 41  1  0  0  0  0
 15 42  1  0  0  0  0
 20 43  1  0  0  0  0
 21 44  1  0  0  0  0
M  END
> <id>
EN300-72918

> <smiles>
O[C@@H]1C[C@H](N(C1)C(=O)C2(CC3CC4CC(C3)C2)C4)C(=O)O

> <IUPAC Name>
(2S,4R)-1-(adamantane-1-carbonyl)-4-hydroxypyrrolidine-2-carboxylic acid

> <CAS>
1807938-86-8

> <Purity>
95

> <URL>
https://www.enaminestore.com/catalog/EN300-72918

> <ROCS_ShapeQuery>
x0446_0A_x1080_0A_x0929_0A_x0812_0A_x0719_0A_x1140_0A_x0528_0A_x0310_0A

> <ROCS_TanimotoCombo>
0.423 

> <ROCS_ShapeTanimoto>
0.219 

> <ROCS_ColorTanimoto>
0.204 

> <ROCS_RefTversky>
0.203 

> <ROCS_RefColorTversky>
0.239 

> <ROCS_RefTverskyCombo>
0.441 

> <ROCS_FitTversky>
1.563 

> <ROCS_FitColorTversky>
0.586 

> <ROCS_FitTverskyCombo>
2.149 

> <ROCS_ColorScore>
-8.596

> <ROCS_Overlap>
2393.347

> <ROCS_Rank>
147                 

$$$$
untitled-dbase-506395_1
  -OEChem-02082415563D

 36 38  0     0  0  0  0  0  0999 V2000
   10.0510   13.9677   24.0758 C   0  0  0  0  0  0  0  0  0  0  0  0
   10.0962   14.2086   21.2597 C   0  0  0  0  0  0  0  0  0  0  0  0
    7.4292   10.0595   24.0655 C   0  0  0  0  0  0  0  0  0  0  0  0
    9.3285   11.2113   25.2193 C   0  0  0  0  0  0  0  0  0  0  0  0
    7.3536   12.5419   24.4064 C   0  0  0  0  0  0  0  0  0  0  0  0
    9.6477   10.2868   22.9219 C   0  0  0  0  0  0  0  0  0  0  0  0
    7.6610   11.6113   22.1162 C   0  0  0  0  0  0  0  0  0  0  0  0
    7.8027   11.2040   25.0217 C   0  0  0  0  0  0  0  0  0  0  0  0
    8.1226   10.2678   22.7091 C   0  0  0  0  0  0  0  0  0  0  0  0
   10.0432   11.4453   23.8679 C   0  0  0  0  0  0  0  0  0  0  0  0
    8.0654   12.7760   23.0516 C   0  0  0  0  0  0  0  0  0  0  0  0
    9.6036   12.7949   23.2489 C   0  0  0  0  0  0  0  0  0  0  0  0
   10.9368   14.2214   20.0170 C   0  0  0  0  0  0  0  0  0  0  0  0
   10.2940   13.0609   22.0055 N   0  0  0  0  0  0  0  0  0  0  0  0
    9.3065   14.7928   24.5842 O   0  0  0  0  0  0  0  0  0  0  0  0
    9.3340   15.1297   21.5389 O   0  0  0  0  0  0  0  0  0  0  0  0
   11.4021   13.9911   24.1820 O   0  0  0  0  0  0  0  0  0  0  0  0
   11.6989   13.1033   19.9094 F   0  0  0  0  0  0  0  0  0  0  0  0
   11.7843   15.2813   19.9863 F   0  0  0  0  0  0  0  0  0  0  0  0
   10.1815   14.2908   18.8914 F   0  0  0  0  0  0  0  0  0  0  0  0
    7.7283    9.0965   24.4972 H   0  0  0  0  0  0  0  0  0  0  0  0
    6.3412   10.0231   23.9301 H   0  0  0  0  0  0  0  0  0  0  0  0
    9.6071   11.9911   25.9379 H   0  0  0  0  0  0  0  0  0  0  0  0
    9.6541   10.2574   25.6528 H   0  0  0  0  0  0  0  0  0  0  0  0
    6.2660   12.5395   24.2610 H   0  0  0  0  0  0  0  0  0  0  0  0
    7.5740   13.3631   25.0986 H   0  0  0  0  0  0  0  0  0  0  0  0
    9.9751    9.3306   23.3492 H   0  0  0  0  0  0  0  0  0  0  0  0
   10.1595   10.3868   21.9575 H   0  0  0  0  0  0  0  0  0  0  0  0
    8.1026   11.7511   21.1224 H   0  0  0  0  0  0  0  0  0  0  0  0
    6.5729   11.6057   21.9757 H   0  0  0  0  0  0  0  0  0  0  0  0
    7.3052   11.0544   25.9864 H   0  0  0  0  0  0  0  0  0  0  0  0
    7.8542    9.4520   22.0288 H   0  0  0  0  0  0  0  0  0  0  0  0
   11.1272   11.4315   24.0366 H   0  0  0  0  0  0  0  0  0  0  0  0
    7.7161   13.7270   22.6305 H   0  0  0  0  0  0  0  0  0  0  0  0
   10.9559   12.3713   21.6639 H   0  0  0  0  0  0  0  0  0  0  0  0
   11.7144   14.7515   24.7173 H   0  0  0  0  0  0  0  0  0  0  0  0
  1 12  1  0  0  0  0
  1 15  2  0  0  0  0
  1 17  1  0  0  0  0
  2 13  1  0  0  0  0
  2 14  1  0  0  0  0
  2 16  2  0  0  0  0
  3  8  1  0  0  0  0
  3  9  1  0  0  0  0
  4  8  1  0  0  0  0
  4 10  1  0  0  0  0
  5  8  1  0  0  0  0
  5 11  1  0  0  0  0
  6  9  1  0  0  0  0
  6 10  1  0  0  0  0
  7  9  1  0  0  0  0
  7 11  1  0  0  0  0
 10 12  1  0  0  0  0
 11 12  1  0  0  0  0
 12 14  1  0  0  0  0
 13 18  1  0  0  0  0
 13 19  1  0  0  0  0
 13 20  1  0  0  0  0
  3 21  1  0  0  0  0
  3 22  1  0  0  0  0
  4 23  1  0  0  0  0
  4 24  1  0  0  0  0
  5 25  1  0  0  0  0
  5 26  1  0  0  0  0
  6 27  1  0  0  0  0
  6 28  1  0  0  0  0
  7 29  1  0  0  0  0
  7 30  1  0  0  0  0
  8 31  1  0  0  0  0
  9 32  1  0  0  0  0
 10 33  1  0  0  0  0
 11 34  1  0  0  0  0
 14 35  1  0  0  0  0
 17 36  1  0  0  0  0
M  END
> <id>
EN300-28288401

> <smiles>
OC(=O)C1(NC(=O)C(F)(F)F)C2CC3CC(C2)CC1C3

> <IUPAC Name>
2-(2,2,2-trifluoroacetamido)adamantane-2-carboxylic acid

> <CAS>
50346-48-0

> <URL>
https://www.enaminestore.com/catalog/EN300-28288401

> <ROCS_ShapeQuery>
x0446_0A_x1080_0A_x0929_0A_x0812_0A_x0719_0A_x1140_0A_x0528_0A_x0310_0A

> <ROCS_TanimotoCombo>
0.423 

> <ROCS_ShapeTanimoto>
0.227 

> <ROCS_ColorTanimoto>
0.196 

> <ROCS_RefTversky>
0.208 

> <ROCS_RefColorTversky>
0.222 

> <ROCS_RefTverskyCombo>
0.430 

> <ROCS_FitTversky>
1.642 

> <ROCS_FitColorTversky>
0.624 

> <ROCS_FitTverskyCombo>
2.267 

> <ROCS_ColorScore>
-7.962

> <ROCS_Overlap>
2461.506

> <ROCS_Rank>
148                 

$$$$
untitled-dbase-506502_3
  -OEChem-02082415563D

 35 36  0     0  0  0  0  0  0999 V2000
    8.3156   12.3645   23.5586 C   0  0  0  0  0  0  0  0  0  0  0  0
    7.6535   13.4422   24.2266 C   0  0  0  0  0  0  0  0  0  0  0  0
    6.7981   13.0047   25.2145 C   0  0  0  0  0  0  0  0  0  0  0  0
    9.2483   12.3182   22.5175 C   0  0  0  0  0  0  0  0  0  0  0  0
    7.9215   11.1406   24.0837 C   0  0  0  0  0  0  0  0  0  0  0  0
    9.2451   10.0218   22.6790 C   0  0  0  0  0  0  0  0  0  0  0  0
    8.8518   14.4313   21.2629 C   0  0  0  0  0  0  0  0  0  0  0  0
   11.3607   14.5631   23.3561 C   0  0  0  0  0  0  0  0  0  0  0  0
    7.8495   14.8798   23.9066 C   0  0  0  0  0  0  0  0  0  0  0  0
    5.9379   13.8002   26.1189 C   0  0  0  0  0  0  0  0  0  0  0  0
    9.7856    8.7271   22.1691 C   0  0  0  0  0  0  0  0  0  0  0  0
   11.1649   13.8291   22.0650 C   0  0  0  0  0  0  0  0  0  0  0  0
    7.6721   13.9064   20.4838 C   0  0  0  0  0  0  0  0  0  0  0  0
    9.7158   11.1310   22.0759 N   0  0  0  0  0  0  0  0  0  0  0  0
    8.3542    9.9293   23.6824 N   0  0  0  0  0  0  0  0  0  0  0  0
    9.7158   13.4932   21.9213 N   0  0  0  0  0  0  0  0  0  0  0  0
    9.0333   15.6521   21.2737 O   0  0  0  0  0  0  0  0  0  0  0  0
   11.1225   14.1378   24.4766 O   0  0  0  0  0  0  0  0  0  0  0  0
   11.8548   15.8046   23.1125 O   0  0  0  0  0  0  0  0  0  0  0  0
    7.6095   12.5483   20.5307 F   0  0  0  0  0  0  0  0  0  0  0  0
    6.4861   14.3554   20.9671 F   0  0  0  0  0  0  0  0  0  0  0  0
    7.7312   14.2352   19.1684 F   0  0  0  0  0  0  0  0  0  0  0  0
    6.7854   11.2992   25.3440 S   0  0  0  0  0  0  0  0  0  0  0  0
    7.1339   15.2073   23.1397 H   0  0  0  0  0  0  0  0  0  0  0  0
    7.7144   15.5136   24.7952 H   0  0  0  0  0  0  0  0  0  0  0  0
    8.8657   15.0759   23.5341 H   0  0  0  0  0  0  0  0  0  0  0  0
    4.9438   13.9621   25.6744 H   0  0  0  0  0  0  0  0  0  0  0  0
    5.7967   13.3034   27.0922 H   0  0  0  0  0  0  0  0  0  0  0  0
    6.3759   14.7875   26.3376 H   0  0  0  0  0  0  0  0  0  0  0  0
   10.6876    8.4458   22.7253 H   0  0  0  0  0  0  0  0  0  0  0  0
    9.0477    7.9214   22.2703 H   0  0  0  0  0  0  0  0  0  0  0  0
   10.0394    8.7949   21.1036 H   0  0  0  0  0  0  0  0  0  0  0  0
   11.4659   14.4674   21.2301 H   0  0  0  0  0  0  0  0  0  0  0  0
   11.7474   12.9042   22.0710 H   0  0  0  0  0  0  0  0  0  0  0  0
   11.9948   16.3114   23.9408 H   0  0  0  0  0  0  0  0  0  0  0  0
  1  2  1  0  0  0  0
  1  4  1  0  0  0  0
  1  5  2  0  0  0  0
  2  3  2  0  0  0  0
  2  9  1  0  0  0  0
  3 10  1  0  0  0  0
  3 23  1  0  0  0  0
  4 14  2  0  0  0  0
  4 16  1  0  0  0  0
  5 15  1  0  0  0  0
  5 23  1  0  0  0  0
  6 11  1  0  0  0  0
  6 14  1  0  0  0  0
  6 15  2  0  0  0  0
  7 13  1  0  0  0  0
  7 16  1  0  0  0  0
  7 17  2  0  0  0  0
  8 12  1  0  0  0  0
  8 18  2  0  0  0  0
  8 19  1  0  0  0  0
 12 16  1  0  0  0  0
 13 20  1  0  0  0  0
 13 21  1  0  0  0  0
 13 22  1  0  0  0  0
  9 24  1  0  0  0  0
  9 25  1  0  0  0  0
  9 26  1  0  0  0  0
 10 27  1  0  0  0  0
 10 28  1  0  0  0  0
 10 29  1  0  0  0  0
 11 30  1  0  0  0  0
 11 31  1  0  0  0  0
 11 32  1  0  0  0  0
 12 33  1  0  0  0  0
 12 34  1  0  0  0  0
 19 35  1  0  0  0  0
M  END
> <id>
EN300-28298106

> <smiles>
CC=1SC=2N=C(C)N=C(N(CC(=O)O)C(=O)C(F)(F)F)C2C1C

> <IUPAC Name>
2-(2,2,2-trifluoro-N-{2,5,6-trimethylthieno[2,3-d]pyrimidin-4-yl}acetamido)acetic acid

> <CAS>
2680677-54-5

> <URL>
https://www.enaminestore.com/catalog/EN300-28298106

> <ROCS_ShapeQuery>
x0446_0A_x1080_0A_x0929_0A_x0812_0A_x0719_0A_x1140_0A_x0528_0A_x0310_0A

> <ROCS_TanimotoCombo>
0.422 

> <ROCS_ShapeTanimoto>
0.252 

> <ROCS_ColorTanimoto>
0.170 

> <ROCS_RefTversky>
0.229 

> <ROCS_RefColorTversky>
0.184 

> <ROCS_RefTverskyCombo>
0.413 

> <ROCS_FitTversky>
1.677 

> <ROCS_FitColorTversky>
0.694 

> <ROCS_FitTverskyCombo>
2.370 

> <ROCS_ColorScore>
-6.583

> <ROCS_Overlap>
2703.971

> <ROCS_Rank>
149                 

$$$$
untitled-dbase-480322_8
  -OEChem-02082415563D

 45 47  0     1  0  0  0  0  0999 V2000
   11.3876   14.7013   23.2755 C   0  0  0  0  0  0  0  0  0  0  0  0
    9.6877   14.3215   21.7191 C   0  0  0  0  0  0  0  0  0  0  0  0
   10.6388   16.3751   21.9320 C   0  0  0  0  0  0  0  0  0  0  0  0
   10.4996   13.8090   22.7102 C   0  0  0  0  0  0  0  0  0  0  0  0
    7.0259   13.4958   23.6515 C   0  0  0  0  0  0  0  0  0  0  0  0
    8.3099   10.4225   24.9705 C   0  0  0  0  0  0  0  0  0  0  0  0
    7.7856   10.0844   23.5642 C   0  0  0  0  0  0  0  0  0  0  0  0
   10.0574   12.2462   24.6771 C   0  0  0  0  0  0  0  0  0  0  0  0
    9.4974   11.4279   22.2838 C   0  0  0  0  0  0  0  0  0  0  0  0
    8.5692   11.9415   24.9455 C   0  0  1  0  0  0  0  0  0  0  0  0
    8.0237   11.3652   22.7596 C   0  0  2  0  0  0  0  0  0  0  0  0
   10.4205   12.3403   23.1543 C   0  0  0  0  0  0  0  0  0  0  0  0
    6.4397   15.9729   22.3541 C   0  0  0  0  0  0  0  0  0  0  0  0
    5.0608   14.6018   20.7642 C   0  0  0  0  0  0  0  0  0  0  0  0
    4.4562   14.6755   23.2008 C   0  0  0  0  0  0  0  0  0  0  0  0
    5.6006   14.7066   22.1889 C   0  0  0  0  0  0  0  0  0  0  0  0
   11.4844   15.9962   22.9092 N   0  0  0  0  0  0  0  0  0  0  0  0
    9.7306   15.6044   21.3036 N   0  0  0  0  0  0  0  0  0  0  0  0
    7.8068   12.3662   23.7860 N   0  0  0  0  0  0  0  0  0  0  0  0
    6.8628   14.3334   24.5357 O   0  0  0  0  0  0  0  0  0  0  0  0
   11.7578   11.8345   22.9833 O   0  0  0  0  0  0  0  0  0  0  0  0
    6.4413   13.5702   22.4164 O   0  0  0  0  0  0  0  0  0  0  0  0
   12.0698   14.3967   24.0630 H   0  0  0  0  0  0  0  0  0  0  0  0
    8.9552   13.7010   21.2122 H   0  0  0  0  0  0  0  0  0  0  0  0
   10.6948   17.4105   21.6192 H   0  0  0  0  0  0  0  0  0  0  0  0
    7.5359   10.1888   25.7114 H   0  0  0  0  0  0  0  0  0  0  0  0
    9.2010    9.8444   25.2330 H   0  0  0  0  0  0  0  0  0  0  0  0
    8.2811    9.2110   23.1361 H   0  0  0  0  0  0  0  0  0  0  0  0
    6.7148    9.8673   23.6224 H   0  0  0  0  0  0  0  0  0  0  0  0
   10.2988   13.1961   25.1687 H   0  0  0  0  0  0  0  0  0  0  0  0
   10.6708   11.4738   25.1530 H   0  0  0  0  0  0  0  0  0  0  0  0
    9.9011   10.4076   22.2542 H   0  0  0  0  0  0  0  0  0  0  0  0
    9.4923   11.7944   21.2477 H   0  0  0  0  0  0  0  0  0  0  0  0
    8.2383   12.4221   25.8692 H   0  0  0  0  0  0  0  0  0  0  0  0
    7.3380   11.4606   21.9259 H   0  0  0  0  0  0  0  0  0  0  0  0
    6.8290   16.0519   23.3755 H   0  0  0  0  0  0  0  0  0  0  0  0
    7.2843   15.9909   21.6576 H   0  0  0  0  0  0  0  0  0  0  0  0
    5.8322   16.8694   22.1847 H   0  0  0  0  0  0  0  0  0  0  0  0
    4.4581   13.6946   20.6411 H   0  0  0  0  0  0  0  0  0  0  0  0
    5.8807   14.5282   20.0406 H   0  0  0  0  0  0  0  0  0  0  0  0
    4.4431   15.4666   20.5015 H   0  0  0  0  0  0  0  0  0  0  0  0
    3.8542   13.7673   23.0825 H   0  0  0  0  0  0  0  0  0  0  0  0
    4.8269   14.7127   24.2303 H   0  0  0  0  0  0  0  0  0  0  0  0
    3.7753   15.5202   23.0452 H   0  0  0  0  0  0  0  0  0  0  0  0
   11.7364   10.9052   23.2575 H   0  0  0  0  0  0  0  0  0  0  0  0
  1  4  1  0  0  0  0
  1 17  2  0  0  0  0
  2  4  2  0  0  0  0
  2 18  1  0  0  0  0
  3 17  1  0  0  0  0
  3 18  2  0  0  0  0
  4 12  1  6  0  0  0
  5 19  1  0  0  0  0
  5 20  2  0  0  0  0
  5 22  1  0  0  0  0
  6  7  1  0  0  0  0
  6 10  1  0  0  0  0
  7 11  1  0  0  0  0
  8 10  1  0  0  0  0
  8 12  1  0  0  0  0
  9 11  1  0  0  0  0
  9 12  1  0  0  0  0
 10 19  1  6  0  0  0
 11 19  1  6  0  0  0
 12 21  1  1  0  0  0
 13 16  1  0  0  0  0
 14 16  1  0  0  0  0
 15 16  1  0  0  0  0
 16 22  1  0  0  0  0
  1 23  1  0  0  0  0
  2 24  1  0  0  0  0
  3 25  1  0  0  0  0
  6 26  1  0  0  0  0
  6 27  1  0  0  0  0
  7 28  1  0  0  0  0
  7 29  1  0  0  0  0
  8 30  1  0  0  0  0
  8 31  1  0  0  0  0
  9 32  1  0  0  0  0
  9 33  1  0  0  0  0
 10 34  1  0  0  0  0
 11 35  1  0  0  0  0
 13 36  1  0  0  0  0
 13 37  1  0  0  0  0
 13 38  1  0  0  0  0
 14 39  1  0  0  0  0
 14 40  1  0  0  0  0
 14 41  1  0  0  0  0
 15 42  1  0  0  0  0
 15 43  1  0  0  0  0
 15 44  1  0  0  0  0
 21 45  1  0  0  0  0
M  END
> <id>
EN300-27718505

> <smiles>
CC(C)(C)OC(=O)N1[C@H]2CC[C@@H]1C[C@](O)(C2)C=3C=NC=NC3

> <IUPAC Name>
tert-butyl (1R,3R,5S)-3-hydroxy-3-(pyrimidin-5-yl)-8-azabicyclo[3.2.1]octane-8-carboxylate

> <CAS>
1346014-59-2

> <URL>
https://www.enaminestore.com/catalog/EN300-27718505

> <ROCS_ShapeQuery>
x0446_0A_x1080_0A_x0929_0A_x0812_0A_x0719_0A_x1140_0A_x0528_0A_x0310_0A

> <ROCS_TanimotoCombo>
0.422 

> <ROCS_ShapeTanimoto>
0.249 

> <ROCS_ColorTanimoto>
0.174 

> <ROCS_RefTversky>
0.226 

> <ROCS_RefColorTversky>
0.206 

> <ROCS_RefTverskyCombo>
0.431 

> <ROCS_FitTversky>
1.698 

> <ROCS_FitColorTversky>
0.527 

> <ROCS_FitTverskyCombo>
2.226 

> <ROCS_ColorScore>
-7.397

> <ROCS_Overlap>
2666.897

> <ROCS_Rank>
150                 

$$$$
untitled-dbase-236725_2
  -OEChem-02082415563D

 43 46  0     0  0  0  0  0  0999 V2000
   12.9536   15.2711   21.8257 C   0  0  0  0  0  0  0  0  0  0  0  0
   12.3717   13.9376   22.3331 C   0  0  0  0  0  0  0  0  0  0  0  0
   11.7865   15.9902   22.5293 C   0  0  0  0  0  0  0  0  0  0  0  0
    8.4271   10.7428   22.0864 C   0  0  0  0  0  0  0  0  0  0  0  0
    7.2795   11.1994   24.2687 C   0  0  0  0  0  0  0  0  0  0  0  0
    9.5121   10.0584   24.2409 C   0  0  0  0  0  0  0  0  0  0  0  0
    8.2289   13.0962   22.9305 C   0  0  0  0  0  0  0  0  0  0  0  0
   10.4667   11.9526   22.9026 C   0  0  0  0  0  0  0  0  0  0  0  0
    9.3167   12.4100   25.0899 C   0  0  0  0  0  0  0  0  0  0  0  0
    7.5259   11.7300   22.8466 C   0  0  0  0  0  0  0  0  0  0  0  0
    9.7698   10.5833   22.8187 C   0  0  0  0  0  0  0  0  0  0  0  0
    8.6164   11.0421   25.0119 C   0  0  0  0  0  0  0  0  0  0  0  0
    9.5816   12.9635   23.6696 C   0  0  0  0  0  0  0  0  0  0  0  0
   10.9951   14.6499   22.4836 C   0  0  0  0  0  0  0  0  0  0  0  0
   10.2781   14.3243   23.7511 C   0  0  0  0  0  0  0  0  0  0  0  0
   10.0783   14.5046   21.2686 C   0  0  0  0  0  0  0  0  0  0  0  0
    8.8667   15.1832   21.5389 O   0  0  0  0  0  0  0  0  0  0  0  0
   13.9526   15.5210   22.1923 H   0  0  0  0  0  0  0  0  0  0  0  0
   12.9431   15.3723   20.7347 H   0  0  0  0  0  0  0  0  0  0  0  0
   12.4138   13.1079   21.6218 H   0  0  0  0  0  0  0  0  0  0  0  0
   12.8188   13.6067   23.2784 H   0  0  0  0  0  0  0  0  0  0  0  0
   12.0406   16.3346   23.5390 H   0  0  0  0  0  0  0  0  0  0  0  0
   11.3529   16.8293   21.9772 H   0  0  0  0  0  0  0  0  0  0  0  0
    7.9286    9.7693   22.0024 H   0  0  0  0  0  0  0  0  0  0  0  0
    8.5981   11.1021   21.0642 H   0  0  0  0  0  0  0  0  0  0  0  0
    6.6243   11.8874   24.8171 H   0  0  0  0  0  0  0  0  0  0  0  0
    6.7605   10.2340   24.2233 H   0  0  0  0  0  0  0  0  0  0  0  0
    9.0328    9.0727   24.1949 H   0  0  0  0  0  0  0  0  0  0  0  0
   10.4640    9.9251   24.7696 H   0  0  0  0  0  0  0  0  0  0  0  0
    8.3864   13.4920   21.9189 H   0  0  0  0  0  0  0  0  0  0  0  0
    7.5806   13.8125   23.4514 H   0  0  0  0  0  0  0  0  0  0  0  0
   11.4372   11.8418   23.4033 H   0  0  0  0  0  0  0  0  0  0  0  0
   10.6752   12.3224   21.8904 H   0  0  0  0  0  0  0  0  0  0  0  0
    8.6933   13.1110   25.6601 H   0  0  0  0  0  0  0  0  0  0  0  0
   10.2610   12.3094   25.6401 H   0  0  0  0  0  0  0  0  0  0  0  0
    6.5703   11.8380   22.3214 H   0  0  0  0  0  0  0  0  0  0  0  0
   10.4067    9.8775   22.2739 H   0  0  0  0  0  0  0  0  0  0  0  0
    8.4346   10.6620   26.0234 H   0  0  0  0  0  0  0  0  0  0  0  0
    9.5305   15.0922   23.9603 H   0  0  0  0  0  0  0  0  0  0  0  0
   10.9857   14.3101   24.5825 H   0  0  0  0  0  0  0  0  0  0  0  0
    9.8712   13.4511   21.0871 H   0  0  0  0  0  0  0  0  0  0  0  0
   10.5533   14.9451   20.3934 H   0  0  0  0  0  0  0  0  0  0  0  0
    8.2990   15.0790   20.7559 H   0  0  0  0  0  0  0  0  0  0  0  0
  1  2  1  0  0  0  0
  1  3  1  0  0  0  0
  2 14  1  0  0  0  0
  3 14  1  0  0  0  0
  4 10  1  0  0  0  0
  4 11  1  0  0  0  0
  5 10  1  0  0  0  0
  5 12  1  0  0  0  0
  6 11  1  0  0  0  0
  6 12  1  0  0  0  0
  7 10  1  0  0  0  0
  7 13  1  0  0  0  0
  8 11  1  0  0  0  0
  8 13  1  0  0  0  0
  9 12  1  0  0  0  0
  9 13  1  0  0  0  0
 13 15  1  0  0  0  0
 14 15  1  0  0  0  0
 14 16  1  0  0  0  0
 16 17  1  0  0  0  0
  1 18  1  0  0  0  0
  1 19  1  0  0  0  0
  2 20  1  0  0  0  0
  2 21  1  0  0  0  0
  3 22  1  0  0  0  0
  3 23  1  0  0  0  0
  4 24  1  0  0  0  0
  4 25  1  0  0  0  0
  5 26  1  0  0  0  0
  5 27  1  0  0  0  0
  6 28  1  0  0  0  0
  6 29  1  0  0  0  0
  7 30  1  0  0  0  0
  7 31  1  0  0  0  0
  8 32  1  0  0  0  0
  8 33  1  0  0  0  0
  9 34  1  0  0  0  0
  9 35  1  0  0  0  0
 10 36  1  0  0  0  0
 11 37  1  0  0  0  0
 12 38  1  0  0  0  0
 15 39  1  0  0  0  0
 15 40  1  0  0  0  0
 16 41  1  0  0  0  0
 16 42  1  0  0  0  0
 17 43  1  0  0  0  0
M  END
> <id>
EN300-1797824

> <smiles>
OCC1(CC2(CC3CC4CC(C3)C2)C4)CCC1

> <IUPAC Name>
{1-[(adamantan-1-yl)methyl]cyclobutyl}methanol

> <CAS>
2228464-94-4

> <URL>
https://www.enaminestore.com/catalog/EN300-1797824

> <ROCS_ShapeQuery>
x0446_0A_x1080_0A_x0929_0A_x0812_0A_x0719_0A_x1140_0A_x0528_0A_x0310_0A

> <ROCS_TanimotoCombo>
0.422 

> <ROCS_ShapeTanimoto>
0.232 

> <ROCS_ColorTanimoto>
0.191 

> <ROCS_RefTversky>
0.210 

> <ROCS_RefColorTversky>
0.209 

> <ROCS_RefTverskyCombo>
0.418 

> <ROCS_FitTversky>
1.840 

> <ROCS_FitColorTversky>
0.689 

> <ROCS_FitTverskyCombo>
2.529 

> <ROCS_ColorScore>
-7.476

> <ROCS_Overlap>
2472.448

> <ROCS_Rank>
151                 

$$$$
untitled-dbase-19407_2
  -OEChem-02082415563D

 43 46  0     1  0  0  0  0  0999 V2000
   11.7961   14.1650   23.7017 C   0  0  0  0  0  0  0  0  0  0  0  0
   12.5464   15.3034   23.4073 C   0  0  0  0  0  0  0  0  0  0  0  0
   11.0605   15.8077   21.5702 C   0  0  0  0  0  0  0  0  0  0  0  0
   10.6780   13.8479   22.9303 C   0  0  0  0  0  0  0  0  0  0  0  0
   12.1786   16.1248   22.3416 C   0  0  0  0  0  0  0  0  0  0  0  0
   10.3102   14.6693   21.8646 C   0  0  0  0  0  0  0  0  0  0  0  0
    6.1429   12.1701   24.3145 C   0  0  0  0  0  0  0  0  0  0  0  0
    9.5855    9.6455   23.6946 C   0  0  0  0  0  0  0  0  0  0  0  0
    9.7880   11.5594   22.0909 C   0  0  0  0  0  0  0  0  0  0  0  0
   10.4636   11.8580   24.4877 C   0  0  0  0  0  0  0  0  0  0  0  0
    7.5232   10.7663   22.8123 C   0  0  0  0  0  0  0  0  0  0  0  0
    8.1934   11.0739   25.2114 C   0  0  0  0  0  0  0  0  0  0  0  0
    8.3865   12.9909   23.5986 C   0  0  0  0  0  0  0  0  0  0  0  0
    8.9535   10.3247   22.4718 C   0  0  2  0  0  0  0  0  0  0  0  0
    9.6249   10.6271   24.8739 C   0  0  1  0  0  0  0  0  0  0  0  0
    9.8533   12.5929   23.2578 C   0  0  0  0  0  0  0  0  0  0  0  0
    7.5499   11.7555   23.9891 C   0  0  0  0  0  0  0  0  0  0  0  0
   12.4787   18.0316   20.9525 C   0  0  0  0  0  0  0  0  0  0  0  0
    5.5911   11.9959   25.3909 O   0  0  0  0  0  0  0  0  0  0  0  0
    5.5600   12.7660   23.2456 O   0  0  0  0  0  0  0  0  0  0  0  0
   12.9104   17.2362   22.0555 O   0  0  0  0  0  0  0  0  0  0  0  0
    9.2381   14.3719   21.1170 F   0  0  0  0  0  0  0  0  0  0  0  0
   12.0905   13.5307   24.5337 H   0  0  0  0  0  0  0  0  0  0  0  0
   13.4173   15.5448   24.0106 H   0  0  0  0  0  0  0  0  0  0  0  0
   10.7687   16.4436   20.7390 H   0  0  0  0  0  0  0  0  0  0  0  0
    9.0091    8.7532   23.9680 H   0  0  0  0  0  0  0  0  0  0  0  0
   10.6007    9.3072   23.4535 H   0  0  0  0  0  0  0  0  0  0  0  0
   10.8031   11.2453   21.8121 H   0  0  0  0  0  0  0  0  0  0  0  0
    9.3592   12.0314   21.1964 H   0  0  0  0  0  0  0  0  0  0  0  0
   10.5227   12.5453   25.3424 H   0  0  0  0  0  0  0  0  0  0  0  0
   11.4950   11.5494   24.2701 H   0  0  0  0  0  0  0  0  0  0  0  0
    7.0541   11.2282   21.9334 H   0  0  0  0  0  0  0  0  0  0  0  0
    6.9099    9.8901   23.0613 H   0  0  0  0  0  0  0  0  0  0  0  0
    7.5979   10.2059   25.5241 H   0  0  0  0  0  0  0  0  0  0  0  0
    8.2067   11.7601   26.0685 H   0  0  0  0  0  0  0  0  0  0  0  0
    8.3786   13.7233   24.4186 H   0  0  0  0  0  0  0  0  0  0  0  0
    7.9281   13.5040   22.7411 H   0  0  0  0  0  0  0  0  0  0  0  0
    8.9314    9.6223   21.6310 H   0  0  0  0  0  0  0  0  0  0  0  0
   10.0727   10.1372   25.7459 H   0  0  0  0  0  0  0  0  0  0  0  0
   13.1494   18.8862   20.8341 H   0  0  0  0  0  0  0  0  0  0  0  0
   11.4574   18.3782   21.1296 H   0  0  0  0  0  0  0  0  0  0  0  0
   12.5029   17.4239   20.0449 H   0  0  0  0  0  0  0  0  0  0  0  0
    4.6387   13.0427   23.4377 H   0  0  0  0  0  0  0  0  0  0  0  0
  1  2  2  0  0  0  0
  1  4  1  0  0  0  0
  2  5  1  0  0  0  0
  3  5  2  0  0  0  0
  3  6  1  0  0  0  0
  4  6  2  0  0  0  0
  4 16  1  0  0  0  0
  5 21  1  0  0  0  0
  6 22  1  0  0  0  0
  7 17  1  0  0  0  0
  7 19  2  0  0  0  0
  7 20  1  0  0  0  0
  8 14  1  0  0  0  0
  8 15  1  0  0  0  0
  9 14  1  0  0  0  0
  9 16  1  0  0  0  0
 10 15  1  0  0  0  0
 10 16  1  0  0  0  0
 11 14  1  0  0  0  0
 11 17  1  0  0  0  0
 12 15  1  0  0  0  0
 12 17  1  0  0  0  0
 13 16  1  0  0  0  0
 13 17  1  0  0  0  0
 18 21  1  0  0  0  0
  1 23  1  0  0  0  0
  2 24  1  0  0  0  0
  3 25  1  0  0  0  0
  8 26  1  0  0  0  0
  8 27  1  0  0  0  0
  9 28  1  0  0  0  0
  9 29  1  0  0  0  0
 10 30  1  0  0  0  0
 10 31  1  0  0  0  0
 11 32  1  0  0  0  0
 11 33  1  0  0  0  0
 12 34  1  0  0  0  0
 12 35  1  0  0  0  0
 13 36  1  0  0  0  0
 13 37  1  0  0  0  0
 14 38  1  0  0  0  0
 15 39  1  0  0  0  0
 18 40  1  0  0  0  0
 18 41  1  0  0  0  0
 18 42  1  0  0  0  0
 20 43  1  0  0  0  0
M  END
> <id>
EN300-05582

> <smiles>
COC=1C=CC(=C(F)C1)C2(CC3CC4CC(C3)(C2)C(=O)O)C4

> <MDLNUMBER>
MFCD03978336

> <IUPAC Name>
3-(2-fluoro-4-methoxyphenyl)adamantane-1-carboxylic acid

> <CAS>
554422-85-4

> <Purity>
95

> <URL>
https://www.enaminestore.com/catalog/EN300-05582

> <ROCS_ShapeQuery>
x0446_0A_x1080_0A_x0929_0A_x0812_0A_x0719_0A_x1140_0A_x0528_0A_x0310_0A

> <ROCS_TanimotoCombo>
0.422 

> <ROCS_ShapeTanimoto>
0.260 

> <ROCS_ColorTanimoto>
0.162 

> <ROCS_RefTversky>
0.234 

> <ROCS_RefColorTversky>
0.189 

> <ROCS_RefTverskyCombo>
0.423 

> <ROCS_FitTversky>
1.750 

> <ROCS_FitColorTversky>
0.532 

> <ROCS_FitTverskyCombo>
2.282 

> <ROCS_ColorScore>
-6.785

> <ROCS_Overlap>
2767.318

> <ROCS_Rank>
152                 

$$$$
untitled-dbase-150551_7
  -OEChem-02082415563D

 26 28  0     0  0  0  0  0  0999 V2000
   12.7283   15.4506   21.2171 C   0  0  0  0  0  0  0  0  0  0  0  0
   13.1083   14.9291   22.4537 C   0  0  0  0  0  0  0  0  0  0  0  0
   11.3760   15.5820   20.9014 C   0  0  0  0  0  0  0  0  0  0  0  0
   12.1361   14.5390   23.3746 C   0  0  0  0  0  0  0  0  0  0  0  0
   10.4037   15.1919   21.8223 C   0  0  0  0  0  0  0  0  0  0  0  0
   10.7837   14.6704   23.0590 C   0  0  0  0  0  0  0  0  0  0  0  0
    9.4032   12.9733   23.9171 C   0  0  0  0  0  0  0  0  0  0  0  0
    8.0656   12.6219   24.0004 C   0  0  0  0  0  0  0  0  0  0  0  0
    9.3747   10.8766   23.7850 C   0  0  0  0  0  0  0  0  0  0  0  0
    7.1506   10.2468   23.9203 C   0  0  0  0  0  0  0  0  0  0  0  0
    7.7402    9.0454   23.7967 C   0  0  0  0  0  0  0  0  0  0  0  0
   10.2223   11.8676   23.7813 N   0  0  0  0  0  0  0  0  0  0  0  0
    8.0756   11.2635   23.9125 N   0  0  0  0  0  0  0  0  0  0  0  0
    6.9005   13.3835   24.1419 N   0  3  0  0  0  0  0  0  0  0  0  0
    5.7752   12.8080   24.1936 O   0  5  0  0  0  0  0  0  0  0  0  0
    6.9784   14.6440   24.2170 O   0  0  0  0  0  0  0  0  0  0  0  0
    9.0864   15.3241   21.5016 O   0  0  0  0  0  0  0  0  0  0  0  0
    9.8437   14.2847   23.9663 O   0  0  0  0  0  0  0  0  0  0  0  0
    9.5051    9.1488   23.6639 S   0  0  0  0  0  0  0  0  0  0  0  0
   13.4856   15.7546   20.5000 H   0  0  0  0  0  0  0  0  0  0  0  0
   14.1611   14.8268   22.6994 H   0  0  0  0  0  0  0  0  0  0  0  0
   11.0866   15.9892   19.9363 H   0  0  0  0  0  0  0  0  0  0  0  0
   12.4390   14.1320   24.3355 H   0  0  0  0  0  0  0  0  0  0  0  0
    6.0938   10.4441   24.0159 H   0  0  0  0  0  0  0  0  0  0  0  0
    7.2236    8.0963   23.7756 H   0  0  0  0  0  0  0  0  0  0  0  0
    8.9941   15.6990   20.6116 H   0  0  0  0  0  0  0  0  0  0  0  0
  1  2  1  0  0  0  0
  1  3  2  0  0  0  0
  2  4  2  0  0  0  0
  3  5  1  0  0  0  0
  4  6  1  0  0  0  0
  5  6  2  0  0  0  0
  5 17  1  0  0  0  0
  6 18  1  0  0  0  0
  7  8  2  0  0  0  0
  7 12  1  0  0  0  0
  7 18  1  0  0  0  0
  8 13  1  0  0  0  0
  8 14  1  0  0  0  0
  9 12  2  0  0  0  0
  9 13  1  0  0  0  0
  9 19  1  0  0  0  0
 10 11  2  0  0  0  0
 10 13  1  0  0  0  0
 11 19  1  0  0  0  0
 14 15  1  0  0  0  0
 14 16  2  0  0  0  0
  1 20  1  0  0  0  0
  2 21  1  0  0  0  0
  3 22  1  0  0  0  0
  4 23  1  0  0  0  0
 10 24  1  0  0  0  0
 11 25  1  0  0  0  0
 17 26  1  0  0  0  0
M  CHG  2  14   1  15  -1
M  END
> <id>
EN300-110255

> <smiles>
OC=1C=CC=CC1OC=2N=C3SC=CN3C2[N+](=O)[O-]

> <MDLNUMBER>
MFCD13159439

> <IUPAC Name>
2-({5-nitroimidazo[2,1-b][1,3]thiazol-6-yl}oxy)phenol

> <CAS>
1178675-00-7

> <Purity>
95

> <URL>
https://www.enaminestore.com/catalog/EN300-110255

> <ROCS_ShapeQuery>
x0446_0A_x1080_0A_x0929_0A_x0812_0A_x0719_0A_x1140_0A_x0528_0A_x0310_0A

> <ROCS_TanimotoCombo>
0.422 

> <ROCS_ShapeTanimoto>
0.240 

> <ROCS_ColorTanimoto>
0.183 

> <ROCS_RefTversky>
0.217 

> <ROCS_RefColorTversky>
0.204 

> <ROCS_RefTverskyCombo>
0.421 

> <ROCS_FitTversky>
1.755 

> <ROCS_FitColorTversky>
0.638 

> <ROCS_FitTverskyCombo>
2.393 

> <ROCS_ColorScore>
-7.295

> <ROCS_Overlap>
2567.629

> <ROCS_Rank>
153                 

$$$$
untitled-dbase-352015_4
  -OEChem-02082415563D

 49 54  0     1  0  0  0  0  0999 V2000
    9.0097    8.3706   22.0188 C   0  0  0  0  0  0  0  0  0  0  0  0
   12.8978   16.1378   22.3683 C   0  0  0  0  0  0  0  0  0  0  0  0
    7.3169   12.7939   26.3074 C   0  0  0  0  0  0  0  0  0  0  0  0
   13.4641   15.1090   23.1132 C   0  0  0  0  0  0  0  0  0  0  0  0
    6.7929   11.4900   26.2950 C   0  0  0  0  0  0  0  0  0  0  0  0
   11.5736   16.0418   21.9446 C   0  0  0  0  0  0  0  0  0  0  0  0
    4.4545   14.8819   20.7304 C   0  0  0  0  0  0  0  0  0  0  0  0
    5.3643   13.0501   19.4444 C   0  0  0  0  0  0  0  0  0  0  0  0
    8.1355   13.2440   25.2692 C   0  0  0  0  0  0  0  0  0  0  0  0
   12.7043   13.9838   23.4359 C   0  0  0  0  0  0  0  0  0  0  0  0
    7.0783   10.6143   25.2449 C   0  0  0  0  0  0  0  0  0  0  0  0
    3.1987   14.6528   20.1684 C   0  0  0  0  0  0  0  0  0  0  0  0
    4.1084   12.8210   18.8823 C   0  0  0  0  0  0  0  0  0  0  0  0
    5.5374   14.0806   20.3684 C   0  0  0  0  0  0  0  0  0  0  0  0
   10.8122   14.9096   22.2698 C   0  0  0  0  0  0  0  0  0  0  0  0
    8.4141   12.3702   24.2313 C   0  0  0  0  0  0  0  0  0  0  0  0
   11.3682   13.8667   23.0222 C   0  0  0  0  0  0  0  0  0  0  0  0
    7.8908   11.0758   24.2242 C   0  0  0  0  0  0  0  0  0  0  0  0
    3.0256   13.6224   19.2443 C   0  0  0  0  0  0  0  0  0  0  0  0
    6.8690   14.3237   20.9646 C   0  0  0  0  0  0  0  0  0  0  0  0
    9.3955   14.7927   21.8173 C   0  0  0  0  0  0  0  0  0  0  0  0
    7.5707   15.6545   20.7866 C   0  0  0  0  0  0  0  0  0  0  0  0
    9.1333   11.2249   22.2718 C   0  0  0  0  0  0  0  0  0  0  0  0
    9.2518   12.5884   22.9954 C   0  0  2  0  0  0  0  0  0  0  0  0
    7.9457    9.0462   22.7592 C   0  0  0  0  0  0  0  0  0  0  0  0
    9.8525    7.8311   21.4313 N   0  0  0  0  0  0  0  0  0  0  0  0
    7.4331   13.3867   21.6602 N   0  0  0  0  0  0  0  0  0  0  0  0
    8.8906   15.7841   21.1410 N   0  0  0  0  0  0  0  0  0  0  0  0
   10.6454   12.7395   23.3621 N   0  0  0  0  0  0  0  0  0  0  0  0
    8.3182   10.4059   23.0693 N   0  0  0  0  0  0  0  0  0  0  0  0
    8.6912   13.6384   22.1381 N   0  0  0  0  0  0  0  0  0  0  0  0
    6.8975   16.5889   20.3687 O   0  0  0  0  0  0  0  0  0  0  0  0
    9.6634   10.9459   21.2054 O   0  0  0  0  0  0  0  0  0  0  0  0
    1.8196   13.4022   18.7047 F   0  0  0  0  0  0  0  0  0  0  0  0
   13.4868   17.0146   22.1161 H   0  0  0  0  0  0  0  0  0  0  0  0
    7.0807   13.4582   27.1342 H   0  0  0  0  0  0  0  0  0  0  0  0
   14.4958   15.1807   23.4444 H   0  0  0  0  0  0  0  0  0  0  0  0
    6.1572   11.1608   27.1129 H   0  0  0  0  0  0  0  0  0  0  0  0
   11.1587   16.8595   21.3618 H   0  0  0  0  0  0  0  0  0  0  0  0
    4.5782   15.6875   21.4495 H   0  0  0  0  0  0  0  0  0  0  0  0
    6.2011   12.4190   19.1555 H   0  0  0  0  0  0  0  0  0  0  0  0
    8.5376   14.2512   25.2809 H   0  0  0  0  0  0  0  0  0  0  0  0
   13.1664   13.1907   24.0205 H   0  0  0  0  0  0  0  0  0  0  0  0
    6.6684    9.6106   25.2449 H   0  0  0  0  0  0  0  0  0  0  0  0
    2.3555   15.2765   20.4502 H   0  0  0  0  0  0  0  0  0  0  0  0
    3.9735   12.0188   18.1625 H   0  0  0  0  0  0  0  0  0  0  0  0
    7.0208    9.0814   22.1763 H   0  0  0  0  0  0  0  0  0  0  0  0
    7.7383    8.5365   23.7044 H   0  0  0  0  0  0  0  0  0  0  0  0
   11.0958   12.0158   23.9113 H   0  0  0  0  0  0  0  0  0  0  0  0
  1 25  1  0  0  0  0
  1 26  3  0  0  0  0
  2  4  1  0  0  0  0
  2  6  2  0  0  0  0
  3  5  1  0  0  0  0
  3  9  2  0  0  0  0
  4 10  2  0  0  0  0
  5 11  2  0  0  0  0
  6 15  1  0  0  0  0
  7 12  2  0  0  0  0
  7 14  1  0  0  0  0
  8 13  1  0  0  0  0
  8 14  2  0  0  0  0
  9 16  1  0  0  0  0
 10 17  1  0  0  0  0
 11 18  1  0  0  0  0
 12 19  1  0  0  0  0
 13 19  2  0  0  0  0
 14 20  1  0  0  0  0
 15 17  2  0  0  0  0
 15 21  1  0  0  0  0
 16 18  2  0  0  0  0
 16 24  1  0  0  0  0
 17 29  1  0  0  0  0
 18 30  1  0  0  0  0
 19 34  1  0  0  0  0
 20 22  1  0  0  0  0
 20 27  2  0  0  0  0
 21 28  2  0  0  0  0
 21 31  1  0  0  0  0
 22 28  1  0  0  0  0
 22 32  2  0  0  0  0
 23 24  1  0  0  0  0
 23 30  1  0  0  0  0
 23 33  2  0  0  0  0
 24 29  1  0  0  0  0
 24 31  1  0  0  0  0
 25 30  1  0  0  0  0
 27 31  1  0  0  0  0
  2 35  1  0  0  0  0
  3 36  1  0  0  0  0
  4 37  1  0  0  0  0
  5 38  1  0  0  0  0
  6 39  1  0  0  0  0
  7 40  1  0  0  0  0
  8 41  1  0  0  0  0
  9 42  1  0  0  0  0
 10 43  1  0  0  0  0
 11 44  1  0  0  0  0
 12 45  1  0  0  0  0
 13 46  1  0  0  0  0
 25 47  1  0  0  0  0
 25 48  1  0  0  0  0
 29 49  1  0  0  0  0
M  END
> <id>
EN300-6717071

> <smiles>
FC=1C=CC(=CC1)C2=NN3C(=NC2=O)C=4C=CC=CC4NC53C(=O)N(CC#N)C=6C=CC=CC65

> <IUPAC Name>
2-[3-(4-fluorophenyl)-2,2'-dioxo-1',2,2',7-tetrahydrospiro[[1,2,4]triazino[2,3-c]quinazoline-6,3'-indol]-1'-yl]acetonitrile

> <CAS>
2177169-24-1

> <URL>
https://www.enaminestore.com/catalog/EN300-6717071

> <ROCS_ShapeQuery>
x0446_0A_x1080_0A_x0929_0A_x0812_0A_x0719_0A_x1140_0A_x0528_0A_x0310_0A

> <ROCS_TanimotoCombo>
0.422 

> <ROCS_ShapeTanimoto>
0.289 

> <ROCS_ColorTanimoto>
0.133 

> <ROCS_RefTversky>
0.266 

> <ROCS_RefColorTversky>
0.167 

> <ROCS_RefTverskyCombo>
0.432 

> <ROCS_FitTversky>
1.450 

> <ROCS_FitColorTversky>
0.395 

> <ROCS_FitTverskyCombo>
1.845 

> <ROCS_ColorScore>
-6.010

> <ROCS_Overlap>
3146.336

> <ROCS_Rank>
154                 

$$$$
untitled-dbase-253605_9
  -OEChem-02082415563D

 43 46  0     0  0  0  0  0  0999 V2000
    7.8158    6.2044   23.5523 C   0  0  0  0  0  0  0  0  0  0  0  0
    5.3709   12.0316   24.3703 C   0  0  0  0  0  0  0  0  0  0  0  0
    5.7891   13.3595   24.4335 C   0  0  0  0  0  0  0  0  0  0  0  0
    7.8028    6.9920   22.4012 C   0  0  0  0  0  0  0  0  0  0  0  0
    8.1010    6.7821   24.7895 C   0  0  0  0  0  0  0  0  0  0  0  0
    6.3030   11.0137   24.1646 C   0  0  0  0  0  0  0  0  0  0  0  0
    7.1410   13.6746   24.2913 C   0  0  0  0  0  0  0  0  0  0  0  0
    8.0749    8.3574   22.4873 C   0  0  0  0  0  0  0  0  0  0  0  0
    8.3731    8.1474   24.8756 C   0  0  0  0  0  0  0  0  0  0  0  0
   13.1577   14.7248   22.3056 C   0  0  0  0  0  0  0  0  0  0  0  0
   12.2169   14.3598   23.2685 C   0  0  0  0  0  0  0  0  0  0  0  0
   11.3792   15.4725   20.8513 C   0  0  0  0  0  0  0  0  0  0  0  0
    7.6664   11.3205   24.0203 C   0  0  0  0  0  0  0  0  0  0  0  0
    8.0874   12.6572   24.0839 C   0  0  0  0  0  0  0  0  0  0  0  0
    8.3601    8.9351   23.7245 C   0  0  0  0  0  0  0  0  0  0  0  0
   12.7389   15.2812   21.0970 C   0  0  0  0  0  0  0  0  0  0  0  0
   10.8572   14.5510   23.0228 C   0  0  0  0  0  0  0  0  0  0  0  0
   10.4384   15.1074   21.8142 C   0  0  0  0  0  0  0  0  0  0  0  0
    8.6422   10.3517   23.8134 C   0  0  0  0  0  0  0  0  0  0  0  0
    9.4471   12.9074   23.9350 C   0  0  0  0  0  0  0  0  0  0  0  0
   13.7201   15.6638   20.0940 C   0  0  0  0  0  0  0  0  0  0  0  0
    8.5570   16.5555   21.9529 C   0  0  0  0  0  0  0  0  0  0  0  0
    9.9545   10.6393   23.6737 N   0  0  0  0  0  0  0  0  0  0  0  0
   10.3624   11.9344   23.7353 N   0  0  0  0  0  0  0  0  0  0  0  0
   14.9358   15.5222   20.2523 O   0  0  0  0  0  0  0  0  0  0  0  0
    9.9357   14.1855   23.9843 O   0  0  0  0  0  0  0  0  0  0  0  0
    9.1136   15.3015   21.5632 O   0  0  0  0  0  0  0  0  0  0  0  0
    7.6022    5.1416   23.4852 H   0  0  0  0  0  0  0  0  0  0  0  0
    4.3181   11.7887   24.4813 H   0  0  0  0  0  0  0  0  0  0  0  0
    5.0619   14.1502   24.5938 H   0  0  0  0  0  0  0  0  0  0  0  0
    7.5791    6.5427   21.4381 H   0  0  0  0  0  0  0  0  0  0  0  0
    8.1100    6.1696   25.6864 H   0  0  0  0  0  0  0  0  0  0  0  0
    5.9406    9.9896   24.1208 H   0  0  0  0  0  0  0  0  0  0  0  0
    7.4395   14.7188   24.3449 H   0  0  0  0  0  0  0  0  0  0  0  0
    8.0607    8.9580   21.5808 H   0  0  0  0  0  0  0  0  0  0  0  0
    8.5931    8.5838   25.8470 H   0  0  0  0  0  0  0  0  0  0  0  0
   14.2146   14.5714   22.5079 H   0  0  0  0  0  0  0  0  0  0  0  0
   12.5495   13.9266   24.2078 H   0  0  0  0  0  0  0  0  0  0  0  0
   11.0495   15.9083   19.9109 H   0  0  0  0  0  0  0  0  0  0  0  0
   13.3385   16.1031   19.1466 H   0  0  0  0  0  0  0  0  0  0  0  0
    7.4952   16.5793   21.6961 H   0  0  0  0  0  0  0  0  0  0  0  0
    9.0848   17.3642   21.4412 H   0  0  0  0  0  0  0  0  0  0  0  0
    8.6711   16.6748   23.0329 H   0  0  0  0  0  0  0  0  0  0  0  0
  1  4  1  0  0  0  0
  1  5  2  0  0  0  0
  2  3  1  0  0  0  0
  2  6  2  0  0  0  0
  3  7  2  0  0  0  0
  4  8  2  0  0  0  0
  5  9  1  0  0  0  0
  6 13  1  0  0  0  0
  7 14  1  0  0  0  0
  8 15  1  0  0  0  0
  9 15  2  0  0  0  0
 10 11  2  0  0  0  0
 10 16  1  0  0  0  0
 11 17  1  0  0  0  0
 12 16  2  0  0  0  0
 12 18  1  0  0  0  0
 13 14  1  0  0  0  0
 13 19  2  0  0  0  0
 14 20  2  0  0  0  0
 15 19  1  0  0  0  0
 16 21  1  0  0  0  0
 17 18  2  0  0  0  0
 17 26  1  0  0  0  0
 18 27  1  0  0  0  0
 19 23  1  0  0  0  0
 20 24  1  0  0  0  0
 20 26  1  0  0  0  0
 21 25  2  0  0  0  0
 22 27  1  0  0  0  0
 23 24  2  0  0  0  0
  1 28  1  0  0  0  0
  2 29  1  0  0  0  0
  3 30  1  0  0  0  0
  4 31  1  0  0  0  0
  5 32  1  0  0  0  0
  6 33  1  0  0  0  0
  7 34  1  0  0  0  0
  8 35  1  0  0  0  0
  9 36  1  0  0  0  0
 10 37  1  0  0  0  0
 11 38  1  0  0  0  0
 12 39  1  0  0  0  0
 21 40  1  0  0  0  0
 22 41  1  0  0  0  0
 22 42  1  0  0  0  0
 22 43  1  0  0  0  0
M  END
> <id>
EN300-18139544

> <smiles>
COC=1C=C(C=O)C=CC1OC=2N=NC(C=3C=CC=CC3)=C4C=CC=CC24

> <MDLNUMBER>
MFCD02328272

> <IUPAC Name>
3-methoxy-4-[(4-phenylphthalazin-1-yl)oxy]benzaldehyde

> <CAS>
314261-48-8

> <URL>
https://www.enaminestore.com/catalog/EN300-18139544

> <ROCS_ShapeQuery>
x0446_0A_x1080_0A_x0929_0A_x0812_0A_x0719_0A_x1140_0A_x0528_0A_x0310_0A

> <ROCS_TanimotoCombo>
0.422 

> <ROCS_ShapeTanimoto>
0.244 

> <ROCS_ColorTanimoto>
0.179 

> <ROCS_RefTversky>
0.226 

> <ROCS_RefColorTversky>
0.197 

> <ROCS_RefTverskyCombo>
0.423 

> <ROCS_FitTversky>
1.469 

> <ROCS_FitColorTversky>
0.658 

> <ROCS_FitTverskyCombo>
2.127 

> <ROCS_ColorScore>
-7.053

> <ROCS_Overlap>
2672.428

> <ROCS_Rank>
155                 

$$$$
untitled-dbase-479732_6
  -OEChem-02082415563D

 34 36  0     1  0  0  0  0  0999 V2000
    9.0260    9.6126   23.2703 C   0  0  0  0  0  0  0  0  0  0  0  0
    9.9530   11.8956   22.8029 C   0  0  0  0  0  0  0  0  0  0  0  0
    7.5417   11.3899   22.3065 C   0  0  0  0  0  0  0  0  0  0  0  0
    9.6248   11.1359   25.1715 C   0  0  0  0  0  0  0  0  0  0  0  0
    7.2136   10.6301   24.6753 C   0  0  0  0  0  0  0  0  0  0  0  0
    8.1385   12.9204   24.2099 C   0  0  0  0  0  0  0  0  0  0  0  0
   10.0147   10.6868   23.7524 C   0  0  1  0  0  0  0  0  0  0  0  0
    7.5969   10.1797   23.2547 C   0  0  2  0  0  0  0  0  0  0  0  0
    8.5247   12.4888   22.7741 C   0  0  0  0  0  0  0  0  0  0  0  0
    8.1959   11.7112   25.1642 C   0  0  0  0  0  0  0  0  0  0  0  0
    8.4679   13.6897   21.8258 C   0  0  0  0  0  0  0  0  0  0  0  0
   11.0031   13.7798   21.0411 N   0  0  0  0  0  0  0  0  0  0  0  0
    9.6642   15.9579   21.3243 O   0  0  0  0  0  0  0  0  0  0  0  0
   10.3450   14.6442   23.3728 O   0  0  0  0  0  0  0  0  0  0  0  0
    9.9069   14.6844   21.9856 S   0  0  0  0  0  0  0  0  0  0  0  0
    7.7475   12.2267   26.8159 Cl  0  0  0  0  0  0  0  0  0  0  0  0
    9.3043    9.2713   22.2656 H   0  0  0  0  0  0  0  0  0  0  0  0
    9.0741    8.7367   23.9289 H   0  0  0  0  0  0  0  0  0  0  0  0
   10.6738   12.6567   23.1284 H   0  0  0  0  0  0  0  0  0  0  0  0
   10.2559   11.5866   21.7939 H   0  0  0  0  0  0  0  0  0  0  0  0
    7.7886   11.0692   21.2860 H   0  0  0  0  0  0  0  0  0  0  0  0
    6.5182   11.7852   22.2731 H   0  0  0  0  0  0  0  0  0  0  0  0
    9.6927   10.2821   25.8579 H   0  0  0  0  0  0  0  0  0  0  0  0
   10.3410   11.8873   25.5287 H   0  0  0  0  0  0  0  0  0  0  0  0
    6.1858   11.0157   24.6736 H   0  0  0  0  0  0  0  0  0  0  0  0
    7.2262    9.7646   25.3503 H   0  0  0  0  0  0  0  0  0  0  0  0
    8.8195   13.7095   24.5567 H   0  0  0  0  0  0  0  0  0  0  0  0
    7.1296   13.3551   24.2089 H   0  0  0  0  0  0  0  0  0  0  0  0
   11.0304   10.2760   23.7618 H   0  0  0  0  0  0  0  0  0  0  0  0
    6.8977    9.4091   22.9111 H   0  0  0  0  0  0  0  0  0  0  0  0
    7.6057   14.3088   22.0599 H   0  0  0  0  0  0  0  0  0  0  0  0
    8.4095   13.3486   20.7957 H   0  0  0  0  0  0  0  0  0  0  0  0
   11.2902   14.1730   20.1363 H   0  0  0  0  0  0  0  0  0  0  0  0
   11.7537   13.2782   21.5315 H   0  0  0  0  0  0  0  0  0  0  0  0
  1  7  1  0  0  0  0
  1  8  1  0  0  0  0
  2  7  1  0  0  0  0
  2  9  1  0  0  0  0
  3  8  1  0  0  0  0
  3  9  1  0  0  0  0
  4  7  1  0  0  0  0
  4 10  1  0  0  0  0
  5  8  1  0  0  0  0
  5 10  1  0  0  0  0
  6  9  1  0  0  0  0
  6 10  1  0  0  0  0
  9 11  1  0  0  0  0
 10 16  1  0  0  0  0
 11 15  1  0  0  0  0
 12 15  1  0  0  0  0
 13 15  2  0  0  0  0
 14 15  2  0  0  0  0
  1 17  1  0  0  0  0
  1 18  1  0  0  0  0
  2 19  1  0  0  0  0
  2 20  1  0  0  0  0
  3 21  1  0  0  0  0
  3 22  1  0  0  0  0
  4 23  1  0  0  0  0
  4 24  1  0  0  0  0
  5 25  1  0  0  0  0
  5 26  1  0  0  0  0
  6 27  1  0  0  0  0
  6 28  1  0  0  0  0
  7 29  1  0  0  0  0
  8 30  1  0  0  0  0
 11 31  1  0  0  0  0
 11 32  1  0  0  0  0
 12 33  1  0  0  0  0
 12 34  1  0  0  0  0
M  END
> <id>
EN300-27734480

> <smiles>
NS(=O)(=O)CC1(CC2CC3CC(Cl)(C2)C1)C3

> <IUPAC Name>
(3-chloroadamantan-1-yl)methanesulfonamide

> <CAS>
2580240-59-9

> <URL>
https://www.enaminestore.com/catalog/EN300-27734480

> <ROCS_ShapeQuery>
x0446_0A_x1080_0A_x0929_0A_x0812_0A_x0719_0A_x1140_0A_x0528_0A_x0310_0A

> <ROCS_TanimotoCombo>
0.422 

> <ROCS_ShapeTanimoto>
0.208 

> <ROCS_ColorTanimoto>
0.214 

> <ROCS_RefTversky>
0.191 

> <ROCS_RefColorTversky>
0.230 

> <ROCS_RefTverskyCombo>
0.421 

> <ROCS_FitTversky>
1.775 

> <ROCS_FitColorTversky>
0.757 

> <ROCS_FitTverskyCombo>
2.532 

> <ROCS_ColorScore>
-8.219

> <ROCS_Overlap>
2253.058

> <ROCS_Rank>
156                 

$$$$
untitled-dbase-559774_0
  -OEChem-02082415563D

 24 26  0     0  0  0  0  0  0999 V2000
    5.9408   13.2714   25.3373 C   0  0  0  0  0  0  0  0  0  0  0  0
    5.5349   11.9753   25.6646 C   0  0  0  0  0  0  0  0  0  0  0  0
    7.1086   13.4858   24.5967 C   0  0  0  0  0  0  0  0  0  0  0  0
    6.2917   10.8815   25.2554 C   0  0  0  0  0  0  0  0  0  0  0  0
    7.8920   12.4077   24.1699 C   0  0  0  0  0  0  0  0  0  0  0  0
    7.4496   11.1094   24.5202 C   0  0  0  0  0  0  0  0  0  0  0  0
    9.6847   13.8660   22.9673 C   0  0  0  0  0  0  0  0  0  0  0  0
    9.2057   11.3693   22.1651 C   0  0  0  0  0  0  0  0  0  0  0  0
   10.3209   11.4709   23.9497 C   0  0  0  0  0  0  0  0  0  0  0  0
    9.4141   10.3530   23.3365 C   0  0  0  0  0  0  0  0  0  0  0  0
    9.2419   12.4426   23.3250 C   0  0  0  0  0  0  0  0  0  0  0  0
    9.3582   14.4693   21.9560 O   0  0  0  0  0  0  0  0  0  0  0  0
    8.2114   10.0206   24.1071 O   0  0  0  0  0  0  0  0  0  0  0  0
   10.4961   14.3707   23.9287 O   0  0  0  0  0  0  0  0  0  0  0  0
    5.3448   14.1206   25.6602 H   0  0  0  0  0  0  0  0  0  0  0  0
    4.6263   11.8221   26.2397 H   0  0  0  0  0  0  0  0  0  0  0  0
    7.3991   14.5049   24.3568 H   0  0  0  0  0  0  0  0  0  0  0  0
    5.9790    9.8735   25.5081 H   0  0  0  0  0  0  0  0  0  0  0  0
   10.0294   11.4260   21.4435 H   0  0  0  0  0  0  0  0  0  0  0  0
    8.2630   11.2788   21.6173 H   0  0  0  0  0  0  0  0  0  0  0  0
   10.4020   11.4727   25.0408 H   0  0  0  0  0  0  0  0  0  0  0  0
   11.3271   11.5442   23.5205 H   0  0  0  0  0  0  0  0  0  0  0  0
    9.9440    9.4376   23.0575 H   0  0  0  0  0  0  0  0  0  0  0  0
   10.7923   15.2816   23.7171 H   0  0  0  0  0  0  0  0  0  0  0  0
  1  2  1  0  0  0  0
  1  3  2  0  0  0  0
  2  4  2  0  0  0  0
  3  5  1  0  0  0  0
  4  6  1  0  0  0  0
  5  6  2  0  0  0  0
  5 11  1  0  0  0  0
  6 13  1  0  0  0  0
  7 11  1  1  0  0  0
  7 12  2  0  0  0  0
  7 14  1  0  0  0  0
  8 10  1  6  0  0  0
  8 11  1  0  0  0  0
  9 10  1  0  0  0  0
  9 11  1  0  0  0  0
 10 13  1  0  0  0  0
  1 15  1  0  0  0  0
  2 16  1  0  0  0  0
  3 17  1  0  0  0  0
  4 18  1  0  0  0  0
  8 19  1  0  0  0  0
  8 20  1  0  0  0  0
  9 21  1  0  0  0  0
  9 22  1  0  0  0  0
 10 23  1  0  0  0  0
 14 24  1  0  0  0  0
M  END
> <id>
EN300-37375459

> <smiles>
OC(=O)[C@]1(C[C@H]2C1)C=3C=CC=CC3O2

> <IUPAC Name>
(1r)-8-oxatricyclo[7.1.1.0,2,7]undeca-2,4,6-triene-1-carboxylic acid

> <CAS>
2680543-50-2

> <URL>
https://www.enaminestore.com/catalog/EN300-37375459

> <ROCS_ShapeQuery>
x0446_0A_x1080_0A_x0929_0A_x0812_0A_x0719_0A_x1140_0A_x0528_0A_x0310_0A

> <ROCS_TanimotoCombo>
0.422 

> <ROCS_ShapeTanimoto>
0.213 

> <ROCS_ColorTanimoto>
0.209 

> <ROCS_RefTversky>
0.194 

> <ROCS_RefColorTversky>
0.233 

> <ROCS_RefTverskyCombo>
0.426 

> <ROCS_FitTversky>
1.863 

> <ROCS_FitColorTversky>
0.674 

> <ROCS_FitTverskyCombo>
2.538 

> <ROCS_ColorScore>
-8.345

> <ROCS_Overlap>
2287.703

> <ROCS_Rank>
157                 

$$$$
untitled-dbase-14913_3
  -OEChem-02082415563D

 43 46  0     1  0  0  0  0  0999 V2000
    9.5895   14.2375   22.3001 C   0  0  0  0  0  0  0  0  0  0  0  0
   11.1950   16.7152   21.2634 C   0  0  0  0  0  0  0  0  0  0  0  0
   13.2887   14.5930   22.2398 C   0  0  0  0  0  0  0  0  0  0  0  0
   12.8238   15.8566   22.9597 C   0  0  0  0  0  0  0  0  0  0  0  0
    7.8282   11.2885   24.9209 C   0  0  0  0  0  0  0  0  0  0  0  0
    8.1935   10.1588   22.7114 C   0  0  0  0  0  0  0  0  0  0  0  0
   10.1067   10.4366   24.3089 C   0  0  0  0  0  0  0  0  0  0  0  0
    7.7578   12.6267   22.8010 C   0  0  0  0  0  0  0  0  0  0  0  0
    9.6743   12.9048   24.4013 C   0  0  0  0  0  0  0  0  0  0  0  0
   10.0396   11.7746   22.1881 C   0  0  0  0  0  0  0  0  0  0  0  0
   12.0658   13.6898   22.2941 C   0  0  0  0  0  0  0  0  0  0  0  0
   11.3585   15.9751   22.5568 C   0  0  2  0  0  0  0  0  0  0  0  0
    7.4154   11.2691   23.4390 C   0  0  0  0  0  0  0  0  0  0  0  0
    9.3394   11.5483   25.0457 C   0  0  0  0  0  0  0  0  0  0  0  0
    9.7069   10.4129   22.8232 C   0  0  0  0  0  0  0  0  0  0  0  0
    9.2715   12.8971   22.9131 C   0  0  0  0  0  0  0  0  0  0  0  0
   10.9263   14.6032   22.3241 N   0  0  0  0  0  0  0  0  0  0  0  0
    8.6926   14.9273   21.8121 O   0  0  0  0  0  0  0  0  0  0  0  0
   10.1380   16.8629   20.6680 O   0  0  0  0  0  0  0  0  0  0  0  0
   12.3860   17.2014   20.8361 O   0  0  0  0  0  0  0  0  0  0  0  0
   13.5474   14.8202   21.1992 H   0  0  0  0  0  0  0  0  0  0  0  0
   14.1619   14.1419   22.7197 H   0  0  0  0  0  0  0  0  0  0  0  0
   12.9039   15.7140   24.0439 H   0  0  0  0  0  0  0  0  0  0  0  0
   13.4272   16.7245   22.6765 H   0  0  0  0  0  0  0  0  0  0  0  0
    7.2692   12.0668   25.4551 H   0  0  0  0  0  0  0  0  0  0  0  0
    7.5731   10.3318   25.3927 H   0  0  0  0  0  0  0  0  0  0  0  0
    7.9449    9.1823   23.1447 H   0  0  0  0  0  0  0  0  0  0  0  0
    7.8968   10.1238   21.6560 H   0  0  0  0  0  0  0  0  0  0  0  0
   11.1872   10.6012   24.4034 H   0  0  0  0  0  0  0  0  0  0  0  0
    9.8917    9.4647   24.7699 H   0  0  0  0  0  0  0  0  0  0  0  0
    7.4455   12.6353   21.7484 H   0  0  0  0  0  0  0  0  0  0  0  0
    7.1886   13.4247   23.2960 H   0  0  0  0  0  0  0  0  0  0  0  0
    9.1525   13.7098   24.9354 H   0  0  0  0  0  0  0  0  0  0  0  0
   10.7471   13.1138   24.5049 H   0  0  0  0  0  0  0  0  0  0  0  0
   11.1213   11.9561   22.2396 H   0  0  0  0  0  0  0  0  0  0  0  0
    9.7810   11.7617   21.1211 H   0  0  0  0  0  0  0  0  0  0  0  0
   12.0023   13.0144   21.4366 H   0  0  0  0  0  0  0  0  0  0  0  0
   12.0486   13.0991   23.2165 H   0  0  0  0  0  0  0  0  0  0  0  0
   10.7400   16.4577   23.3195 H   0  0  0  0  0  0  0  0  0  0  0  0
    6.3391   11.0820   23.3567 H   0  0  0  0  0  0  0  0  0  0  0  0
    9.6275   11.5591   26.1027 H   0  0  0  0  0  0  0  0  0  0  0  0
   10.2552    9.6188   22.3046 H   0  0  0  0  0  0  0  0  0  0  0  0
   12.3003   17.6882   19.9888 H   0  0  0  0  0  0  0  0  0  0  0  0
  1 16  1  0  0  0  0
  1 17  1  0  0  0  0
  1 18  2  0  0  0  0
  2 12  1  6  0  0  0
  2 19  2  0  0  0  0
  2 20  1  0  0  0  0
  3  4  1  0  0  0  0
  3 11  1  0  0  0  0
  4 12  1  0  0  0  0
  5 13  1  0  0  0  0
  5 14  1  0  0  0  0
  6 13  1  0  0  0  0
  6 15  1  0  0  0  0
  7 14  1  0  0  0  0
  7 15  1  0  0  0  0
  8 13  1  0  0  0  0
  8 16  1  0  0  0  0
  9 14  1  0  0  0  0
  9 16  1  0  0  0  0
 10 15  1  0  0  0  0
 10 16  1  0  0  0  0
 11 17  1  0  0  0  0
 12 17  1  0  0  0  0
  3 21  1  0  0  0  0
  3 22  1  0  0  0  0
  4 23  1  0  0  0  0
  4 24  1  0  0  0  0
  5 25  1  0  0  0  0
  5 26  1  0  0  0  0
  6 27  1  0  0  0  0
  6 28  1  0  0  0  0
  7 29  1  0  0  0  0
  7 30  1  0  0  0  0
  8 31  1  0  0  0  0
  8 32  1  0  0  0  0
  9 33  1  0  0  0  0
  9 34  1  0  0  0  0
 10 35  1  0  0  0  0
 10 36  1  0  0  0  0
 11 37  1  0  0  0  0
 11 38  1  0  0  0  0
 12 39  1  0  0  0  0
 13 40  1  0  0  0  0
 14 41  1  0  0  0  0
 15 42  1  0  0  0  0
 20 43  1  0  0  0  0
M  END
> <id>
EN300-87630

> <smiles>
OC(=O)[C@@H]1CCCN1C(=O)C2(CC3CC4CC(C3)C2)C4

> <IUPAC Name>
(2S)-1-(adamantane-1-carbonyl)pyrrolidine-2-carboxylic acid

> <CAS>
35084-48-1

> <URL>
https://www.enaminestore.com/catalog/EN300-87630

> <ROCS_ShapeQuery>
x0446_0A_x1080_0A_x0929_0A_x0812_0A_x0719_0A_x1140_0A_x0528_0A_x0310_0A

> <ROCS_TanimotoCombo>
0.422 

> <ROCS_ShapeTanimoto>
0.239 

> <ROCS_ColorTanimoto>
0.183 

> <ROCS_RefTversky>
0.218 

> <ROCS_RefColorTversky>
0.209 

> <ROCS_RefTverskyCombo>
0.427 

> <ROCS_FitTversky>
1.724 

> <ROCS_FitColorTversky>
0.589 

> <ROCS_FitTverskyCombo>
2.313 

> <ROCS_ColorScore>
-7.522

> <ROCS_Overlap>
2568.694

> <ROCS_Rank>
158                 

$$$$
untitled-dbase-517528_0
  -OEChem-02082415563D

 24 26  0     0  0  0  0  0  0999 V2000
    5.9410   13.2712   25.3377 C   0  0  0  0  0  0  0  0  0  0  0  0
    5.5354   11.9751   25.6655 C   0  0  0  0  0  0  0  0  0  0  0  0
    7.1085   13.4857   24.5965 C   0  0  0  0  0  0  0  0  0  0  0  0
    6.2922   10.8814   25.2559 C   0  0  0  0  0  0  0  0  0  0  0  0
    7.8919   12.4078   24.1695 C   0  0  0  0  0  0  0  0  0  0  0  0
    7.4497   11.1094   24.5201 C   0  0  0  0  0  0  0  0  0  0  0  0
    9.6846   13.8661   22.9671 C   0  0  0  0  0  0  0  0  0  0  0  0
   10.3208   11.4715   23.9505 C   0  0  0  0  0  0  0  0  0  0  0  0
    9.2067   11.3691   22.1651 C   0  0  0  0  0  0  0  0  0  0  0  0
    9.4147   10.3531   23.3369 C   0  0  0  0  0  0  0  0  0  0  0  0
    9.2418   12.4427   23.3249 C   0  0  0  0  0  0  0  0  0  0  0  0
    9.3581   14.4692   21.9557 O   0  0  0  0  0  0  0  0  0  0  0  0
    8.2115   10.0206   24.1068 O   0  0  0  0  0  0  0  0  0  0  0  0
   10.4957   14.3710   23.9286 O   0  0  0  0  0  0  0  0  0  0  0  0
    5.3450   14.1203   25.6611 H   0  0  0  0  0  0  0  0  0  0  0  0
    4.6273   11.8220   26.2414 H   0  0  0  0  0  0  0  0  0  0  0  0
    7.3988   14.5049   24.3566 H   0  0  0  0  0  0  0  0  0  0  0  0
    5.9798    9.8733   25.5087 H   0  0  0  0  0  0  0  0  0  0  0  0
   10.4013   11.4742   25.0415 H   0  0  0  0  0  0  0  0  0  0  0  0
   11.3273   11.5450   23.5218 H   0  0  0  0  0  0  0  0  0  0  0  0
   10.0309   11.4259   21.4442 H   0  0  0  0  0  0  0  0  0  0  0  0
    8.2644   11.2775   21.6169 H   0  0  0  0  0  0  0  0  0  0  0  0
    9.9451    9.4378   23.0585 H   0  0  0  0  0  0  0  0  0  0  0  0
   10.7918   15.2819   23.7169 H   0  0  0  0  0  0  0  0  0  0  0  0
  1  2  1  0  0  0  0
  1  3  2  0  0  0  0
  2  4  2  0  0  0  0
  3  5  1  0  0  0  0
  4  6  1  0  0  0  0
  5  6  2  0  0  0  0
  5 11  1  0  0  0  0
  6 13  1  0  0  0  0
  7 11  1  0  0  0  0
  7 12  2  0  0  0  0
  7 14  1  0  0  0  0
  8 10  1  0  0  0  0
  8 11  1  0  0  0  0
  9 10  1  0  0  0  0
  9 11  1  0  0  0  0
 10 13  1  0  0  0  0
  1 15  1  0  0  0  0
  2 16  1  0  0  0  0
  3 17  1  0  0  0  0
  4 18  1  0  0  0  0
  8 19  1  0  0  0  0
  8 20  1  0  0  0  0
  9 21  1  0  0  0  0
  9 22  1  0  0  0  0
 10 23  1  0  0  0  0
 14 24  1  0  0  0  0
M  END
> <id>
EN300-28227250

> <smiles>
OC(=O)C1(CC2C1)C=3C=CC=CC3O2

> <MDLNUMBER>
MFCD34186604

> <IUPAC Name>
8-oxatricyclo[7.1.1.0,2,7]undeca-2,4,6-triene-1-carboxylic acid

> <CAS>
2680543-50-2

> <Purity>
95

> <URL>
https://www.enaminestore.com/catalog/EN300-28227250

> <ROCS_ShapeQuery>
x0446_0A_x1080_0A_x0929_0A_x0812_0A_x0719_0A_x1140_0A_x0528_0A_x0310_0A

> <ROCS_TanimotoCombo>
0.422 

> <ROCS_ShapeTanimoto>
0.213 

> <ROCS_ColorTanimoto>
0.209 

> <ROCS_RefTversky>
0.194 

> <ROCS_RefColorTversky>
0.233 

> <ROCS_RefTverskyCombo>
0.426 

> <ROCS_FitTversky>
1.863 

> <ROCS_FitColorTversky>
0.674 

> <ROCS_FitTverskyCombo>
2.538 

> <ROCS_ColorScore>
-8.345

> <ROCS_Overlap>
2287.668

> <ROCS_Rank>
159                 

$$$$
untitled-dbase-541507_0
  -OEChem-02082415563D

 39 41  0     0  0  0  0  0  0999 V2000
    9.0107   15.4577   23.8832 C   0  0  0  0  0  0  0  0  0  0  0  0
    8.4604   14.4905   24.6392 C   0  0  0  0  0  0  0  0  0  0  0  0
    9.7107   15.2462   22.5938 C   0  0  0  0  0  0  0  0  0  0  0  0
    9.3712   11.0293   22.2156 C   0  0  0  0  0  0  0  0  0  0  0  0
    9.3709   10.2613   24.6035 C   0  0  0  0  0  0  0  0  0  0  0  0
    7.2011   10.5526   23.3801 C   0  0  0  0  0  0  0  0  0  0  0  0
   10.0047   12.6225   24.0459 C   0  0  0  0  0  0  0  0  0  0  0  0
    7.8312   12.9142   22.8204 C   0  0  0  0  0  0  0  0  0  0  0  0
    7.8315   12.1462   25.2118 C   0  0  0  0  0  0  0  0  0  0  0  0
   10.0797   11.1597   23.5750 C   0  0  0  0  0  0  0  0  0  0  0  0
    7.8977   11.4525   22.3445 C   0  0  0  0  0  0  0  0  0  0  0  0
    7.8974   10.6809   24.7462 C   0  0  0  0  0  0  0  0  0  0  0  0
    8.5324   13.0583   24.1858 C   0  0  0  0  0  0  0  0  0  0  0  0
    7.7326   14.6829   25.9403 C   0  0  0  0  0  0  0  0  0  0  0  0
   11.8793   14.8591   21.7408 C   0  0  0  0  0  0  0  0  0  0  0  0
    9.1958   15.2533   21.4883 O   0  0  0  0  0  0  0  0  0  0  0  0
   11.0301   15.0625   22.8753 O   0  0  0  0  0  0  0  0  0  0  0  0
    8.9383   16.4932   24.2090 H   0  0  0  0  0  0  0  0  0  0  0  0
    9.8761   11.6539   21.4685 H   0  0  0  0  0  0  0  0  0  0  0  0
    9.4332    9.9937   21.8591 H   0  0  0  0  0  0  0  0  0  0  0  0
    9.4327    9.2121   24.2896 H   0  0  0  0  0  0  0  0  0  0  0  0
    9.8762   10.3331   25.5745 H   0  0  0  0  0  0  0  0  0  0  0  0
    6.1447   10.8339   23.4702 H   0  0  0  0  0  0  0  0  0  0  0  0
    7.2250    9.5085   23.0444 H   0  0  0  0  0  0  0  0  0  0  0  0
   10.5306   12.7273   25.0043 H   0  0  0  0  0  0  0  0  0  0  0  0
   10.5325   13.2648   23.3283 H   0  0  0  0  0  0  0  0  0  0  0  0
    8.3044   13.5653   22.0730 H   0  0  0  0  0  0  0  0  0  0  0  0
    6.7816   13.2303   22.8897 H   0  0  0  0  0  0  0  0  0  0  0  0
    6.7815   12.4419   25.3395 H   0  0  0  0  0  0  0  0  0  0  0  0
    8.3046   12.2400   26.1984 H   0  0  0  0  0  0  0  0  0  0  0  0
   11.1277   10.8554   23.4768 H   0  0  0  0  0  0  0  0  0  0  0  0
    7.3984   11.3562   21.3739 H   0  0  0  0  0  0  0  0  0  0  0  0
    7.3977   10.0365   25.4781 H   0  0  0  0  0  0  0  0  0  0  0  0
    6.6591   14.8406   25.8204 H   0  0  0  0  0  0  0  0  0  0  0  0
    8.1517   15.5353   26.4841 H   0  0  0  0  0  0  0  0  0  0  0  0
    7.8399   13.7910   26.5678 H   0  0  0  0  0  0  0  0  0  0  0  0
   12.9103   14.7230   22.0762 H   0  0  0  0  0  0  0  0  0  0  0  0
   11.8124   15.7231   21.0749 H   0  0  0  0  0  0  0  0  0  0  0  0
   11.5510   13.9640   21.2071 H   0  0  0  0  0  0  0  0  0  0  0  0
  1  2  2  0  0  0  0
  1  3  1  0  0  0  0
  2 13  1  0  0  0  0
  2 14  1  0  0  0  0
  3 16  2  0  0  0  0
  3 17  1  0  0  0  0
  4 10  1  0  0  0  0
  4 11  1  0  0  0  0
  5 10  1  0  0  0  0
  5 12  1  0  0  0  0
  6 11  1  0  0  0  0
  6 12  1  0  0  0  0
  7 10  1  0  0  0  0
  7 13  1  0  0  0  0
  8 11  1  0  0  0  0
  8 13  1  0  0  0  0
  9 12  1  0  0  0  0
  9 13  1  0  0  0  0
 15 17  1  0  0  0  0
  1 18  1  0  0  0  0
  4 19  1  0  0  0  0
  4 20  1  0  0  0  0
  5 21  1  0  0  0  0
  5 22  1  0  0  0  0
  6 23  1  0  0  0  0
  6 24  1  0  0  0  0
  7 25  1  0  0  0  0
  7 26  1  0  0  0  0
  8 27  1  0  0  0  0
  8 28  1  0  0  0  0
  9 29  1  0  0  0  0
  9 30  1  0  0  0  0
 10 31  1  0  0  0  0
 11 32  1  0  0  0  0
 12 33  1  0  0  0  0
 14 34  1  0  0  0  0
 14 35  1  0  0  0  0
 14 36  1  0  0  0  0
 15 37  1  0  0  0  0
 15 38  1  0  0  0  0
 15 39  1  0  0  0  0
M  END
> <id>
EN300-1459654

> <smiles>
COC(=O)/C=C(/C)\C1(CC2CC3CC(C2)C1)C3

> <IUPAC Name>
methyl (2Z)-3-(adamantan-1-yl)but-2-enoate

> <CAS>
1564051-87-1

> <URL>
https://www.enaminestore.com/catalog/EN300-1459654

> <ROCS_ShapeQuery>
x0446_0A_x1080_0A_x0929_0A_x0812_0A_x0719_0A_x1140_0A_x0528_0A_x0310_0A

> <ROCS_TanimotoCombo>
0.422 

> <ROCS_ShapeTanimoto>
0.219 

> <ROCS_ColorTanimoto>
0.203 

> <ROCS_RefTversky>
0.200 

> <ROCS_RefColorTversky>
0.215 

> <ROCS_RefTverskyCombo>
0.416 

> <ROCS_FitTversky>
1.763 

> <ROCS_FitColorTversky>
0.777 

> <ROCS_FitTverskyCombo>
2.539 

> <ROCS_ColorScore>
-7.696

> <ROCS_Overlap>
2365.175

> <ROCS_Rank>
160                 

$$$$
untitled-dbase-354606_4
  -OEChem-02082415563D

 51 55  0     0  0  0  0  0  0999 V2000
    9.3461   12.4986   20.0666 C   0  0  0  0  0  0  0  0  0  0  0  0
   12.3631    8.2628   22.9462 C   0  0  0  0  0  0  0  0  0  0  0  0
    5.4215   12.1134   24.6186 C   0  0  0  0  0  0  0  0  0  0  0  0
   13.4675    9.1109   23.0216 C   0  0  0  0  0  0  0  0  0  0  0  0
    6.0712   13.3166   24.8730 C   0  0  0  0  0  0  0  0  0  0  0  0
   11.0812    8.7613   23.1758 C   0  0  0  0  0  0  0  0  0  0  0  0
    6.1457   10.9890   24.2200 C   0  0  0  0  0  0  0  0  0  0  0  0
   13.2943   10.4622   23.3260 C   0  0  0  0  0  0  0  0  0  0  0  0
    7.4591   13.4379   24.7288 C   0  0  0  0  0  0  0  0  0  0  0  0
   10.9094   10.1139   23.4811 C   0  0  0  0  0  0  0  0  0  0  0  0
    7.5412   11.0929   24.0733 C   0  0  0  0  0  0  0  0  0  0  0  0
   12.0148   10.9757   23.5586 C   0  0  0  0  0  0  0  0  0  0  0  0
    8.1858   12.3119   24.3121 C   0  0  0  0  0  0  0  0  0  0  0  0
    9.6086   10.7010   23.7409 C   0  0  0  0  0  0  0  0  0  0  0  0
   10.6840   12.8530   24.0790 C   0  0  0  0  0  0  0  0  0  0  0  0
   10.4586   14.7007   21.6932 C   0  0  0  0  0  0  0  0  0  0  0  0
   10.5595   13.1555   16.6317 C   0  0  0  0  0  0  0  0  0  0  0  0
   11.0147   11.9813   17.4909 C   0  0  0  0  0  0  0  0  0  0  0  0
    9.5093   13.9994   17.3453 C   0  0  0  0  0  0  0  0  0  0  0  0
   11.5105   12.4436   18.8623 C   0  0  0  0  0  0  0  0  0  0  0  0
    9.9990   14.4702   18.7160 C   0  0  0  0  0  0  0  0  0  0  0  0
   10.4894   13.3188   19.6160 C   0  0  0  0  0  0  0  0  0  0  0  0
   11.3385   15.1609   22.8316 C   0  0  0  0  0  0  0  0  0  0  0  0
    8.4482   11.8545   20.4205 N   0  0  0  0  0  0  0  0  0  0  0  0
    8.4334   10.1176   23.7207 N   0  0  0  0  0  0  0  0  0  0  0  0
   11.8629   12.3475   23.8537 N   0  0  0  0  0  0  0  0  0  0  0  0
    9.5257   12.0494   24.0559 N   0  0  0  0  0  0  0  0  0  0  0  0
   11.1200   13.8745   20.7995 N   0  0  0  0  0  0  0  0  0  0  0  0
    9.2853   15.0570   21.5980 O   0  0  0  0  0  0  0  0  0  0  0  0
   10.6360   14.5767   24.3873 S   0  0  0  0  0  0  0  0  0  0  0  0
   12.5020    7.2122   22.7091 H   0  0  0  0  0  0  0  0  0  0  0  0
    4.3435   12.0454   24.7370 H   0  0  0  0  0  0  0  0  0  0  0  0
   14.4647    8.7196   22.8420 H   0  0  0  0  0  0  0  0  0  0  0  0
    5.4924   14.1810   25.1896 H   0  0  0  0  0  0  0  0  0  0  0  0
   10.2310    8.0875   23.1149 H   0  0  0  0  0  0  0  0  0  0  0  0
    5.6365   10.0485   24.0332 H   0  0  0  0  0  0  0  0  0  0  0  0
   14.1642   11.1118   23.3791 H   0  0  0  0  0  0  0  0  0  0  0  0
    7.9252   14.3915   24.9392 H   0  0  0  0  0  0  0  0  0  0  0  0
   11.4220   13.7804   16.3746 H   0  0  0  0  0  0  0  0  0  0  0  0
   10.1456   12.7784   15.6884 H   0  0  0  0  0  0  0  0  0  0  0  0
   10.1826   11.2796   17.6219 H   0  0  0  0  0  0  0  0  0  0  0  0
   11.8107   11.4324   16.9729 H   0  0  0  0  0  0  0  0  0  0  0  0
    9.2551   14.8678   16.7267 H   0  0  0  0  0  0  0  0  0  0  0  0
    8.5901   13.4161   17.4656 H   0  0  0  0  0  0  0  0  0  0  0  0
   11.7438   11.5519   19.4647 H   0  0  0  0  0  0  0  0  0  0  0  0
   12.4661   12.9758   18.7457 H   0  0  0  0  0  0  0  0  0  0  0  0
   10.7870   15.2241   18.5843 H   0  0  0  0  0  0  0  0  0  0  0  0
    9.1700   14.9938   19.2138 H   0  0  0  0  0  0  0  0  0  0  0  0
   11.4269   16.2505   22.8592 H   0  0  0  0  0  0  0  0  0  0  0  0
   12.3399   14.7421   22.6946 H   0  0  0  0  0  0  0  0  0  0  0  0
   12.0985   13.6514   20.9541 H   0  0  0  0  0  0  0  0  0  0  0  0
  1 22  1  0  0  0  0
  1 24  3  0  0  0  0
  2  4  1  0  0  0  0
  2  6  2  0  0  0  0
  3  5  1  0  0  0  0
  3  7  2  0  0  0  0
  4  8  2  0  0  0  0
  5  9  2  0  0  0  0
  6 10  1  0  0  0  0
  7 11  1  0  0  0  0
  8 12  1  0  0  0  0
  9 13  1  0  0  0  0
 10 12  2  0  0  0  0
 10 14  1  0  0  0  0
 11 13  2  0  0  0  0
 11 25  1  0  0  0  0
 12 26  1  0  0  0  0
 13 27  1  0  0  0  0
 14 25  2  0  0  0  0
 14 27  1  0  0  0  0
 15 26  2  0  0  0  0
 15 27  1  0  0  0  0
 15 30  1  0  0  0  0
 16 23  1  0  0  0  0
 16 28  1  0  0  0  0
 16 29  2  0  0  0  0
 17 18  1  0  0  0  0
 17 19  1  0  0  0  0
 18 20  1  0  0  0  0
 19 21  1  0  0  0  0
 20 22  1  0  0  0  0
 21 22  1  0  0  0  0
 22 28  1  0  0  0  0
 23 30  1  0  0  0  0
  2 31  1  0  0  0  0
  3 32  1  0  0  0  0
  4 33  1  0  0  0  0
  5 34  1  0  0  0  0
  6 35  1  0  0  0  0
  7 36  1  0  0  0  0
  8 37  1  0  0  0  0
  9 38  1  0  0  0  0
 17 39  1  0  0  0  0
 17 40  1  0  0  0  0
 18 41  1  0  0  0  0
 18 42  1  0  0  0  0
 19 43  1  0  0  0  0
 19 44  1  0  0  0  0
 20 45  1  0  0  0  0
 20 46  1  0  0  0  0
 21 47  1  0  0  0  0
 21 48  1  0  0  0  0
 23 49  1  0  0  0  0
 23 50  1  0  0  0  0
 28 51  1  0  0  0  0
M  END
> <id>
EN300-26688781

> <smiles>
O=C(CSC1=NC=2C=CC=CC2C3=NC=4C=CC=CC4N13)NC5(CCCCC5)C#N

> <IUPAC Name>
N-(1-cyanocyclohexyl)-2-{8,10,17-triazatetracyclo[8.7.0.0^{2,7}.0^{11,16}]heptadeca-1(17),2(7),3,5,8,11(16),12,14-octaen-9-ylsulfanyl}acetamide

> <CAS>
920873-54-7

> <URL>
https://www.enaminestore.com/catalog/EN300-26688781

> <ROCS_ShapeQuery>
x0446_0A_x1080_0A_x0929_0A_x0812_0A_x0719_0A_x1140_0A_x0528_0A_x0310_0A

> <ROCS_TanimotoCombo>
0.422 

> <ROCS_ShapeTanimoto>
0.245 

> <ROCS_ColorTanimoto>
0.177 

> <ROCS_RefTversky>
0.229 

> <ROCS_RefColorTversky>
0.202 

> <ROCS_RefTverskyCombo>
0.431 

> <ROCS_FitTversky>
1.402 

> <ROCS_FitColorTversky>
0.588 

> <ROCS_FitTverskyCombo>
1.989 

> <ROCS_ColorScore>
-7.263

> <ROCS_Overlap>
2707.239

> <ROCS_Rank>
161                 

$$$$
untitled-dbase-389365_8
  -OEChem-02082415563D

 44 47  0     1  0  0  0  0  0999 V2000
   12.4440   14.9257   21.6517 C   0  0  0  0  0  0  0  0  0  0  0  0
   12.1363   13.7249   22.2432 C   0  0  0  0  0  0  0  0  0  0  0  0
   11.2037   15.5765   21.5104 C   0  0  0  0  0  0  0  0  0  0  0  0
    5.2551   11.3041   24.2465 C   0  0  0  0  0  0  0  0  0  0  0  0
    9.7233    9.9918   24.2833 C   0  0  0  0  0  0  0  0  0  0  0  0
    8.0811   11.7014   25.0979 C   0  0  0  0  0  0  0  0  0  0  0  0
    7.7967   10.6645   22.8282 C   0  0  0  0  0  0  0  0  0  0  0  0
   10.4054   12.3947   24.4718 C   0  0  0  0  0  0  0  0  0  0  0  0
   10.1315   11.3459   22.2125 C   0  0  0  0  0  0  0  0  0  0  0  0
    8.4713   13.0779   23.0311 C   0  0  0  0  0  0  0  0  0  0  0  0
    9.5562   11.2784   25.1011 C   0  0  2  0  0  0  0  0  0  0  0  0
    9.2727   10.2341   22.8376 C   0  0  1  0  0  0  0  0  0  0  0  0
    7.6034   11.9577   23.6532 C   0  0  0  0  0  0  0  0  0  0  0  0
    9.9789   12.6832   22.9963 C   0  0  0  0  0  0  0  0  0  0  0  0
   12.9893   12.5941   22.6566 C   0  0  0  0  0  0  0  0  0  0  0  0
    6.1286   12.3711   23.6497 C   0  0  0  0  0  0  0  0  0  0  0  0
   10.1840   14.8493   21.9745 N   0  0  0  0  0  0  0  0  0  0  0  0
   10.7830   13.7291   22.4132 N   0  0  0  0  0  0  0  0  0  0  0  0
   10.8600   16.8293   20.9800 N   0  3  0  0  0  0  0  0  0  0  0  0
    9.6502   17.1916   20.9666 O   0  5  0  0  0  0  0  0  0  0  0  0
    4.7209   10.3809   23.6505 O   0  0  0  0  0  0  0  0  0  0  0  0
   11.7639   17.5826   20.5208 O   0  0  0  0  0  0  0  0  0  0  0  0
    5.1349   11.5094   25.5833 O   0  0  0  0  0  0  0  0  0  0  0  0
   13.9614   15.5152   21.1877 Cl  0  0  0  0  0  0  0  0  0  0  0  0
   10.7715    9.6687   24.3009 H   0  0  0  0  0  0  0  0  0  0  0  0
    9.1332    9.1824   24.7307 H   0  0  0  0  0  0  0  0  0  0  0  0
    7.4713   10.9189   25.5677 H   0  0  0  0  0  0  0  0  0  0  0  0
    7.9546   12.6059   25.7067 H   0  0  0  0  0  0  0  0  0  0  0  0
    7.4636   10.8198   21.7939 H   0  0  0  0  0  0  0  0  0  0  0  0
    7.1771    9.8573   23.2399 H   0  0  0  0  0  0  0  0  0  0  0  0
   10.3158   13.3110   25.0708 H   0  0  0  0  0  0  0  0  0  0  0  0
   11.4671   12.1142   24.5033 H   0  0  0  0  0  0  0  0  0  0  0  0
   11.1854   11.0378   22.1946 H   0  0  0  0  0  0  0  0  0  0  0  0
    9.8371   11.4946   21.1650 H   0  0  0  0  0  0  0  0  0  0  0  0
    8.1280   13.2931   22.0097 H   0  0  0  0  0  0  0  0  0  0  0  0
    8.3454   14.0117   23.5965 H   0  0  0  0  0  0  0  0  0  0  0  0
    9.8856   11.1039   26.1316 H   0  0  0  0  0  0  0  0  0  0  0  0
    9.3892    9.3119   22.2571 H   0  0  0  0  0  0  0  0  0  0  0  0
   13.3358   12.7164   23.6960 H   0  0  0  0  0  0  0  0  0  0  0  0
   12.4578   11.6291   22.5923 H   0  0  0  0  0  0  0  0  0  0  0  0
   13.8822   12.4928   22.0158 H   0  0  0  0  0  0  0  0  0  0  0  0
    6.0207   13.2870   24.2323 H   0  0  0  0  0  0  0  0  0  0  0  0
    5.8182   12.5503   22.6195 H   0  0  0  0  0  0  0  0  0  0  0  0
    4.5698   10.8293   26.0084 H   0  0  0  0  0  0  0  0  0  0  0  0
  1  2  2  0  0  0  0
  1  3  1  0  0  0  0
  1 24  1  0  0  0  0
  2 15  1  0  0  0  0
  2 18  1  0  0  0  0
  3 17  2  0  0  0  0
  3 19  1  0  0  0  0
  4 16  1  0  0  0  0
  4 21  2  0  0  0  0
  4 23  1  0  0  0  0
  5 11  1  0  0  0  0
  5 12  1  0  0  0  0
  6 11  1  0  0  0  0
  6 13  1  0  0  0  0
  7 12  1  0  0  0  0
  7 13  1  0  0  0  0
  8 11  1  0  0  0  0
  8 14  1  0  0  0  0
  9 12  1  0  0  0  0
  9 14  1  0  0  0  0
 10 13  1  0  0  0  0
 10 14  1  0  0  0  0
 13 16  1  0  0  0  0
 14 18  1  0  0  0  0
 17 18  1  0  0  0  0
 19 20  1  0  0  0  0
 19 22  2  0  0  0  0
  5 25  1  0  0  0  0
  5 26  1  0  0  0  0
  6 27  1  0  0  0  0
  6 28  1  0  0  0  0
  7 29  1  0  0  0  0
  7 30  1  0  0  0  0
  8 31  1  0  0  0  0
  8 32  1  0  0  0  0
  9 33  1  0  0  0  0
  9 34  1  0  0  0  0
 10 35  1  0  0  0  0
 10 36  1  0  0  0  0
 11 37  1  0  0  0  0
 12 38  1  0  0  0  0
 15 39  1  0  0  0  0
 15 40  1  0  0  0  0
 15 41  1  0  0  0  0
 16 42  1  0  0  0  0
 16 43  1  0  0  0  0
 23 44  1  0  0  0  0
M  CHG  2  19   1  20  -1
M  END
> <id>
EN300-228907

> <smiles>
CC1=C(Cl)C(=NN1C2(CC3CC4CC(CC(=O)O)(C3)C2)C4)[N+](=O)[O-]

> <MDLNUMBER>
MFCD04967174

> <IUPAC Name>
2-[3-(4-chloro-5-methyl-3-nitro-1H-pyrazol-1-yl)adamantan-1-yl]acetic acid

> <CAS>
1004951-68-1

> <URL>
https://www.enaminestore.com/catalog/EN300-228907

> <ROCS_ShapeQuery>
x0446_0A_x1080_0A_x0929_0A_x0812_0A_x0719_0A_x1140_0A_x0528_0A_x0310_0A

> <ROCS_TanimotoCombo>
0.422 

> <ROCS_ShapeTanimoto>
0.250 

> <ROCS_ColorTanimoto>
0.172 

> <ROCS_RefTversky>
0.228 

> <ROCS_RefColorTversky>
0.207 

> <ROCS_RefTverskyCombo>
0.435 

> <ROCS_FitTversky>
1.616 

> <ROCS_FitColorTversky>
0.507 

> <ROCS_FitTverskyCombo>
2.123 

> <ROCS_ColorScore>
-7.439

> <ROCS_Overlap>
2697.604

> <ROCS_Rank>
162                 

$$$$
untitled-dbase-290183_8
  -OEChem-02082415563D

 44 48  0     0  0  0  0  0  0999 V2000
    3.8598   13.3179   27.2687 C   0  0  0  0  0  0  0  0  0  0  0  0
   13.7693   17.4257   19.9598 C   0  0  0  0  0  0  0  0  0  0  0  0
   14.7151   16.4552   20.3523 C   0  0  0  0  0  0  0  0  0  0  0  0
    5.1442   13.7368   27.6158 C   0  0  0  0  0  0  0  0  0  0  0  0
    3.5871   12.9150   25.9614 C   0  0  0  0  0  0  0  0  0  0  0  0
   12.4318   17.3302   20.3555 C   0  0  0  0  0  0  0  0  0  0  0  0
   14.3442   15.3679   21.1489 C   0  0  0  0  0  0  0  0  0  0  0  0
    6.1558   13.7528   26.6557 C   0  0  0  0  0  0  0  0  0  0  0  0
    4.5987   12.9311   25.0012 C   0  0  0  0  0  0  0  0  0  0  0  0
   12.0872   16.2523   21.1435 C   0  0  0  0  0  0  0  0  0  0  0  0
   13.0212   15.2938   21.5309 C   0  0  0  0  0  0  0  0  0  0  0  0
    5.8831   13.3500   25.3484 C   0  0  0  0  0  0  0  0  0  0  0  0
   10.7868   15.8711   21.7040 C   0  0  0  0  0  0  0  0  0  0  0  0
   12.3289   14.2884   22.3435 C   0  0  0  0  0  0  0  0  0  0  0  0
    6.9502   13.3670   24.3357 C   0  0  0  0  0  0  0  0  0  0  0  0
    9.3932   13.1458   22.4573 C   0  0  0  0  0  0  0  0  0  0  0  0
    8.7985   10.5591   22.8245 C   0  0  0  0  0  0  0  0  0  0  0  0
    9.9486   11.3523   24.3765 C   0  0  0  0  0  0  0  0  0  0  0  0
    7.5642   10.9469   24.9337 C   0  0  0  0  0  0  0  0  0  0  0  0
    8.8161   10.2667   24.3644 C   0  0  0  0  0  0  0  0  0  0  0  0
    8.9335   12.0300   23.3785 C   0  0  0  0  0  0  0  0  0  0  0  0
   11.0497   14.7436   22.4171 N   0  0  0  0  0  0  0  0  0  0  0  0
    7.7011   12.2158   24.2009 N   0  0  0  0  0  0  0  0  0  0  0  0
    9.7506   16.4845   21.5405 O   0  0  0  0  0  0  0  0  0  0  0  0
   12.8508   13.3025   22.8257 O   0  0  0  0  0  0  0  0  0  0  0  0
    7.1037   14.4055   23.6981 O   0  0  0  0  0  0  0  0  0  0  0  0
    9.1845   13.1675   21.2515 O   0  0  0  0  0  0  0  0  0  0  0  0
   10.0604   14.0891   23.1829 O   0  0  0  0  0  0  0  0  0  0  0  0
    3.0721   13.3054   28.0163 H   0  0  0  0  0  0  0  0  0  0  0  0
   14.0878   18.2592   19.3390 H   0  0  0  0  0  0  0  0  0  0  0  0
   15.7476   16.5559   20.0277 H   0  0  0  0  0  0  0  0  0  0  0  0
    5.3563   14.0506   28.6337 H   0  0  0  0  0  0  0  0  0  0  0  0
    2.5871   12.5886   25.6912 H   0  0  0  0  0  0  0  0  0  0  0  0
   11.7058   18.0748   20.0513 H   0  0  0  0  0  0  0  0  0  0  0  0
   15.0708   14.6216   21.4473 H   0  0  0  0  0  0  0  0  0  0  0  0
    7.1532   14.0811   26.9371 H   0  0  0  0  0  0  0  0  0  0  0  0
    4.3747   12.6151   23.9856 H   0  0  0  0  0  0  0  0  0  0  0  0
    9.6451   10.1747   22.2439 H   0  0  0  0  0  0  0  0  0  0  0  0
    7.8696   10.3175   22.2985 H   0  0  0  0  0  0  0  0  0  0  0  0
   10.1132   11.8648   25.3295 H   0  0  0  0  0  0  0  0  0  0  0  0
   10.9181   11.0525   23.9624 H   0  0  0  0  0  0  0  0  0  0  0  0
    6.6322   10.4472   24.6561 H   0  0  0  0  0  0  0  0  0  0  0  0
    7.6180   11.1242   26.0112 H   0  0  0  0  0  0  0  0  0  0  0  0
    9.0608    9.2585   24.6967 H   0  0  0  0  0  0  0  0  0  0  0  0
  1  4  1  0  0  0  0
  1  5  2  0  0  0  0
  2  3  1  0  0  0  0
  2  6  2  0  0  0  0
  3  7  2  0  0  0  0
  4  8  2  0  0  0  0
  5  9  1  0  0  0  0
  6 10  1  0  0  0  0
  7 11  1  0  0  0  0
  8 12  1  0  0  0  0
  9 12  2  0  0  0  0
 10 11  2  0  0  0  0
 10 13  1  0  0  0  0
 11 14  1  0  0  0  0
 12 15  1  0  0  0  0
 13 22  1  0  0  0  0
 13 24  2  0  0  0  0
 14 22  1  0  0  0  0
 14 25  2  0  0  0  0
 15 23  1  0  0  0  0
 15 26  2  0  0  0  0
 16 21  1  0  0  0  0
 16 27  2  0  0  0  0
 16 28  1  0  0  0  0
 17 20  1  0  0  0  0
 17 21  1  0  0  0  0
 18 20  1  0  0  0  0
 18 21  1  0  0  0  0
 19 20  1  0  0  0  0
 19 23  1  0  0  0  0
 21 23  1  0  0  0  0
 22 28  1  0  0  0  0
  1 29  1  0  0  0  0
  2 30  1  0  0  0  0
  3 31  1  0  0  0  0
  4 32  1  0  0  0  0
  5 33  1  0  0  0  0
  6 34  1  0  0  0  0
  7 35  1  0  0  0  0
  8 36  1  0  0  0  0
  9 37  1  0  0  0  0
 17 38  1  0  0  0  0
 17 39  1  0  0  0  0
 18 40  1  0  0  0  0
 18 41  1  0  0  0  0
 19 42  1  0  0  0  0
 19 43  1  0  0  0  0
 20 44  1  0  0  0  0
M  END
> <id>
EN300-6524903

> <smiles>
O=C(ON1C(=O)C=2C=CC=CC2C1=O)C3(CC4C3)N(C4)C(=O)C=5C=CC=CC5

> <IUPAC Name>
1,3-dioxo-2,3-dihydro-1H-isoindol-2-yl 2-benzoyl-2-azabicyclo[2.1.1]hexane-1-carboxylate

> <CAS>
2248322-24-7

> <URL>
https://www.enaminestore.com/catalog/EN300-6524903

> <ROCS_ShapeQuery>
x0446_0A_x1080_0A_x0929_0A_x0812_0A_x0719_0A_x1140_0A_x0528_0A_x0310_0A

> <ROCS_TanimotoCombo>
0.422 

> <ROCS_ShapeTanimoto>
0.255 

> <ROCS_ColorTanimoto>
0.167 

> <ROCS_RefTversky>
0.236 

> <ROCS_RefColorTversky>
0.203 

> <ROCS_RefTverskyCombo>
0.438 

> <ROCS_FitTversky>
1.479 

> <ROCS_FitColorTversky>
0.487 

> <ROCS_FitTverskyCombo>
1.967 

> <ROCS_ColorScore>
-7.296

> <ROCS_Overlap>
2786.187

> <ROCS_Rank>
163                 

$$$$
untitled-dbase-589622_4
  -OEChem-02082415563D

 44 47  0     0  0  0  0  0  0999 V2000
   10.8048   15.2139   19.7082 C   0  0  0  0  0  0  0  0  0  0  0  0
   11.1992   14.6117   20.9268 C   0  0  0  0  0  0  0  0  0  0  0  0
    9.7313   16.0193   20.0100 C   0  0  0  0  0  0  0  0  0  0  0  0
   10.3389   15.0922   21.8865 C   0  0  0  0  0  0  0  0  0  0  0  0
    6.9139   17.3718   24.2235 C   0  0  0  0  0  0  0  0  0  0  0  0
    7.9460   16.5642   23.9585 C   0  0  0  0  0  0  0  0  0  0  0  0
    7.7701   15.0849   24.0115 C   0  0  0  0  0  0  0  0  0  0  0  0
    9.0211   10.2618   22.3311 C   0  0  0  0  0  0  0  0  0  0  0  0
    7.2200   10.3868   24.0717 C   0  0  0  0  0  0  0  0  0  0  0  0
    9.6244   10.2219   24.7651 C   0  0  0  0  0  0  0  0  0  0  0  0
    7.7587   12.4004   22.6779 C   0  0  0  0  0  0  0  0  0  0  0  0
   10.1656   12.2352   23.3720 C   0  0  0  0  0  0  0  0  0  0  0  0
    8.3622   12.3603   25.1157 C   0  0  0  0  0  0  0  0  0  0  0  0
    7.6490   10.8660   22.6744 C   0  0  0  0  0  0  0  0  0  0  0  0
   10.0657   10.7000   23.3713 C   0  0  0  0  0  0  0  0  0  0  0  0
    8.2552   10.8256   25.1214 C   0  0  0  0  0  0  0  0  0  0  0  0
    8.7984   12.8632   23.7226 C   0  0  0  0  0  0  0  0  0  0  0  0
   10.2123   14.8549   23.3636 C   0  0  0  0  0  0  0  0  0  0  0  0
    8.9004   14.3060   23.7207 N   0  0  0  0  0  0  0  0  0  0  0  0
    6.6643   14.6104   24.2760 O   0  0  0  0  0  0  0  0  0  0  0  0
    9.4411   15.9509   21.3358 O   0  0  0  0  0  0  0  0  0  0  0  0
   11.2471   15.0776   18.7320 H   0  0  0  0  0  0  0  0  0  0  0  0
   12.0099   13.9143   21.0827 H   0  0  0  0  0  0  0  0  0  0  0  0
    9.0977   16.6701   19.4256 H   0  0  0  0  0  0  0  0  0  0  0  0
    6.9955   18.4528   24.1970 H   0  0  0  0  0  0  0  0  0  0  0  0
    5.9453   16.9502   24.4715 H   0  0  0  0  0  0  0  0  0  0  0  0
    8.8988   16.9895   23.6681 H   0  0  0  0  0  0  0  0  0  0  0  0
    8.9529    9.1673   22.3072 H   0  0  0  0  0  0  0  0  0  0  0  0
    9.3322   10.5830   21.3294 H   0  0  0  0  0  0  0  0  0  0  0  0
    6.2344   10.7981   24.3225 H   0  0  0  0  0  0  0  0  0  0  0  0
    7.1204    9.2945   24.0786 H   0  0  0  0  0  0  0  0  0  0  0  0
    9.5665    9.1266   24.7841 H   0  0  0  0  0  0  0  0  0  0  0  0
   10.3697   10.5142   25.5148 H   0  0  0  0  0  0  0  0  0  0  0  0
    8.0435   12.7481   21.6762 H   0  0  0  0  0  0  0  0  0  0  0  0
    6.7761   12.8370   22.9000 H   0  0  0  0  0  0  0  0  0  0  0  0
   10.9272   12.5520   24.0965 H   0  0  0  0  0  0  0  0  0  0  0  0
   10.5013   12.5802   22.3853 H   0  0  0  0  0  0  0  0  0  0  0  0
    7.3929   12.7958   25.3913 H   0  0  0  0  0  0  0  0  0  0  0  0
    9.0837   12.6786   25.8796 H   0  0  0  0  0  0  0  0  0  0  0  0
    6.9092   10.5490   21.9310 H   0  0  0  0  0  0  0  0  0  0  0  0
   11.0406   10.2659   23.1226 H   0  0  0  0  0  0  0  0  0  0  0  0
    7.9455   10.4797   26.1138 H   0  0  0  0  0  0  0  0  0  0  0  0
   10.9777   14.1511   23.7085 H   0  0  0  0  0  0  0  0  0  0  0  0
   10.3498   15.7854   23.9243 H   0  0  0  0  0  0  0  0  0  0  0  0
  1  2  1  0  0  0  0
  1  3  2  0  0  0  0
  2  4  2  0  0  0  0
  3 21  1  0  0  0  0
  4 18  1  0  0  0  0
  4 21  1  0  0  0  0
  5  6  2  0  0  0  0
  6  7  1  0  0  0  0
  7 19  1  0  0  0  0
  7 20  2  0  0  0  0
  8 14  1  0  0  0  0
  8 15  1  0  0  0  0
  9 14  1  0  0  0  0
  9 16  1  0  0  0  0
 10 15  1  0  0  0  0
 10 16  1  0  0  0  0
 11 14  1  0  0  0  0
 11 17  1  0  0  0  0
 12 15  1  0  0  0  0
 12 17  1  0  0  0  0
 13 16  1  0  0  0  0
 13 17  1  0  0  0  0
 17 19  1  0  0  0  0
 18 19  1  0  0  0  0
  1 22  1  0  0  0  0
  2 23  1  0  0  0  0
  3 24  1  0  0  0  0
  5 25  1  0  0  0  0
  5 26  1  0  0  0  0
  6 27  1  0  0  0  0
  8 28  1  0  0  0  0
  8 29  1  0  0  0  0
  9 30  1  0  0  0  0
  9 31  1  0  0  0  0
 10 32  1  0  0  0  0
 10 33  1  0  0  0  0
 11 34  1  0  0  0  0
 11 35  1  0  0  0  0
 12 36  1  0  0  0  0
 12 37  1  0  0  0  0
 13 38  1  0  0  0  0
 13 39  1  0  0  0  0
 14 40  1  0  0  0  0
 15 41  1  0  0  0  0
 16 42  1  0  0  0  0
 18 43  1  0  0  0  0
 18 44  1  0  0  0  0
M  END
> <id>
EN300-26582458

> <smiles>
C=CC(=O)N(CC1=CC=CO1)C2(CC3CC4CC(C3)C2)C4

> <IUPAC Name>
N-(adamantan-1-yl)-N-[(furan-2-yl)methyl]prop-2-enamide

> <CAS>
2189711-14-4

> <URL>
https://www.enaminestore.com/catalog/EN300-26582458

> <ROCS_ShapeQuery>
x0446_0A_x1080_0A_x0929_0A_x0812_0A_x0719_0A_x1140_0A_x0528_0A_x0310_0A

> <ROCS_TanimotoCombo>
0.422 

> <ROCS_ShapeTanimoto>
0.231 

> <ROCS_ColorTanimoto>
0.191 

> <ROCS_RefTversky>
0.212 

> <ROCS_RefColorTversky>
0.214 

> <ROCS_RefTverskyCombo>
0.425 

> <ROCS_FitTversky>
1.629 

> <ROCS_FitColorTversky>
0.649 

> <ROCS_FitTverskyCombo>
2.278 

> <ROCS_ColorScore>
-7.658

> <ROCS_Overlap>
2500.239

> <ROCS_Rank>
164                 

$$$$
untitled-dbase-84495_0
  -OEChem-02082415563D

 34 36  0     0  0  0  0  0  0999 V2000
    8.0527   10.4006   24.8515 C   0  0  0  0  0  0  0  0  0  0  0  0
   10.1888   11.5941   24.3109 C   0  0  0  0  0  0  0  0  0  0  0  0
    8.0586   12.8925   24.5869 C   0  0  0  0  0  0  0  0  0  0  0  0
    9.0932   10.1552   22.5841 C   0  0  0  0  0  0  0  0  0  0  0  0
    6.9556   11.4583   22.8611 C   0  0  0  0  0  0  0  0  0  0  0  0
    8.8661   11.6844   25.0898 C   0  0  0  0  0  0  0  0  0  0  0  0
    7.7588   10.2375   23.3506 C   0  0  0  0  0  0  0  0  0  0  0  0
    9.9112   11.4453   22.8023 C   0  0  0  0  0  0  0  0  0  0  0  0
    7.7689   12.7513   23.0800 C   0  0  0  0  0  0  0  0  0  0  0  0
    9.0769   12.6284   22.2752 C   0  0  0  0  0  0  0  0  0  0  0  0
   10.9269   13.3772   19.7483 C   0  0  0  0  0  0  0  0  0  0  0  0
   11.2540   13.7121   21.1459 N   0  0  0  0  0  0  0  0  0  0  0  0
    9.1540   15.1549   21.5962 O   0  0  0  0  0  0  0  0  0  0  0  0
   10.5646   14.3649   23.5308 O   0  0  0  0  0  0  0  0  0  0  0  0
    9.9911   14.1412   22.2144 S   0  0  0  0  0  0  0  0  0  0  0  0
    8.6077    9.5300   25.2221 H   0  0  0  0  0  0  0  0  0  0  0  0
    7.1127   10.4419   25.4153 H   0  0  0  0  0  0  0  0  0  0  0  0
   10.8015   12.4807   24.5061 H   0  0  0  0  0  0  0  0  0  0  0  0
   10.7699   10.7337   24.6662 H   0  0  0  0  0  0  0  0  0  0  0  0
    7.1136   12.9631   25.1404 H   0  0  0  0  0  0  0  0  0  0  0  0
    8.6043   13.8202   24.7904 H   0  0  0  0  0  0  0  0  0  0  0  0
    9.6676    9.2850   22.9245 H   0  0  0  0  0  0  0  0  0  0  0  0
    8.9006   10.0093   21.5142 H   0  0  0  0  0  0  0  0  0  0  0  0
    6.7122   11.3430   21.7976 H   0  0  0  0  0  0  0  0  0  0  0  0
    6.0017   11.5194   23.3998 H   0  0  0  0  0  0  0  0  0  0  0  0
    9.0727   11.7959   26.1600 H   0  0  0  0  0  0  0  0  0  0  0  0
    7.1794    9.3225   23.1842 H   0  0  0  0  0  0  0  0  0  0  0  0
   10.8612   11.3746   22.2604 H   0  0  0  0  0  0  0  0  0  0  0  0
    7.1872   13.6145   22.7364 H   0  0  0  0  0  0  0  0  0  0  0  0
    8.8282   12.4446   21.2208 H   0  0  0  0  0  0  0  0  0  0  0  0
   10.0969   14.0113   19.4033 H   0  0  0  0  0  0  0  0  0  0  0  0
   11.8086   13.5504   19.1138 H   0  0  0  0  0  0  0  0  0  0  0  0
   10.6312   12.3196   19.6843 H   0  0  0  0  0  0  0  0  0  0  0  0
   12.0250   13.1565   21.5386 H   0  0  0  0  0  0  0  0  0  0  0  0
  1  6  1  0  0  0  0
  1  7  1  0  0  0  0
  2  6  1  0  0  0  0
  2  8  1  0  0  0  0
  3  6  1  0  0  0  0
  3  9  1  0  0  0  0
  4  7  1  0  0  0  0
  4  8  1  0  0  0  0
  5  7  1  0  0  0  0
  5  9  1  0  0  0  0
  8 10  1  0  0  0  0
  9 10  1  0  0  0  0
 10 15  1  0  0  0  0
 11 12  1  0  0  0  0
 12 15  1  0  0  0  0
 13 15  2  0  0  0  0
 14 15  2  0  0  0  0
  1 16  1  0  0  0  0
  1 17  1  0  0  0  0
  2 18  1  0  0  0  0
  2 19  1  0  0  0  0
  3 20  1  0  0  0  0
  3 21  1  0  0  0  0
  4 22  1  0  0  0  0
  4 23  1  0  0  0  0
  5 24  1  0  0  0  0
  5 25  1  0  0  0  0
  6 26  1  0  0  0  0
  7 27  1  0  0  0  0
  8 28  1  0  0  0  0
  9 29  1  0  0  0  0
 10 30  1  0  0  0  0
 11 31  1  0  0  0  0
 11 32  1  0  0  0  0
 11 33  1  0  0  0  0
 12 34  1  0  0  0  0
M  END
> <id>
EN300-680173

> <smiles>
CNS(=O)(=O)C1C2CC3CC(C2)CC1C3

> <IUPAC Name>
N-methyladamantane-2-sulfonamide

> <CAS>
2137807-83-9

> <URL>
https://www.enaminestore.com/catalog/EN300-680173

> <ROCS_ShapeQuery>
x0446_0A_x1080_0A_x0929_0A_x0812_0A_x0719_0A_x1140_0A_x0528_0A_x0310_0A

> <ROCS_TanimotoCombo>
0.422 

> <ROCS_ShapeTanimoto>
0.202 

> <ROCS_ColorTanimoto>
0.220 

> <ROCS_RefTversky>
0.186 

> <ROCS_RefColorTversky>
0.235 

> <ROCS_RefTverskyCombo>
0.421 

> <ROCS_FitTversky>
1.777 

> <ROCS_FitColorTversky>
0.775 

> <ROCS_FitTverskyCombo>
2.552 

> <ROCS_ColorScore>
-8.411

> <ROCS_Overlap>
2189.968

> <ROCS_Rank>
165                 

$$$$
untitled-dbase-309389_9
  -OEChem-02082415563D

 41 43  0     1  0  0  0  0  0999 V2000
    5.6028   12.7200   24.7202 C   0  0  0  0  0  0  0  0  0  0  0  0
    7.9029   12.5289   24.2009 C   0  0  0  0  0  0  0  0  0  0  0  0
    7.8765   11.1704   24.4282 C   0  0  0  0  0  0  0  0  0  0  0  0
    6.7926   13.3373   24.3322 C   0  0  0  0  0  0  0  0  0  0  0  0
    5.5591   11.3337   24.9573 C   0  0  0  0  0  0  0  0  0  0  0  0
    6.7054   10.5456   24.8089 C   0  0  0  0  0  0  0  0  0  0  0  0
   11.8645   10.5422   22.4819 C   0  0  0  0  0  0  0  0  0  0  0  0
    9.2528   12.8381   23.8113 C   0  0  0  0  0  0  0  0  0  0  0  0
   10.6879   11.1756   22.5899 C   0  0  0  0  0  0  0  0  0  0  0  0
   12.5957   10.1053   23.6969 C   0  0  0  0  0  0  0  0  0  0  0  0
   11.9490   10.3209   25.0489 C   0  0  0  0  0  0  0  0  0  0  0  0
   11.0886   11.5933   25.0747 C   0  0  2  0  0  0  0  0  0  0  0  0
   10.0644   11.5489   23.9123 C   0  0  1  0  0  0  0  0  0  0  0  0
   11.9930   12.8352   25.0713 C   0  0  0  0  0  0  0  0  0  0  0  0
    6.5660   15.1131   22.7665 C   0  0  0  0  0  0  0  0  0  0  0  0
    3.2581   11.6606   25.4609 C   0  0  0  0  0  0  0  0  0  0  0  0
   10.1661   10.6445   20.3945 C   0  0  0  0  0  0  0  0  0  0  0  0
    9.6247   13.9379   23.4492 O   0  0  0  0  0  0  0  0  0  0  0  0
   13.6750    9.5269   23.5833 O   0  0  0  0  0  0  0  0  0  0  0  0
    9.0683   10.5250   24.2331 O   0  0  0  0  0  0  0  0  0  0  0  0
    6.8369   14.6707   24.0989 O   0  0  0  0  0  0  0  0  0  0  0  0
    4.3708   10.7792   25.3360 O   0  0  0  0  0  0  0  0  0  0  0  0
    9.9592   11.5280   21.4672 O   0  0  0  0  0  0  0  0  0  0  0  0
    6.6647    8.8478   25.0915 Cl  0  0  0  0  0  0  0  0  0  0  0  0
    4.7003   13.3148   24.8404 H   0  0  0  0  0  0  0  0  0  0  0  0
   12.3236   10.3490   21.5211 H   0  0  0  0  0  0  0  0  0  0  0  0
   11.3139    9.4524   25.2597 H   0  0  0  0  0  0  0  0  0  0  0  0
   12.7402   10.3530   25.8051 H   0  0  0  0  0  0  0  0  0  0  0  0
   10.5339   11.6068   26.0069 H   0  0  0  0  0  0  0  0  0  0  0  0
   12.5703   12.8624   24.1507 H   0  0  0  0  0  0  0  0  0  0  0  0
   12.6702   12.7945   25.9206 H   0  0  0  0  0  0  0  0  0  0  0  0
   11.3812   13.7311   25.1402 H   0  0  0  0  0  0  0  0  0  0  0  0
    6.6356   16.2027   22.7223 H   0  0  0  0  0  0  0  0  0  0  0  0
    5.5651   14.7889   22.4704 H   0  0  0  0  0  0  0  0  0  0  0  0
    7.3037   14.6754   22.0897 H   0  0  0  0  0  0  0  0  0  0  0  0
    2.3758   11.0936   25.7675 H   0  0  0  0  0  0  0  0  0  0  0  0
    3.0730   12.1533   24.5030 H   0  0  0  0  0  0  0  0  0  0  0  0
    3.4852   12.4146   26.2183 H   0  0  0  0  0  0  0  0  0  0  0  0
    9.5706   10.9660   19.5366 H   0  0  0  0  0  0  0  0  0  0  0  0
    9.8779    9.6334   20.6933 H   0  0  0  0  0  0  0  0  0  0  0  0
   11.2248   10.6547   20.1247 H   0  0  0  0  0  0  0  0  0  0  0  0
  1  4  1  0  0  0  0
  1  5  2  0  0  0  0
  2  3  1  0  0  0  0
  2  4  2  0  0  0  0
  2  8  1  0  0  0  0
  3  6  2  0  0  0  0
  3 20  1  0  0  0  0
  4 21  1  0  0  0  0
  5  6  1  0  0  0  0
  5 22  1  0  0  0  0
  6 24  1  0  0  0  0
  7  9  2  0  0  0  0
  7 10  1  0  0  0  0
  8 13  1  0  0  0  0
  8 18  2  0  0  0  0
  9 13  1  0  0  0  0
  9 23  1  0  0  0  0
 10 11  1  0  0  0  0
 10 19  2  0  0  0  0
 11 12  1  0  0  0  0
 12 13  1  0  0  0  0
 12 14  1  1  0  0  0
 13 20  1  6  0  0  0
 15 21  1  0  0  0  0
 16 22  1  0  0  0  0
 17 23  1  0  0  0  0
  1 25  1  0  0  0  0
  7 26  1  0  0  0  0
 11 27  1  0  0  0  0
 11 28  1  0  0  0  0
 12 29  1  0  0  0  0
 14 30  1  0  0  0  0
 14 31  1  0  0  0  0
 14 32  1  0  0  0  0
 15 33  1  0  0  0  0
 15 34  1  0  0  0  0
 15 35  1  0  0  0  0
 16 36  1  0  0  0  0
 16 37  1  0  0  0  0
 16 38  1  0  0  0  0
 17 39  1  0  0  0  0
 17 40  1  0  0  0  0
 17 41  1  0  0  0  0
M  END
> <id>
EN300-52615

> <smiles>
COC1=CC(=O)C[C@@H](C)[C@@]21OC=3C(C2=O)=C(OC)C=C(OC)C3Cl

> <MDLNUMBER>
MFCD00082343

> <IUPAC Name>
(2S,6'R)-7-chloro-2',4,6-trimethoxy-6'-methyl-3H-spiro[1-benzofuran-2,1'-cyclohexan]-2'-ene-3,4'-dione

> <CAS>
126-07-8

> <Purity>
95

> <URL>
https://www.enaminestore.com/catalog/EN300-52615

> <MP>
218-220

> <ROCS_ShapeQuery>
x0446_0A_x1080_0A_x0929_0A_x0812_0A_x0719_0A_x1140_0A_x0528_0A_x0310_0A

> <ROCS_TanimotoCombo>
0.422 

> <ROCS_ShapeTanimoto>
0.233 

> <ROCS_ColorTanimoto>
0.189 

> <ROCS_RefTversky>
0.215 

> <ROCS_RefColorTversky>
0.206 

> <ROCS_RefTverskyCombo>
0.421 

> <ROCS_FitTversky>
1.531 

> <ROCS_FitColorTversky>
0.705 

> <ROCS_FitTverskyCombo>
2.236 

> <ROCS_ColorScore>
-7.358

> <ROCS_Overlap>
2542.776

> <ROCS_Rank>
166                 

$$$$
untitled-dbase-268016_6
  -OEChem-02082415563D

 48 52  0     1  0  0  0  0  0999 V2000
    6.2090   10.1093   26.3367 C   0  0  0  0  0  0  0  0  0  0  0  0
    4.2673   10.9751   27.4374 C   0  0  0  0  0  0  0  0  0  0  0  0
    9.4640    9.5720   23.3028 C   0  0  0  0  0  0  0  0  0  0  0  0
    6.7684   13.2236   24.5123 C   0  0  0  0  0  0  0  0  0  0  0  0
    6.3181   11.3538   25.6954 C   0  0  0  0  0  0  0  0  0  0  0  0
    7.2051   11.9388   24.7534 C   0  0  0  0  0  0  0  0  0  0  0  0
    5.1532    9.9268   27.2279 C   0  0  0  0  0  0  0  0  0  0  0  0
   10.5321   10.3551   22.9148 C   0  0  0  0  0  0  0  0  0  0  0  0
    5.3599   12.3167   25.9987 C   0  0  0  0  0  0  0  0  0  0  0  0
   10.4124   11.7034   23.1831 C   0  0  0  0  0  0  0  0  0  0  0  0
    8.3627   11.3877   24.1137 C   0  0  0  0  0  0  0  0  0  0  0  0
    9.3457   15.1855   22.4716 C   0  0  0  0  0  0  0  0  0  0  0  0
   12.6886   15.1784   20.6007 C   0  0  0  0  0  0  0  0  0  0  0  0
   11.9951   16.7534   22.4054 C   0  0  0  0  0  0  0  0  0  0  0  0
   13.5299   14.3820   21.6086 C   0  0  0  0  0  0  0  0  0  0  0  0
   12.8730   15.9832   23.4006 C   0  0  0  0  0  0  0  0  0  0  0  0
   10.6443   14.6624   21.9307 C   0  0  1  0  0  0  0  0  0  0  0  0
   11.4725   15.8085   21.3049 C   0  0  0  0  0  0  0  0  0  0  0  0
   12.9213   14.4913   23.0206 C   0  0  0  0  0  0  0  0  0  0  0  0
   11.4701   13.9581   23.0303 C   0  0  2  0  0  0  0  0  0  0  0  0
    4.3234   12.1926   26.8491 N   0  0  0  0  0  0  0  0  0  0  0  0
    8.3594   10.0570   23.9069 N   0  0  0  0  0  0  0  0  0  0  0  0
    9.3377   12.2558   23.7832 N   0  0  0  0  0  0  0  0  0  0  0  0
    5.6492   13.4422   25.2730 N   0  0  0  0  0  0  0  0  0  0  0  0
   11.4600   12.5239   22.8107 N   0  0  0  0  0  0  0  0  0  0  0  0
    9.1607   15.5489   23.6236 O   0  0  0  0  0  0  0  0  0  0  0  0
    8.3955   15.1995   21.5051 O   0  0  0  0  0  0  0  0  0  0  0  0
    4.9972    8.7619   27.8684 F   0  0  0  0  0  0  0  0  0  0  0  0
   11.6067    9.8279   22.3187 F   0  0  0  0  0  0  0  0  0  0  0  0
    6.9177    9.3090   26.1503 H   0  0  0  0  0  0  0  0  0  0  0  0
    3.4383   10.8494   28.1289 H   0  0  0  0  0  0  0  0  0  0  0  0
    9.4675    8.5006   23.1334 H   0  0  0  0  0  0  0  0  0  0  0  0
    7.1499   14.0061   23.8700 H   0  0  0  0  0  0  0  0  0  0  0  0
   13.3043   15.9590   20.1380 H   0  0  0  0  0  0  0  0  0  0  0  0
   12.3593   14.5187   19.7891 H   0  0  0  0  0  0  0  0  0  0  0  0
   11.1634   17.2326   22.9340 H   0  0  0  0  0  0  0  0  0  0  0  0
   12.5790   17.5655   21.9546 H   0  0  0  0  0  0  0  0  0  0  0  0
   13.5918   13.3335   21.2949 H   0  0  0  0  0  0  0  0  0  0  0  0
   14.5581   14.7637   21.6115 H   0  0  0  0  0  0  0  0  0  0  0  0
   13.8852   16.4053   23.4080 H   0  0  0  0  0  0  0  0  0  0  0  0
   12.4773   16.1051   24.4161 H   0  0  0  0  0  0  0  0  0  0  0  0
   10.3706   13.9587   21.1327 H   0  0  0  0  0  0  0  0  0  0  0  0
   10.8703   16.3754   20.5856 H   0  0  0  0  0  0  0  0  0  0  0  0
   13.5403   13.9491   23.7449 H   0  0  0  0  0  0  0  0  0  0  0  0
   11.0335   14.1320   24.0212 H   0  0  0  0  0  0  0  0  0  0  0  0
    5.1169   14.3011   25.2955 H   0  0  0  0  0  0  0  0  0  0  0  0
   12.2649   12.1115   22.3599 H   0  0  0  0  0  0  0  0  0  0  0  0
    7.5373   15.5369   21.8398 H   0  0  0  0  0  0  0  0  0  0  0  0
  1  5  1  0  0  0  0
  1  7  2  0  0  0  0
  2  7  1  0  0  0  0
  2 21  2  0  0  0  0
  3  8  1  0  0  0  0
  3 22  2  0  0  0  0
  4  6  2  0  0  0  0
  4 24  1  0  0  0  0
  5  6  1  0  0  0  0
  5  9  2  0  0  0  0
  6 11  1  0  0  0  0
  7 28  1  0  0  0  0
  8 10  2  0  0  0  0
  8 29  1  0  0  0  0
  9 21  1  0  0  0  0
  9 24  1  0  0  0  0
 10 23  1  0  0  0  0
 10 25  1  0  0  0  0
 11 22  1  0  0  0  0
 11 23  2  0  0  0  0
 12 17  1  6  0  0  0
 12 26  2  0  0  0  0
 12 27  1  0  0  0  0
 13 15  1  0  0  0  0
 13 18  1  0  0  0  0
 14 16  1  0  0  0  0
 14 18  1  0  0  0  0
 15 19  1  0  0  0  0
 16 19  1  0  0  0  0
 17 18  1  0  0  0  0
 17 20  1  0  0  0  0
 19 20  1  0  0  0  0
 20 25  1  1  0  0  0
  1 30  1  0  0  0  0
  2 31  1  0  0  0  0
  3 32  1  0  0  0  0
  4 33  1  0  0  0  0
 13 34  1  0  0  0  0
 13 35  1  0  0  0  0
 14 36  1  0  0  0  0
 14 37  1  0  0  0  0
 15 38  1  0  0  0  0
 15 39  1  0  0  0  0
 16 40  1  0  0  0  0
 16 41  1  0  0  0  0
 17 42  1  0  0  0  0
 18 43  1  0  0  0  0
 19 44  1  0  0  0  0
 20 45  1  0  0  0  0
 24 46  1  0  0  0  0
 25 47  1  0  0  0  0
 27 48  1  0  0  0  0
M  END
> <id>
EN300-365064

> <smiles>
OC(=O)[C@@H]1[C@@H](NC=2N=C(N=CC2F)C3=CNC=4N=CC(F)=CC34)C5CCC1CC5

> <MDLNUMBER>
MFCD31382121

> <IUPAC Name>
(2S,3S)-3-[(5-fluoro-2-{5-fluoro-1H-pyrrolo[2,3-b]pyridin-3-yl}pyrimidin-4-yl)amino]bicyclo[2.2.2]octane-2-carboxylic acid

> <CAS>
1629869-44-8

> <URL>
https://www.enaminestore.com/catalog/EN300-365064

> <ROCS_ShapeQuery>
x0446_0A_x1080_0A_x0929_0A_x0812_0A_x0719_0A_x1140_0A_x0528_0A_x0310_0A

> <ROCS_TanimotoCombo>
0.422 

> <ROCS_ShapeTanimoto>
0.266 

> <ROCS_ColorTanimoto>
0.155 

> <ROCS_RefTversky>
0.244 

> <ROCS_RefColorTversky>
0.202 

> <ROCS_RefTverskyCombo>
0.446 

> <ROCS_FitTversky>
1.508 

> <ROCS_FitColorTversky>
0.404 

> <ROCS_FitTverskyCombo>
1.912 

> <ROCS_ColorScore>
-7.292

> <ROCS_Overlap>
2892.241

> <ROCS_Rank>
167                 

$$$$
untitled-dbase-19057_2
  -OEChem-02082415563D

 49 52  0     0  0  0  0  0  0999 V2000
   10.3229   13.6148   22.8917 C   0  0  0  0  0  0  0  0  0  0  0  0
   10.6290   16.0045   21.2148 C   0  0  0  0  0  0  0  0  0  0  0  0
   13.8616   15.4656   19.4470 C   0  0  0  0  0  0  0  0  0  0  0  0
   12.4987   15.4665   18.7634 C   0  0  0  0  0  0  0  0  0  0  0  0
   13.7411   15.7617   20.9378 C   0  0  0  0  0  0  0  0  0  0  0  0
   11.5273   14.4980   19.4386 C   0  0  0  0  0  0  0  0  0  0  0  0
   12.7782   14.7973   21.6308 C   0  0  0  0  0  0  0  0  0  0  0  0
    9.2032    9.9560   24.8859 C   0  0  0  0  0  0  0  0  0  0  0  0
    7.0791   11.2175   24.4517 C   0  0  0  0  0  0  0  0  0  0  0  0
    8.1464    9.8887   22.6120 C   0  0  0  0  0  0  0  0  0  0  0  0
    9.2276   12.4624   24.8017 C   0  0  0  0  0  0  0  0  0  0  0  0
   10.2966   11.1312   22.9588 C   0  0  0  0  0  0  0  0  0  0  0  0
    8.1702   12.3955   22.5243 C   0  0  0  0  0  0  0  0  0  0  0  0
    8.4096   11.2298   25.2245 C   0  0  0  0  0  0  0  0  0  0  0  0
    9.4829    9.8932   23.3744 C   0  0  0  0  0  0  0  0  0  0  0  0
    7.3472   11.1626   22.9375 C   0  0  0  0  0  0  0  0  0  0  0  0
    9.5097   12.4158   23.2866 C   0  0  0  0  0  0  0  0  0  0  0  0
   11.4041   14.7408   20.9498 C   0  0  0  0  0  0  0  0  0  0  0  0
   10.6294   13.6680   21.5453 N   0  0  0  0  0  0  0  0  0  0  0  0
   10.6474   14.4324   23.7449 O   0  0  0  0  0  0  0  0  0  0  0  0
   11.1190   17.1187   21.3232 O   0  0  0  0  0  0  0  0  0  0  0  0
    9.3038   15.7399   21.3208 O   0  0  0  0  0  0  0  0  0  0  0  0
   14.3406   14.4889   19.3060 H   0  0  0  0  0  0  0  0  0  0  0  0
   14.5114   16.2109   18.9746 H   0  0  0  0  0  0  0  0  0  0  0  0
   12.0814   16.4807   18.7803 H   0  0  0  0  0  0  0  0  0  0  0  0
   12.6166   15.1908   17.7092 H   0  0  0  0  0  0  0  0  0  0  0  0
   14.7293   15.6922   21.4070 H   0  0  0  0  0  0  0  0  0  0  0  0
   13.3961   16.7930   21.0789 H   0  0  0  0  0  0  0  0  0  0  0  0
   10.5492   14.5843   18.9482 H   0  0  0  0  0  0  0  0  0  0  0  0
   11.8817   13.4735   19.2617 H   0  0  0  0  0  0  0  0  0  0  0  0
   13.2292   13.7959   21.6250 H   0  0  0  0  0  0  0  0  0  0  0  0
   12.6812   15.0947   22.6826 H   0  0  0  0  0  0  0  0  0  0  0  0
   10.1485    9.9450   25.4423 H   0  0  0  0  0  0  0  0  0  0  0  0
    8.6384    9.0694   25.1988 H   0  0  0  0  0  0  0  0  0  0  0  0
    6.4772   10.3527   24.7569 H   0  0  0  0  0  0  0  0  0  0  0  0
    6.4959   12.1137   24.6963 H   0  0  0  0  0  0  0  0  0  0  0  0
    8.3312    9.8282   21.5323 H   0  0  0  0  0  0  0  0  0  0  0  0
    7.5630    9.0008   22.8848 H   0  0  0  0  0  0  0  0  0  0  0  0
    8.6830   13.3800   25.0603 H   0  0  0  0  0  0  0  0  0  0  0  0
   10.1692   12.4956   25.3656 H   0  0  0  0  0  0  0  0  0  0  0  0
   11.2646   11.1319   23.4772 H   0  0  0  0  0  0  0  0  0  0  0  0
   10.5241   11.0867   21.8856 H   0  0  0  0  0  0  0  0  0  0  0  0
    8.3468   12.3804   21.4408 H   0  0  0  0  0  0  0  0  0  0  0  0
    7.5996   13.3108   22.7296 H   0  0  0  0  0  0  0  0  0  0  0  0
    8.2121   11.2679   26.3013 H   0  0  0  0  0  0  0  0  0  0  0  0
   10.0464    8.9835   23.1394 H   0  0  0  0  0  0  0  0  0  0  0  0
    6.3965   11.1528   22.3931 H   0  0  0  0  0  0  0  0  0  0  0  0
   10.2965   12.9206   20.9438 H   0  0  0  0  0  0  0  0  0  0  0  0
    8.7811   16.5514   21.4956 H   0  0  0  0  0  0  0  0  0  0  0  0
  1 17  1  0  0  0  0
  1 19  1  0  0  0  0
  1 20  2  0  0  0  0
  2 18  1  0  0  0  0
  2 21  2  0  0  0  0
  2 22  1  0  0  0  0
  3  4  1  0  0  0  0
  3  5  1  0  0  0  0
  4  6  1  0  0  0  0
  5  7  1  0  0  0  0
  6 18  1  0  0  0  0
  7 18  1  0  0  0  0
  8 14  1  0  0  0  0
  8 15  1  0  0  0  0
  9 14  1  0  0  0  0
  9 16  1  0  0  0  0
 10 15  1  0  0  0  0
 10 16  1  0  0  0  0
 11 14  1  0  0  0  0
 11 17  1  0  0  0  0
 12 15  1  0  0  0  0
 12 17  1  0  0  0  0
 13 16  1  0  0  0  0
 13 17  1  0  0  0  0
 18 19  1  0  0  0  0
  3 23  1  0  0  0  0
  3 24  1  0  0  0  0
  4 25  1  0  0  0  0
  4 26  1  0  0  0  0
  5 27  1  0  0  0  0
  5 28  1  0  0  0  0
  6 29  1  0  0  0  0
  6 30  1  0  0  0  0
  7 31  1  0  0  0  0
  7 32  1  0  0  0  0
  8 33  1  0  0  0  0
  8 34  1  0  0  0  0
  9 35  1  0  0  0  0
  9 36  1  0  0  0  0
 10 37  1  0  0  0  0
 10 38  1  0  0  0  0
 11 39  1  0  0  0  0
 11 40  1  0  0  0  0
 12 41  1  0  0  0  0
 12 42  1  0  0  0  0
 13 43  1  0  0  0  0
 13 44  1  0  0  0  0
 14 45  1  0  0  0  0
 15 46  1  0  0  0  0
 16 47  1  0  0  0  0
 19 48  1  0  0  0  0
 22 49  1  0  0  0  0
M  END
> <id>
EN300-12482

> <smiles>
OC(=O)C1(CCCCC1)NC(=O)C2(CC3CC4CC(C3)C2)C4

> <IUPAC Name>
1-(adamantane-1-amido)cyclohexane-1-carboxylic acid

> <CAS>
885461-56-3

> <URL>
https://www.enaminestore.com/catalog/EN300-12482

> <ROCS_ShapeQuery>
x0446_0A_x1080_0A_x0929_0A_x0812_0A_x0719_0A_x1140_0A_x0528_0A_x0310_0A

> <ROCS_TanimotoCombo>
0.422 

> <ROCS_ShapeTanimoto>
0.229 

> <ROCS_ColorTanimoto>
0.192 

> <ROCS_RefTversky>
0.211 

> <ROCS_RefColorTversky>
0.223 

> <ROCS_RefTverskyCombo>
0.434 

> <ROCS_FitTversky>
1.591 

> <ROCS_FitColorTversky>
0.585 

> <ROCS_FitTverskyCombo>
2.176 

> <ROCS_ColorScore>
-8.019

> <ROCS_Overlap>
2494.216

> <ROCS_Rank>
168                 

$$$$
untitled-dbase-94053_3
  -OEChem-02082415563D

 48 53  0     1  0  0  0  0  0999 V2000
    6.6448   13.0247   25.6553 C   0  0  0  0  0  0  0  0  0  0  0  0
    5.8008   13.9397   24.9884 C   0  0  0  0  0  0  0  0  0  0  0  0
    7.6169   12.3204   24.9456 C   0  0  0  0  0  0  0  0  0  0  0  0
    7.6851   12.5552   23.5843 C   0  0  0  0  0  0  0  0  0  0  0  0
    6.9126   13.4977   22.9368 C   0  0  0  0  0  0  0  0  0  0  0  0
    5.9376   14.1921   23.6151 C   0  0  0  0  0  0  0  0  0  0  0  0
    9.6391   14.1281   21.8230 C   0  0  0  0  0  0  0  0  0  0  0  0
    8.6431   11.4133   25.5759 C   0  0  0  0  0  0  0  0  0  0  0  0
   10.9496   13.7346   22.4669 C   0  0  0  0  0  0  0  0  0  0  0  0
   10.7154   12.8613   23.6993 C   0  0  0  0  0  0  0  0  0  0  0  0
   11.6960    6.7908   24.5992 C   0  0  0  0  0  0  0  0  0  0  0  0
   12.1416    8.1985   24.8816 C   0  0  0  0  0  0  0  0  0  0  0  0
    7.9829   10.5913   22.1036 C   0  0  0  0  0  0  0  0  0  0  0  0
    7.7797    9.5613   23.2295 C   0  0  0  0  0  0  0  0  0  0  0  0
    8.6079   13.0235   21.5701 C   0  0  1  0  0  0  0  0  0  0  0  0
   10.6752    7.8699   24.8327 C   0  0  0  0  0  0  0  0  0  0  0  0
    9.5747   10.6734   24.5482 C   0  0  2  0  0  0  0  0  0  0  0  0
    8.6182   11.9029   22.6219 C   0  0  1  0  0  0  0  0  0  0  0  0
    9.9413   11.5818   23.3260 C   0  0  1  0  0  0  0  0  0  0  0  0
    9.8328    8.3636   23.7061 C   0  0  0  0  0  0  0  0  0  0  0  0
    8.9101    9.4017   24.1541 N   0  0  2  0  0  0  0  0  0  0  0  0
    9.4448   15.2870   21.4519 O   0  0  0  0  0  0  0  0  0  0  0  0
    7.2899   13.6590   21.6237 O   0  0  0  0  0  0  0  0  0  0  0  0
    5.1562   15.1101   22.9960 O   0  0  0  0  0  0  0  0  0  0  0  0
   10.7957   10.8661   22.4261 O   0  0  0  0  0  0  0  0  0  0  0  0
    6.5413   12.8894   26.7283 H   0  0  0  0  0  0  0  0  0  0  0  0
    5.0514   14.4789   25.5637 H   0  0  0  0  0  0  0  0  0  0  0  0
    9.2839   12.0397   26.2087 H   0  0  0  0  0  0  0  0  0  0  0  0
    8.1465   10.7061   26.2451 H   0  0  0  0  0  0  0  0  0  0  0  0
   11.5638   13.2259   21.7160 H   0  0  0  0  0  0  0  0  0  0  0  0
   11.4793   14.6465   22.7665 H   0  0  0  0  0  0  0  0  0  0  0  0
   11.6915   12.5920   24.1210 H   0  0  0  0  0  0  0  0  0  0  0  0
   10.1881   13.4469   24.4597 H   0  0  0  0  0  0  0  0  0  0  0  0
   11.8302    6.4123   23.5935 H   0  0  0  0  0  0  0  0  0  0  0  0
   11.8354    6.0520   25.3789 H   0  0  0  0  0  0  0  0  0  0  0  0
   12.5796    8.4038   25.8507 H   0  0  0  0  0  0  0  0  0  0  0  0
   12.5746    8.7628   24.0649 H   0  0  0  0  0  0  0  0  0  0  0  0
    8.6233   10.1558   21.3262 H   0  0  0  0  0  0  0  0  0  0  0  0
    7.0131   10.7790   21.6246 H   0  0  0  0  0  0  0  0  0  0  0  0
    6.8558    9.8082   23.7916 H   0  0  0  0  0  0  0  0  0  0  0  0
    7.5625    8.5854   22.7512 H   0  0  0  0  0  0  0  0  0  0  0  0
    8.7752   12.6399   20.5583 H   0  0  0  0  0  0  0  0  0  0  0  0
   10.1320    7.8533   25.7698 H   0  0  0  0  0  0  0  0  0  0  0  0
   10.4821   10.3982   25.0897 H   0  0  0  0  0  0  0  0  0  0  0  0
   10.4862    8.7773   22.9237 H   0  0  0  0  0  0  0  0  0  0  0  0
    9.2551    7.5229   23.2945 H   0  0  0  0  0  0  0  0  0  0  0  0
    4.5419   15.5194   23.6292 H   0  0  0  0  0  0  0  0  0  0  0  0
   11.6065   10.6862   22.9198 H   0  0  0  0  0  0  0  0  0  0  0  0
  1  2  2  0  0  0  0
  1  3  1  0  0  0  0
  2  6  1  0  0  0  0
  3  4  2  0  0  0  0
  3  8  1  0  0  0  0
  4  5  1  0  0  0  0
  4 18  1  1  0  0  0
  5  6  2  0  0  0  0
  5 23  1  0  0  0  0
  6 24  1  0  0  0  0
  7  9  1  0  0  0  0
  7 15  1  0  0  0  0
  7 22  2  0  0  0  0
  8 17  1  0  0  0  0
  9 10  1  0  0  0  0
 10 19  1  0  0  0  0
 11 12  1  0  0  0  0
 11 16  1  0  0  0  0
 12 16  1  0  0  0  0
 13 14  1  0  0  0  0
 13 18  1  0  0  0  0
 14 21  1  0  0  0  0
 15 18  1  0  0  0  0
 15 23  1  6  0  0  0
 16 20  1  0  0  0  0
 17 19  1  0  0  0  0
 17 21  1  1  0  0  0
 18 19  1  0  0  0  0
 19 25  1  1  0  0  0
 20 21  1  0  0  0  0
  1 26  1  0  0  0  0
  2 27  1  0  0  0  0
  8 28  1  0  0  0  0
  8 29  1  0  0  0  0
  9 30  1  0  0  0  0
  9 31  1  0  0  0  0
 10 32  1  0  0  0  0
 10 33  1  0  0  0  0
 11 34  1  0  0  0  0
 11 35  1  0  0  0  0
 12 36  1  0  0  0  0
 12 37  1  0  0  0  0
 13 38  1  0  0  0  0
 13 39  1  0  0  0  0
 14 40  1  0  0  0  0
 14 41  1  0  0  0  0
 15 42  1  0  0  0  0
 16 43  1  0  0  0  0
 17 44  1  0  0  0  0
 20 45  1  0  0  0  0
 20 46  1  0  0  0  0
 24 47  1  0  0  0  0
 25 48  1  0  0  0  0
M  END
> <id>
EN300-123642

> <smiles>
Cl.OC=1C=CC=2C[C@H]3N(CC4CC4)CC[C@]5([C@H]6OC1C25)[C@@]3(O)CCC6=O

> <MDLNUMBER>
MFCD00069324

> <IUPAC Name>
(1S,5R,13R,17S)-4-(cyclopropylmethyl)-10,17-dihydroxy-12-oxa-4-azapentacyclo[9.6.1.0^{1,13}.0^{5,17}.0^{7,18}]octadeca-7(18),8,10-trien-14-one hydrochloride

> <CAS>
16676-29-2

> <Purity>
93

> <URL>
https://www.enaminestore.com/catalog/EN300-123642

> <Saltdate>
Cl

> <MP>
178-179

> <ROCS_ShapeQuery>
x0446_0A_x1080_0A_x0929_0A_x0812_0A_x0719_0A_x1140_0A_x0528_0A_x0310_0A

> <ROCS_TanimotoCombo>
0.422 

> <ROCS_ShapeTanimoto>
0.263 

> <ROCS_ColorTanimoto>
0.159 

> <ROCS_RefTversky>
0.239 

> <ROCS_RefColorTversky>
0.189 

> <ROCS_RefTverskyCombo>
0.428 

> <ROCS_FitTversky>
1.620 

> <ROCS_FitColorTversky>
0.498 

> <ROCS_FitTverskyCombo>
2.118 

> <ROCS_ColorScore>
-6.798

> <ROCS_Overlap>
2822.281

> <ROCS_Rank>
169                 

$$$$
untitled-dbase-275210_3
  -OEChem-02082415563D

 48 53  0     1  0  0  0  0  0999 V2000
    6.6448   13.0247   25.6553 C   0  0  0  0  0  0  0  0  0  0  0  0
    5.8008   13.9397   24.9884 C   0  0  0  0  0  0  0  0  0  0  0  0
    7.6169   12.3204   24.9456 C   0  0  0  0  0  0  0  0  0  0  0  0
    7.6851   12.5552   23.5843 C   0  0  0  0  0  0  0  0  0  0  0  0
    6.9126   13.4977   22.9368 C   0  0  0  0  0  0  0  0  0  0  0  0
    5.9376   14.1921   23.6151 C   0  0  0  0  0  0  0  0  0  0  0  0
    9.6391   14.1281   21.8230 C   0  0  0  0  0  0  0  0  0  0  0  0
    8.6431   11.4133   25.5759 C   0  0  0  0  0  0  0  0  0  0  0  0
   10.9496   13.7346   22.4669 C   0  0  0  0  0  0  0  0  0  0  0  0
   10.7154   12.8613   23.6993 C   0  0  0  0  0  0  0  0  0  0  0  0
   11.6960    6.7908   24.5992 C   0  0  0  0  0  0  0  0  0  0  0  0
   12.1416    8.1985   24.8816 C   0  0  0  0  0  0  0  0  0  0  0  0
    7.9829   10.5913   22.1036 C   0  0  0  0  0  0  0  0  0  0  0  0
    7.7797    9.5613   23.2295 C   0  0  0  0  0  0  0  0  0  0  0  0
    8.6079   13.0235   21.5701 C   0  0  1  0  0  0  0  0  0  0  0  0
   10.6752    7.8699   24.8327 C   0  0  0  0  0  0  0  0  0  0  0  0
    9.5747   10.6734   24.5482 C   0  0  2  0  0  0  0  0  0  0  0  0
    8.6182   11.9029   22.6219 C   0  0  1  0  0  0  0  0  0  0  0  0
    9.9413   11.5818   23.3260 C   0  0  1  0  0  0  0  0  0  0  0  0
    9.8328    8.3636   23.7061 C   0  0  0  0  0  0  0  0  0  0  0  0
    8.9101    9.4017   24.1541 N   0  0  2  0  0  0  0  0  0  0  0  0
    9.4448   15.2870   21.4519 O   0  0  0  0  0  0  0  0  0  0  0  0
    7.2899   13.6590   21.6237 O   0  0  0  0  0  0  0  0  0  0  0  0
    5.1562   15.1101   22.9960 O   0  0  0  0  0  0  0  0  0  0  0  0
   10.7957   10.8661   22.4261 O   0  0  0  0  0  0  0  0  0  0  0  0
    6.5413   12.8894   26.7283 H   0  0  0  0  0  0  0  0  0  0  0  0
    5.0514   14.4789   25.5637 H   0  0  0  0  0  0  0  0  0  0  0  0
    9.2839   12.0397   26.2087 H   0  0  0  0  0  0  0  0  0  0  0  0
    8.1465   10.7061   26.2451 H   0  0  0  0  0  0  0  0  0  0  0  0
   11.5638   13.2259   21.7160 H   0  0  0  0  0  0  0  0  0  0  0  0
   11.4793   14.6465   22.7665 H   0  0  0  0  0  0  0  0  0  0  0  0
   11.6915   12.5920   24.1210 H   0  0  0  0  0  0  0  0  0  0  0  0
   10.1881   13.4469   24.4597 H   0  0  0  0  0  0  0  0  0  0  0  0
   11.8302    6.4123   23.5935 H   0  0  0  0  0  0  0  0  0  0  0  0
   11.8354    6.0520   25.3789 H   0  0  0  0  0  0  0  0  0  0  0  0
   12.5796    8.4038   25.8507 H   0  0  0  0  0  0  0  0  0  0  0  0
   12.5746    8.7628   24.0649 H   0  0  0  0  0  0  0  0  0  0  0  0
    8.6233   10.1558   21.3262 H   0  0  0  0  0  0  0  0  0  0  0  0
    7.0131   10.7790   21.6246 H   0  0  0  0  0  0  0  0  0  0  0  0
    6.8558    9.8082   23.7916 H   0  0  0  0  0  0  0  0  0  0  0  0
    7.5625    8.5854   22.7512 H   0  0  0  0  0  0  0  0  0  0  0  0
    8.7752   12.6399   20.5583 H   0  0  0  0  0  0  0  0  0  0  0  0
   10.1320    7.8533   25.7698 H   0  0  0  0  0  0  0  0  0  0  0  0
   10.4821   10.3982   25.0897 H   0  0  0  0  0  0  0  0  0  0  0  0
   10.4862    8.7773   22.9237 H   0  0  0  0  0  0  0  0  0  0  0  0
    9.2551    7.5229   23.2945 H   0  0  0  0  0  0  0  0  0  0  0  0
    4.5419   15.5194   23.6292 H   0  0  0  0  0  0  0  0  0  0  0  0
   11.6065   10.6862   22.9198 H   0  0  0  0  0  0  0  0  0  0  0  0
  1  2  2  0  0  0  0
  1  3  1  0  0  0  0
  2  6  1  0  0  0  0
  3  4  2  0  0  0  0
  3  8  1  0  0  0  0
  4  5  1  0  0  0  0
  4 18  1  1  0  0  0
  5  6  2  0  0  0  0
  5 23  1  0  0  0  0
  6 24  1  0  0  0  0
  7  9  1  0  0  0  0
  7 15  1  0  0  0  0
  7 22  2  0  0  0  0
  8 17  1  0  0  0  0
  9 10  1  0  0  0  0
 10 19  1  0  0  0  0
 11 12  1  0  0  0  0
 11 16  1  0  0  0  0
 12 16  1  0  0  0  0
 13 14  1  0  0  0  0
 13 18  1  0  0  0  0
 14 21  1  0  0  0  0
 15 18  1  0  0  0  0
 15 23  1  6  0  0  0
 16 20  1  0  0  0  0
 17 19  1  0  0  0  0
 17 21  1  1  0  0  0
 18 19  1  0  0  0  0
 19 25  1  1  0  0  0
 20 21  1  0  0  0  0
  1 26  1  0  0  0  0
  2 27  1  0  0  0  0
  8 28  1  0  0  0  0
  8 29  1  0  0  0  0
  9 30  1  0  0  0  0
  9 31  1  0  0  0  0
 10 32  1  0  0  0  0
 10 33  1  0  0  0  0
 11 34  1  0  0  0  0
 11 35  1  0  0  0  0
 12 36  1  0  0  0  0
 12 37  1  0  0  0  0
 13 38  1  0  0  0  0
 13 39  1  0  0  0  0
 14 40  1  0  0  0  0
 14 41  1  0  0  0  0
 15 42  1  0  0  0  0
 16 43  1  0  0  0  0
 17 44  1  0  0  0  0
 20 45  1  0  0  0  0
 20 46  1  0  0  0  0
 24 47  1  0  0  0  0
 25 48  1  0  0  0  0
M  END
> <id>
EN300-19748946

> <smiles>
OC=1C=CC=2C[C@H]3N(CC4CC4)CC[C@]5([C@H]6OC1C25)[C@@]3(O)CCC6=O

> <MDLNUMBER>
MFCD10090595

> <IUPAC Name>
(1S,5R,13R,17S)-4-(cyclopropylmethyl)-10,17-dihydroxy-12-oxa-4-azapentacyclo[9.6.1.0^{1,13}.0^{5,17}.0^{7,18}]octadeca-7(18),8,10-trien-14-one

> <CAS>
16590-41-3

> <URL>
https://www.enaminestore.com/catalog/EN300-19748946

> <MP>
168-170

> <ROCS_ShapeQuery>
x0446_0A_x1080_0A_x0929_0A_x0812_0A_x0719_0A_x1140_0A_x0528_0A_x0310_0A

> <ROCS_TanimotoCombo>
0.422 

> <ROCS_ShapeTanimoto>
0.263 

> <ROCS_ColorTanimoto>
0.159 

> <ROCS_RefTversky>
0.239 

> <ROCS_RefColorTversky>
0.189 

> <ROCS_RefTverskyCombo>
0.428 

> <ROCS_FitTversky>
1.620 

> <ROCS_FitColorTversky>
0.498 

> <ROCS_FitTverskyCombo>
2.118 

> <ROCS_ColorScore>
-6.798

> <ROCS_Overlap>
2822.281

> <ROCS_Rank>
170                 

$$$$
untitled-dbase-324194_6
  -OEChem-02082415563D

 39 42  0     1  0  0  0  0  0999 V2000
   11.1496   14.7167   21.0875 C   0  0  0  0  0  0  0  0  0  0  0  0
   12.6849   14.7297   22.9529 C   0  0  0  0  0  0  0  0  0  0  0  0
   11.2954   16.0978   20.9579 C   0  0  0  0  0  0  0  0  0  0  0  0
   12.8307   16.1108   22.8233 C   0  0  0  0  0  0  0  0  0  0  0  0
   11.8443   14.0326   22.0851 C   0  0  0  0  0  0  0  0  0  0  0  0
   12.1359   16.7949   21.8257 C   0  0  0  0  0  0  0  0  0  0  0  0
    9.5055   11.3565   22.1833 C   0  0  0  0  0  0  0  0  0  0  0  0
   10.0288   12.6603   24.0854 C   0  0  0  0  0  0  0  0  0  0  0  0
    8.1841    9.9451   24.0302 C   0  0  0  0  0  0  0  0  0  0  0  0
    8.5221   10.7923   25.2648 C   0  0  0  0  0  0  0  0  0  0  0  0
    6.9547   11.7879   22.6131 C   0  0  0  0  0  0  0  0  0  0  0  0
    7.4690   13.0708   24.4813 C   0  0  0  0  0  0  0  0  0  0  0  0
    8.2639   11.2039   23.1351 C   0  0  2  0  0  0  0  0  0  0  0  0
    8.6067   12.0592   24.3816 C   0  0  1  0  0  0  0  0  0  0  0  0
   11.5404   18.7781   20.6561 C   0  0  0  0  0  0  0  0  0  0  0  0
   11.6880   12.5459   22.2243 C   0  0  0  0  0  0  0  0  0  0  0  0
    6.3462   12.4892   23.7444 N   0  0  0  0  0  0  0  0  0  0  0  0
   10.4197   12.1877   22.8323 N   0  0  0  0  0  0  0  0  0  0  0  0
    9.6505   10.8529   21.0730 O   0  0  0  0  0  0  0  0  0  0  0  0
   10.6749   13.4119   24.8101 O   0  0  0  0  0  0  0  0  0  0  0  0
   12.2790   18.1424   21.6983 O   0  0  0  0  0  0  0  0  0  0  0  0
   10.4926   14.1817   20.4071 H   0  0  0  0  0  0  0  0  0  0  0  0
   13.2301   14.2049   23.7332 H   0  0  0  0  0  0  0  0  0  0  0  0
   10.7516   16.6251   20.1785 H   0  0  0  0  0  0  0  0  0  0  0  0
   13.4871   16.6479   23.5021 H   0  0  0  0  0  0  0  0  0  0  0  0
    8.9323    9.1782   23.8027 H   0  0  0  0  0  0  0  0  0  0  0  0
    7.2010    9.4645   24.0683 H   0  0  0  0  0  0  0  0  0  0  0  0
    7.7372   10.8105   26.0280 H   0  0  0  0  0  0  0  0  0  0  0  0
    9.4640   10.5121   25.7485 H   0  0  0  0  0  0  0  0  0  0  0  0
    7.1436   12.5046   21.8047 H   0  0  0  0  0  0  0  0  0  0  0  0
    6.2867   11.0127   22.2257 H   0  0  0  0  0  0  0  0  0  0  0  0
    7.1932   13.2758   25.5202 H   0  0  0  0  0  0  0  0  0  0  0  0
    7.7522   14.0217   24.0135 H   0  0  0  0  0  0  0  0  0  0  0  0
   11.7455   19.8514   20.6656 H   0  0  0  0  0  0  0  0  0  0  0  0
   10.4724   18.5991   20.8038 H   0  0  0  0  0  0  0  0  0  0  0  0
   11.8487   18.3590   19.6953 H   0  0  0  0  0  0  0  0  0  0  0  0
   11.7421   12.0585   21.2447 H   0  0  0  0  0  0  0  0  0  0  0  0
   12.4869   12.1229   22.8425 H   0  0  0  0  0  0  0  0  0  0  0  0
    5.7065   13.2133   23.4232 H   0  0  0  0  0  0  0  0  0  0  0  0
  1  3  2  0  0  0  0
  1  5  1  0  0  0  0
  2  4  1  0  0  0  0
  2  5  2  0  0  0  0
  3  6  1  0  0  0  0
  4  6  2  0  0  0  0
  5 16  1  0  0  0  0
  6 21  1  0  0  0  0
  7 13  1  0  0  0  0
  7 18  1  0  0  0  0
  7 19  2  0  0  0  0
  8 14  1  0  0  0  0
  8 18  1  0  0  0  0
  8 20  2  0  0  0  0
  9 10  1  0  0  0  0
  9 13  1  0  0  0  0
 10 14  1  0  0  0  0
 11 13  1  0  0  0  0
 11 17  1  0  0  0  0
 12 14  1  0  0  0  0
 12 17  1  0  0  0  0
 13 14  1  0  0  0  0
 15 21  1  0  0  0  0
 16 18  1  0  0  0  0
  1 22  1  0  0  0  0
  2 23  1  0  0  0  0
  3 24  1  0  0  0  0
  4 25  1  0  0  0  0
  9 26  1  0  0  0  0
  9 27  1  0  0  0  0
 10 28  1  0  0  0  0
 10 29  1  0  0  0  0
 11 30  1  0  0  0  0
 11 31  1  0  0  0  0
 12 32  1  0  0  0  0
 12 33  1  0  0  0  0
 15 34  1  0  0  0  0
 15 35  1  0  0  0  0
 15 36  1  0  0  0  0
 16 37  1  0  0  0  0
 16 38  1  0  0  0  0
 17 39  1  0  0  0  0
M  END
> <id>
EN300-7425917

> <smiles>
COC=1C=CC(CN2C(=O)C34CCC4(CNC3)C2=O)=CC1

> <MDLNUMBER>
MFCD32069330

> <IUPAC Name>
3-[(4-methoxyphenyl)methyl]-3,7-diazatricyclo[3.3.2.0,1,5]decane-2,4-dione

> <CAS>
2375261-20-2

> <URL>
https://www.enaminestore.com/catalog/EN300-7425917

> <ROCS_ShapeQuery>
x0446_0A_x1080_0A_x0929_0A_x0812_0A_x0719_0A_x1140_0A_x0528_0A_x0310_0A

> <ROCS_TanimotoCombo>
0.422 

> <ROCS_ShapeTanimoto>
0.232 

> <ROCS_ColorTanimoto>
0.190 

> <ROCS_RefTversky>
0.212 

> <ROCS_RefColorTversky>
0.236 

> <ROCS_RefTverskyCombo>
0.449 

> <ROCS_FitTversky>
1.631 

> <ROCS_FitColorTversky>
0.493 

> <ROCS_FitTverskyCombo>
2.124 

> <ROCS_ColorScore>
-8.541

> <ROCS_Overlap>
2509.797

> <ROCS_Rank>
171                 

$$$$
untitled-dbase-447093_6
  -OEChem-02082415563D

 39 42  0     1  0  0  0  0  0999 V2000
   11.1496   14.7167   21.0875 C   0  0  0  0  0  0  0  0  0  0  0  0
   12.6849   14.7297   22.9529 C   0  0  0  0  0  0  0  0  0  0  0  0
   11.2954   16.0978   20.9579 C   0  0  0  0  0  0  0  0  0  0  0  0
   12.8307   16.1108   22.8233 C   0  0  0  0  0  0  0  0  0  0  0  0
   11.8443   14.0326   22.0851 C   0  0  0  0  0  0  0  0  0  0  0  0
   12.1359   16.7949   21.8257 C   0  0  0  0  0  0  0  0  0  0  0  0
    9.5055   11.3565   22.1833 C   0  0  0  0  0  0  0  0  0  0  0  0
   10.0288   12.6603   24.0854 C   0  0  0  0  0  0  0  0  0  0  0  0
    8.1841    9.9451   24.0302 C   0  0  0  0  0  0  0  0  0  0  0  0
    8.5221   10.7923   25.2648 C   0  0  0  0  0  0  0  0  0  0  0  0
    6.9547   11.7879   22.6131 C   0  0  0  0  0  0  0  0  0  0  0  0
    7.4690   13.0708   24.4813 C   0  0  0  0  0  0  0  0  0  0  0  0
    8.2639   11.2039   23.1351 C   0  0  2  0  0  0  0  0  0  0  0  0
    8.6067   12.0592   24.3816 C   0  0  1  0  0  0  0  0  0  0  0  0
   11.5404   18.7781   20.6561 C   0  0  0  0  0  0  0  0  0  0  0  0
   11.6880   12.5459   22.2243 C   0  0  0  0  0  0  0  0  0  0  0  0
    6.3462   12.4892   23.7444 N   0  0  0  0  0  0  0  0  0  0  0  0
   10.4197   12.1877   22.8323 N   0  0  0  0  0  0  0  0  0  0  0  0
    9.6505   10.8529   21.0730 O   0  0  0  0  0  0  0  0  0  0  0  0
   10.6749   13.4119   24.8101 O   0  0  0  0  0  0  0  0  0  0  0  0
   12.2790   18.1424   21.6983 O   0  0  0  0  0  0  0  0  0  0  0  0
   10.4926   14.1817   20.4071 H   0  0  0  0  0  0  0  0  0  0  0  0
   13.2301   14.2049   23.7332 H   0  0  0  0  0  0  0  0  0  0  0  0
   10.7516   16.6251   20.1785 H   0  0  0  0  0  0  0  0  0  0  0  0
   13.4871   16.6479   23.5021 H   0  0  0  0  0  0  0  0  0  0  0  0
    8.9323    9.1782   23.8027 H   0  0  0  0  0  0  0  0  0  0  0  0
    7.2010    9.4645   24.0683 H   0  0  0  0  0  0  0  0  0  0  0  0
    7.7372   10.8105   26.0280 H   0  0  0  0  0  0  0  0  0  0  0  0
    9.4640   10.5121   25.7485 H   0  0  0  0  0  0  0  0  0  0  0  0
    7.1436   12.5046   21.8047 H   0  0  0  0  0  0  0  0  0  0  0  0
    6.2867   11.0127   22.2257 H   0  0  0  0  0  0  0  0  0  0  0  0
    7.1932   13.2758   25.5202 H   0  0  0  0  0  0  0  0  0  0  0  0
    7.7522   14.0217   24.0135 H   0  0  0  0  0  0  0  0  0  0  0  0
   11.7455   19.8514   20.6656 H   0  0  0  0  0  0  0  0  0  0  0  0
   10.4724   18.5991   20.8038 H   0  0  0  0  0  0  0  0  0  0  0  0
   11.8487   18.3590   19.6953 H   0  0  0  0  0  0  0  0  0  0  0  0
   11.7421   12.0585   21.2447 H   0  0  0  0  0  0  0  0  0  0  0  0
   12.4869   12.1229   22.8425 H   0  0  0  0  0  0  0  0  0  0  0  0
    5.7065   13.2133   23.4232 H   0  0  0  0  0  0  0  0  0  0  0  0
  1  3  2  0  0  0  0
  1  5  1  0  0  0  0
  2  4  1  0  0  0  0
  2  5  2  0  0  0  0
  3  6  1  0  0  0  0
  4  6  2  0  0  0  0
  5 16  1  0  0  0  0
  6 21  1  0  0  0  0
  7 13  1  0  0  0  0
  7 18  1  0  0  0  0
  7 19  2  0  0  0  0
  8 14  1  0  0  0  0
  8 18  1  0  0  0  0
  8 20  2  0  0  0  0
  9 10  1  0  0  0  0
  9 13  1  0  0  0  0
 10 14  1  0  0  0  0
 11 13  1  0  0  0  0
 11 17  1  0  0  0  0
 12 14  1  0  0  0  0
 12 17  1  0  0  0  0
 13 14  1  0  0  0  0
 15 21  1  0  0  0  0
 16 18  1  0  0  0  0
  1 22  1  0  0  0  0
  2 23  1  0  0  0  0
  3 24  1  0  0  0  0
  4 25  1  0  0  0  0
  9 26  1  0  0  0  0
  9 27  1  0  0  0  0
 10 28  1  0  0  0  0
 10 29  1  0  0  0  0
 11 30  1  0  0  0  0
 11 31  1  0  0  0  0
 12 32  1  0  0  0  0
 12 33  1  0  0  0  0
 15 34  1  0  0  0  0
 15 35  1  0  0  0  0
 15 36  1  0  0  0  0
 16 37  1  0  0  0  0
 16 38  1  0  0  0  0
 17 39  1  0  0  0  0
M  END
> <id>
EN300-7427356

> <smiles>
Cl.COC=1C=CC(CN2C(=O)C34CCC4(CNC3)C2=O)=CC1

> <MDLNUMBER>
MFCD32068598

> <IUPAC Name>
3-[(4-methoxyphenyl)methyl]-3,7-diazatricyclo[3.3.2.0,1,5]decane-2,4-dione hydrochloride

> <CAS>
2375261-33-7

> <Purity>
95

> <URL>
https://www.enaminestore.com/catalog/EN300-7427356

> <ROCS_ShapeQuery>
x0446_0A_x1080_0A_x0929_0A_x0812_0A_x0719_0A_x1140_0A_x0528_0A_x0310_0A

> <ROCS_TanimotoCombo>
0.422 

> <ROCS_ShapeTanimoto>
0.232 

> <ROCS_ColorTanimoto>
0.190 

> <ROCS_RefTversky>
0.212 

> <ROCS_RefColorTversky>
0.236 

> <ROCS_RefTverskyCombo>
0.449 

> <ROCS_FitTversky>
1.631 

> <ROCS_FitColorTversky>
0.493 

> <ROCS_FitTverskyCombo>
2.124 

> <ROCS_ColorScore>
-8.541

> <ROCS_Overlap>
2509.797

> <ROCS_Rank>
172                 

$$$$
untitled-dbase-287334_2
  -OEChem-02082415563D

 34 37  0     0  0  0  0  0  0999 V2000
   14.3588   17.3064   21.2863 C   0  0  0  0  0  0  0  0  0  0  0  0
   13.3391   17.7461   20.4161 C   0  0  0  0  0  0  0  0  0  0  0  0
   14.1086   16.3298   22.2549 C   0  0  0  0  0  0  0  0  0  0  0  0
   12.0467   17.2189   20.4954 C   0  0  0  0  0  0  0  0  0  0  0  0
    9.2425   10.2221   23.4146 C   0  0  0  0  0  0  0  0  0  0  0  0
   12.8285   15.8204   22.3146 C   0  0  0  0  0  0  0  0  0  0  0  0
   11.8214   16.2547   21.4553 C   0  0  0  0  0  0  0  0  0  0  0  0
    9.1704   11.5948   23.3363 C   0  0  0  0  0  0  0  0  0  0  0  0
    7.4203   10.7433   24.4002 C   0  0  0  0  0  0  0  0  0  0  0  0
   12.2562   14.8101   23.2102 C   0  0  0  0  0  0  0  0  0  0  0  0
   10.5933   15.5274   21.7915 C   0  0  0  0  0  0  0  0  0  0  0  0
   10.0806   12.5139   22.7342 C   0  0  0  0  0  0  0  0  0  0  0  0
    6.1076   10.7615   25.0963 C   0  0  0  0  0  0  0  0  0  0  0  0
    7.4496   13.2145   24.2230 C   0  0  0  0  0  0  0  0  0  0  0  0
    5.9819   13.0913   24.6138 C   0  0  0  0  0  0  0  0  0  0  0  0
    8.1541    9.6993   24.0739 N   0  0  0  0  0  0  0  0  0  0  0  0
    8.0065   11.9037   23.9657 N   0  0  0  0  0  0  0  0  0  0  0  0
   10.9685   14.6856   22.7913 N   0  0  0  0  0  0  0  0  0  0  0  0
   12.8626   14.2398   24.0956 O   0  0  0  0  0  0  0  0  0  0  0  0
    9.5197   15.6821   21.2437 O   0  0  0  0  0  0  0  0  0  0  0  0
   10.8122   12.2699   21.7449 O   0  0  0  0  0  0  0  0  0  0  0  0
    5.8459   12.0752   25.6153 O   0  0  0  0  0  0  0  0  0  0  0  0
   10.0802   13.7448   23.3570 O   0  0  0  0  0  0  0  0  0  0  0  0
   15.3536   17.7362   21.2011 H   0  0  0  0  0  0  0  0  0  0  0  0
   13.5640   18.5078   19.6740 H   0  0  0  0  0  0  0  0  0  0  0  0
   14.8919   15.9947   22.9244 H   0  0  0  0  0  0  0  0  0  0  0  0
   11.2637   17.5593   19.8285 H   0  0  0  0  0  0  0  0  0  0  0  0
   10.0207    9.5784   23.0297 H   0  0  0  0  0  0  0  0  0  0  0  0
    5.3014   10.5101   24.4010 H   0  0  0  0  0  0  0  0  0  0  0  0
    6.0927   10.0393   25.9195 H   0  0  0  0  0  0  0  0  0  0  0  0
    7.5530   13.7770   23.2884 H   0  0  0  0  0  0  0  0  0  0  0  0
    8.0291   13.7025   25.0120 H   0  0  0  0  0  0  0  0  0  0  0  0
    5.5807   14.0379   24.9961 H   0  0  0  0  0  0  0  0  0  0  0  0
    5.3838   12.7992   23.7452 H   0  0  0  0  0  0  0  0  0  0  0  0
  1  2  1  0  0  0  0
  1  3  2  0  0  0  0
  2  4  2  0  0  0  0
  3  6  1  0  0  0  0
  4  7  1  0  0  0  0
  5  8  2  0  0  0  0
  5 16  1  0  0  0  0
  6  7  2  0  0  0  0
  6 10  1  0  0  0  0
  7 11  1  0  0  0  0
  8 12  1  0  0  0  0
  8 17  1  0  0  0  0
  9 13  1  0  0  0  0
  9 16  2  0  0  0  0
  9 17  1  0  0  0  0
 10 18  1  0  0  0  0
 10 19  2  0  0  0  0
 11 18  1  0  0  0  0
 11 20  2  0  0  0  0
 12 21  2  0  0  0  0
 12 23  1  0  0  0  0
 13 22  1  0  0  0  0
 14 15  1  0  0  0  0
 14 17  1  0  0  0  0
 15 22  1  0  0  0  0
 18 23  1  0  0  0  0
  1 24  1  0  0  0  0
  2 25  1  0  0  0  0
  3 26  1  0  0  0  0
  4 27  1  0  0  0  0
  5 28  1  0  0  0  0
 13 29  1  0  0  0  0
 13 30  1  0  0  0  0
 14 31  1  0  0  0  0
 14 32  1  0  0  0  0
 15 33  1  0  0  0  0
 15 34  1  0  0  0  0
M  END
> <id>
EN300-6525453

> <smiles>
O=C(ON1C(=O)C=2C=CC=CC2C1=O)C3=CN=C4COCCN34

> <IUPAC Name>
1,3-dioxo-2,3-dihydro-1H-isoindol-2-yl 5H,6H,8H-imidazo[2,1-c][1,4]oxazine-3-carboxylate

> <CAS>
2248305-70-4

> <URL>
https://www.enaminestore.com/catalog/EN300-6525453

> <ROCS_ShapeQuery>
x0446_0A_x1080_0A_x0929_0A_x0812_0A_x0719_0A_x1140_0A_x0528_0A_x0310_0A

> <ROCS_TanimotoCombo>
0.422 

> <ROCS_ShapeTanimoto>
0.251 

> <ROCS_ColorTanimoto>
0.170 

> <ROCS_RefTversky>
0.229 

> <ROCS_RefColorTversky>
0.192 

> <ROCS_RefTverskyCombo>
0.421 

> <ROCS_FitTversky>
1.624 

> <ROCS_FitColorTversky>
0.603 

> <ROCS_FitTverskyCombo>
2.227 

> <ROCS_ColorScore>
-6.873

> <ROCS_Overlap>
2707.738

> <ROCS_Rank>
173                 

$$$$
untitled-dbase-515301_2
  -OEChem-02082415563D

 29 30  0     1  0  0  0  0  0999 V2000
    7.2112   13.4925   23.2926 C   0  0  0  0  0  0  0  0  0  0  0  0
   10.3966   14.6984   22.2834 C   0  0  0  0  0  0  0  0  0  0  0  0
    9.1882   10.8204   25.0403 C   0  0  0  0  0  0  0  0  0  0  0  0
    8.6701   12.2655   24.9840 C   0  0  0  0  0  0  0  0  0  0  0  0
    9.9570   10.9882   22.6617 C   0  0  0  0  0  0  0  0  0  0  0  0
    7.6408   11.0106   23.2457 C   0  0  0  0  0  0  0  0  0  0  0  0
    8.9477   10.3088   23.6090 C   0  0  2  0  0  0  0  0  0  0  0  0
    9.4113   12.4271   22.5447 C   0  0  1  0  0  0  0  0  0  0  0  0
    8.2121   12.4072   23.5205 C   0  0  1  0  0  0  0  0  0  0  0  0
   11.5442   15.5349   22.7677 C   0  0  0  0  0  0  0  0  0  0  0  0
   10.3983   13.4274   22.8429 N   0  0  0  0  0  0  0  0  0  0  0  0
    6.7651   14.2292   24.1595 O   0  0  0  0  0  0  0  0  0  0  0  0
    9.5731   15.1266   21.4798 O   0  0  0  0  0  0  0  0  0  0  0  0
    6.8580   13.5510   21.9853 O   0  0  0  0  0  0  0  0  0  0  0  0
   12.3281   14.8595   23.6462 F   0  0  0  0  0  0  0  0  0  0  0  0
   11.1230   16.6605   23.3988 F   0  0  0  0  0  0  0  0  0  0  0  0
   12.3491   15.9338   21.7503 F   0  0  0  0  0  0  0  0  0  0  0  0
   10.2419   10.7720   25.3328 H   0  0  0  0  0  0  0  0  0  0  0  0
    8.6051   10.2402   25.7644 H   0  0  0  0  0  0  0  0  0  0  0  0
    7.8366   12.3957   25.6848 H   0  0  0  0  0  0  0  0  0  0  0  0
    9.4437   12.9872   25.2643 H   0  0  0  0  0  0  0  0  0  0  0  0
   10.9803   10.9394   23.0493 H   0  0  0  0  0  0  0  0  0  0  0  0
    9.9458   10.5073   21.6767 H   0  0  0  0  0  0  0  0  0  0  0  0
    7.3387   10.8586   22.2032 H   0  0  0  0  0  0  0  0  0  0  0  0
    6.8048   10.7438   23.9022 H   0  0  0  0  0  0  0  0  0  0  0  0
    8.9394    9.2201   23.5290 H   0  0  0  0  0  0  0  0  0  0  0  0
    9.0807   12.6188   21.5166 H   0  0  0  0  0  0  0  0  0  0  0  0
   11.1405   13.1914   23.5012 H   0  0  0  0  0  0  0  0  0  0  0  0
    6.1989   14.2574   21.8151 H   0  0  0  0  0  0  0  0  0  0  0  0
  1  9  1  6  0  0  0
  1 12  2  0  0  0  0
  1 14  1  0  0  0  0
  2 10  1  0  0  0  0
  2 11  1  0  0  0  0
  2 13  2  0  0  0  0
  3  4  1  0  0  0  0
  3  7  1  0  0  0  0
  4  9  1  0  0  0  0
  5  7  1  0  0  0  0
  5  8  1  0  0  0  0
  6  7  1  6  0  0  0
  6  9  1  0  0  0  0
  8  9  1  0  0  0  0
  8 11  1  1  0  0  0
 10 15  1  0  0  0  0
 10 16  1  0  0  0  0
 10 17  1  0  0  0  0
  3 18  1  0  0  0  0
  3 19  1  0  0  0  0
  4 20  1  0  0  0  0
  4 21  1  0  0  0  0
  5 22  1  0  0  0  0
  5 23  1  0  0  0  0
  6 24  1  0  0  0  0
  6 25  1  0  0  0  0
  7 26  1  0  0  0  0
  8 27  1  0  0  0  0
 11 28  1  0  0  0  0
 14 29  1  0  0  0  0
M  END
> <id>
EN300-7264533

> <smiles>
OC(=O)[C@@]1(CC[C@@H]2C[C@@H]1NC(=O)C(F)(F)F)C2 |&1:3,6,8,r|

> <IUPAC Name>
rac-(1R,2R,4R)-2-(trifluoroacetamido)bicyclo[2.2.1]heptane-1-carboxylic acid

> <CAS>
2679928-75-5

> <URL>
https://www.enaminestore.com/catalog/EN300-7264533

> <ROCS_ShapeQuery>
x0446_0A_x1080_0A_x0929_0A_x0812_0A_x0719_0A_x1140_0A_x0528_0A_x0310_0A

> <ROCS_TanimotoCombo>
0.421 

> <ROCS_ShapeTanimoto>
0.227 

> <ROCS_ColorTanimoto>
0.195 

> <ROCS_RefTversky>
0.206 

> <ROCS_RefColorTversky>
0.220 

> <ROCS_RefTverskyCombo>
0.426 

> <ROCS_FitTversky>
1.797 

> <ROCS_FitColorTversky>
0.627 

> <ROCS_FitTverskyCombo>
2.424 

> <ROCS_ColorScore>
-7.906

> <ROCS_Overlap>
2430.749

> <ROCS_Rank>
174                 

$$$$
untitled-dbase-47274_8
  -OEChem-02082415563D

 39 41  0     0  0  0  0  0  0999 V2000
    9.7772   11.3304   22.9263 C   0  0  0  0  0  0  0  0  0  0  0  0
    8.5858   14.5609   21.7660 C   0  0  0  0  0  0  0  0  0  0  0  0
    7.8343   12.2739   23.9971 C   0  0  0  0  0  0  0  0  0  0  0  0
    8.9752   12.4373   23.1854 C   0  0  0  0  0  0  0  0  0  0  0  0
    9.3067   13.7179   22.6329 C   0  0  0  0  0  0  0  0  0  0  0  0
    6.8269   13.1883   24.4434 C   0  0  0  0  0  0  0  0  0  0  0  0
    5.8781   12.5836   25.2382 C   0  0  0  0  0  0  0  0  0  0  0  0
    9.4164   10.1149   23.4801 C   0  0  0  0  0  0  0  0  0  0  0  0
   10.4783   14.3933   22.8730 C   0  0  0  0  0  0  0  0  0  0  0  0
    7.5917   10.9949   24.4872 C   0  0  0  0  0  0  0  0  0  0  0  0
    4.7275   13.1493   25.8694 C   0  0  0  0  0  0  0  0  0  0  0  0
   11.6566   14.0522   23.6956 C   0  0  0  0  0  0  0  0  0  0  0  0
   11.3880   17.4776   23.3314 C   0  0  0  0  0  0  0  0  0  0  0  0
   11.3813   16.6040   22.0887 C   0  0  0  0  0  0  0  0  0  0  0  0
   10.2787    8.9243   23.2079 C   0  0  0  0  0  0  0  0  0  0  0  0
    9.2442   15.6860   21.4752 N   0  0  0  0  0  0  0  0  0  0  0  0
    8.3392    9.8937   24.2635 N   0  0  0  0  0  0  0  0  0  0  0  0
   10.3912   15.5548   22.1633 N   0  0  0  0  0  0  0  0  0  0  0  0
    6.7888   14.5090   24.1358 N   0  0  0  0  0  0  0  0  0  0  0  0
    3.9033   12.3136   26.6394 N   0  0  0  0  0  0  0  0  0  0  0  0
    4.4196   14.3617   25.7464 O   0  0  0  0  0  0  0  0  0  0  0  0
   11.5467    9.1406   23.6422 F   0  0  0  0  0  0  0  0  0  0  0  0
   10.3608    8.6868   21.8737 F   0  0  0  0  0  0  0  0  0  0  0  0
    6.1891   10.9163   25.4539 S   0  0  0  0  0  0  0  0  0  0  0  0
   10.6654   11.4153   22.3065 H   0  0  0  0  0  0  0  0  0  0  0  0
    7.6081   14.4049   21.3317 H   0  0  0  0  0  0  0  0  0  0  0  0
   12.4051   13.4990   23.1057 H   0  0  0  0  0  0  0  0  0  0  0  0
   12.1486   14.9506   24.1048 H   0  0  0  0  0  0  0  0  0  0  0  0
   11.3866   13.4291   24.5651 H   0  0  0  0  0  0  0  0  0  0  0  0
   10.4132   17.9516   23.4871 H   0  0  0  0  0  0  0  0  0  0  0  0
   12.1400   18.2669   23.2362 H   0  0  0  0  0  0  0  0  0  0  0  0
   11.6203   16.8905   24.2261 H   0  0  0  0  0  0  0  0  0  0  0  0
   12.3603   16.1342   21.9413 H   0  0  0  0  0  0  0  0  0  0  0  0
   11.1707   17.2038   21.1960 H   0  0  0  0  0  0  0  0  0  0  0  0
    9.9045    8.0210   23.6904 H   0  0  0  0  0  0  0  0  0  0  0  0
    7.5294   14.9581   23.5834 H   0  0  0  0  0  0  0  0  0  0  0  0
    6.0696   15.1339   24.5200 H   0  0  0  0  0  0  0  0  0  0  0  0
    4.1464   11.3328   26.7264 H   0  0  0  0  0  0  0  0  0  0  0  0
    3.0728   12.6555   27.1120 H   0  0  0  0  0  0  0  0  0  0  0  0
  1  4  1  0  0  0  0
  1  8  2  0  0  0  0
  2  5  1  0  0  0  0
  2 16  2  0  0  0  0
  3  4  2  0  0  0  0
  3  6  1  0  0  0  0
  3 10  1  0  0  0  0
  4  5  1  0  0  0  0
  5  9  2  0  0  0  0
  6  7  2  0  0  0  0
  6 19  1  0  0  0  0
  7 11  1  0  0  0  0
  7 24  1  0  0  0  0
  8 15  1  0  0  0  0
  8 17  1  0  0  0  0
  9 12  1  0  0  0  0
  9 18  1  0  0  0  0
 10 17  2  0  0  0  0
 10 24  1  0  0  0  0
 11 20  1  0  0  0  0
 11 21  2  0  0  0  0
 13 14  1  0  0  0  0
 14 18  1  0  0  0  0
 15 22  1  0  0  0  0
 15 23  1  0  0  0  0
 16 18  1  0  0  0  0
  1 25  1  0  0  0  0
  2 26  1  0  0  0  0
 12 27  1  0  0  0  0
 12 28  1  0  0  0  0
 12 29  1  0  0  0  0
 13 30  1  0  0  0  0
 13 31  1  0  0  0  0
 13 32  1  0  0  0  0
 14 33  1  0  0  0  0
 14 34  1  0  0  0  0
 15 35  1  0  0  0  0
 19 36  1  0  0  0  0
 19 37  1  0  0  0  0
 20 38  1  0  0  0  0
 20 39  1  0  0  0  0
M  END
> <id>
EN300-228760

> <smiles>
CCN1N=CC(=C1C)C=2C=C(N=C3SC(C(=O)N)=C(N)C23)C(F)F

> <MDLNUMBER>
MFCD03422787

> <IUPAC Name>
3-amino-6-(difluoromethyl)-4-(1-ethyl-5-methyl-1H-pyrazol-4-yl)thieno[2,3-b]pyridine-2-carboxamide

> <CAS>
1005582-49-9

> <URL>
https://www.enaminestore.com/catalog/EN300-228760

> <ROCS_ShapeQuery>
x0446_0A_x1080_0A_x0929_0A_x0812_0A_x0719_0A_x1140_0A_x0528_0A_x0310_0A

> <ROCS_TanimotoCombo>
0.421 

> <ROCS_ShapeTanimoto>
0.261 

> <ROCS_ColorTanimoto>
0.160 

> <ROCS_RefTversky>
0.236 

> <ROCS_RefColorTversky>
0.178 

> <ROCS_RefTverskyCombo>
0.414 

> <ROCS_FitTversky>
1.679 

> <ROCS_FitColorTversky>
0.612 

> <ROCS_FitTverskyCombo>
2.291 

> <ROCS_ColorScore>
-6.377

> <ROCS_Overlap>
2792.144

> <ROCS_Rank>
175                 

$$$$
untitled-dbase-351780_3
  -OEChem-02082415563D

 30 32  0     0  0  0  0  0  0999 V2000
   11.0492   13.5069   22.8592 C   0  0  0  0  0  0  0  0  0  0  0  0
    8.1118   12.4166   23.5416 C   0  0  0  0  0  0  0  0  0  0  0  0
    9.5777   11.7046   24.8577 C   0  0  0  0  0  0  0  0  0  0  0  0
   10.0964    9.1873   22.8967 C   0  0  0  0  0  0  0  0  0  0  0  0
    8.6498    9.8896   21.5977 C   0  0  0  0  0  0  0  0  0  0  0  0
    9.4594   11.6566   23.2963 C   0  0  0  0  0  0  0  0  0  0  0  0
    8.9786   10.2079   23.0484 C   0  0  0  0  0  0  0  0  0  0  0  0
    8.0486   11.3124   24.6818 C   0  0  0  0  0  0  0  0  0  0  0  0
   12.1092   13.9697   21.8926 C   0  0  0  0  0  0  0  0  0  0  0  0
    7.0934   11.4681   25.8296 C   0  0  0  0  0  0  0  0  0  0  0  0
   10.4763   12.2911   22.5068 N   0  0  0  0  0  0  0  0  0  0  0  0
   10.7561   14.1573   23.8608 O   0  0  0  0  0  0  0  0  0  0  0  0
    9.8009    9.0164   21.4887 O   0  0  0  0  0  0  0  0  0  0  0  0
    7.9625    9.9843   24.0590 O   0  0  0  0  0  0  0  0  0  0  0  0
    5.7608   11.5352   25.3327 O   0  0  0  0  0  0  0  0  0  0  0  0
   11.6003   15.5323   21.2335 Cl  0  0  0  0  0  0  0  0  0  0  0  0
    8.1807   13.4608   23.8672 H   0  0  0  0  0  0  0  0  0  0  0  0
    7.3536   12.3332   22.7575 H   0  0  0  0  0  0  0  0  0  0  0  0
   10.2119   10.9447   25.3236 H   0  0  0  0  0  0  0  0  0  0  0  0
    9.7898   12.6793   25.3116 H   0  0  0  0  0  0  0  0  0  0  0  0
   11.1185    9.5441   23.0527 H   0  0  0  0  0  0  0  0  0  0  0  0
    9.9534    8.2519   23.4466 H   0  0  0  0  0  0  0  0  0  0  0  0
    7.7183    9.3372   21.4392 H   0  0  0  0  0  0  0  0  0  0  0  0
    8.7038   10.7167   20.8840 H   0  0  0  0  0  0  0  0  0  0  0  0
   13.0861   14.0913   22.3671 H   0  0  0  0  0  0  0  0  0  0  0  0
   12.1963   13.2479   21.0759 H   0  0  0  0  0  0  0  0  0  0  0  0
    7.2972   12.3890   26.3926 H   0  0  0  0  0  0  0  0  0  0  0  0
    7.1606   10.6160   26.5197 H   0  0  0  0  0  0  0  0  0  0  0  0
   10.7910   11.8311   21.6529 H   0  0  0  0  0  0  0  0  0  0  0  0
    5.1814   11.6350   26.1045 H   0  0  0  0  0  0  0  0  0  0  0  0
  1  9  1  0  0  0  0
  1 11  1  0  0  0  0
  1 12  2  0  0  0  0
  2  6  1  0  0  0  0
  2  8  1  0  0  0  0
  3  6  1  0  0  0  0
  3  8  1  0  0  0  0
  4  7  1  0  0  0  0
  4 13  1  0  0  0  0
  5  7  1  0  0  0  0
  5 13  1  0  0  0  0
  6  7  1  0  0  0  0
  6 11  1  0  0  0  0
  7 14  1  0  0  0  0
  8 10  1  0  0  0  0
  8 14  1  0  0  0  0
  9 16  1  0  0  0  0
 10 15  1  0  0  0  0
  2 17  1  0  0  0  0
  2 18  1  0  0  0  0
  3 19  1  0  0  0  0
  3 20  1  0  0  0  0
  4 21  1  0  0  0  0
  4 22  1  0  0  0  0
  5 23  1  0  0  0  0
  5 24  1  0  0  0  0
  9 25  1  0  0  0  0
  9 26  1  0  0  0  0
 10 27  1  0  0  0  0
 10 28  1  0  0  0  0
 11 29  1  0  0  0  0
 15 30  1  0  0  0  0
M  END
> <id>
EN300-26582828

> <smiles>
OCC1(CC2(C1)NC(=O)CCl)OC32COC3

> <IUPAC Name>
2-chloro-N-[4-(hydroxymethyl)-3-oxaspiro[bicyclo[2.1.1]hexane-2,3'-oxetan]-1-yl]acetamide

> <CAS>
2490374-64-4

> <URL>
https://www.enaminestore.com/catalog/EN300-26582828

> <ROCS_ShapeQuery>
x0446_0A_x1080_0A_x0929_0A_x0812_0A_x0719_0A_x1140_0A_x0528_0A_x0310_0A

> <ROCS_TanimotoCombo>
0.421 

> <ROCS_ShapeTanimoto>
0.222 

> <ROCS_ColorTanimoto>
0.200 

> <ROCS_RefTversky>
0.201 

> <ROCS_RefColorTversky>
0.236 

> <ROCS_RefTverskyCombo>
0.437 

> <ROCS_FitTversky>
1.834 

> <ROCS_FitColorTversky>
0.567 

> <ROCS_FitTverskyCombo>
2.401 

> <ROCS_ColorScore>
-8.483

> <ROCS_Overlap>
2376.266

> <ROCS_Rank>
176                 

$$$$
untitled-dbase-330148_5
  -OEChem-02082415563D

 39 41  0     0  0  0  0  0  0999 V2000
    7.7591   15.0578   24.4201 C   0  0  0  0  0  0  0  0  0  0  0  0
   10.0238   15.3000   22.0816 C   0  0  0  0  0  0  0  0  0  0  0  0
    8.9889   10.4327   22.1656 C   0  0  0  0  0  0  0  0  0  0  0  0
    7.3909   10.3028   24.0940 C   0  0  0  0  0  0  0  0  0  0  0  0
    9.8627   10.2041   24.5054 C   0  0  0  0  0  0  0  0  0  0  0  0
    7.6826   12.4605   22.8504 C   0  0  0  0  0  0  0  0  0  0  0  0
   10.1570   12.3616   23.2621 C   0  0  0  0  0  0  0  0  0  0  0  0
    8.5570   12.2314   25.1939 C   0  0  0  0  0  0  0  0  0  0  0  0
    7.6393   10.9291   22.7112 C   0  0  0  0  0  0  0  0  0  0  0  0
   10.1239   10.8297   23.1246 C   0  0  0  0  0  0  0  0  0  0  0  0
    8.5175   10.6990   25.0634 C   0  0  0  0  0  0  0  0  0  0  0  0
    8.8121   12.8814   23.8167 C   0  0  0  0  0  0  0  0  0  0  0  0
    8.0644   16.3412   25.1512 C   0  0  0  0  0  0  0  0  0  0  0  0
   10.1059   14.9617   23.5387 C   0  0  0  0  0  0  0  0  0  0  0  0
    8.8510   14.3217   23.9426 N   0  0  0  0  0  0  0  0  0  0  0  0
    6.5832   14.7134   24.2741 O   0  0  0  0  0  0  0  0  0  0  0  0
    9.0135   15.5933   21.4600 O   0  0  0  0  0  0  0  0  0  0  0  0
   11.2595   15.2372   21.5214 O   0  0  0  0  0  0  0  0  0  0  0  0
    8.9657    9.3428   22.0441 H   0  0  0  0  0  0  0  0  0  0  0  0
    9.1715   10.8597   21.1718 H   0  0  0  0  0  0  0  0  0  0  0  0
    6.4229   10.6364   24.4879 H   0  0  0  0  0  0  0  0  0  0  0  0
    7.3398    9.2105   24.0066 H   0  0  0  0  0  0  0  0  0  0  0  0
    9.8546    9.1101   24.4250 H   0  0  0  0  0  0  0  0  0  0  0  0
   10.6742   10.4665   25.1950 H   0  0  0  0  0  0  0  0  0  0  0  0
    7.8379   12.9124   21.8620 H   0  0  0  0  0  0  0  0  0  0  0  0
    6.7133   12.8220   23.2180 H   0  0  0  0  0  0  0  0  0  0  0  0
   10.9808   12.6515   23.9275 H   0  0  0  0  0  0  0  0  0  0  0  0
   10.3647   12.8123   22.2828 H   0  0  0  0  0  0  0  0  0  0  0  0
    7.6069   12.5877   25.6128 H   0  0  0  0  0  0  0  0  0  0  0  0
    9.3453   12.5171   25.9026 H   0  0  0  0  0  0  0  0  0  0  0  0
    6.8351   10.6418   22.0249 H   0  0  0  0  0  0  0  0  0  0  0  0
   11.0824   10.4727   22.7318 H   0  0  0  0  0  0  0  0  0  0  0  0
    8.3363   10.2484   26.0456 H   0  0  0  0  0  0  0  0  0  0  0  0
    8.0971   17.1686   24.4355 H   0  0  0  0  0  0  0  0  0  0  0  0
    7.2810   16.5552   25.8831 H   0  0  0  0  0  0  0  0  0  0  0  0
    9.0401   16.2755   25.6400 H   0  0  0  0  0  0  0  0  0  0  0  0
   10.9307   14.2644   23.7081 H   0  0  0  0  0  0  0  0  0  0  0  0
   10.2471   15.8735   24.1247 H   0  0  0  0  0  0  0  0  0  0  0  0
   11.2388   15.4547   20.5650 H   0  0  0  0  0  0  0  0  0  0  0  0
  1 13  1  0  0  0  0
  1 15  1  0  0  0  0
  1 16  2  0  0  0  0
  2 14  1  0  0  0  0
  2 17  2  0  0  0  0
  2 18  1  0  0  0  0
  3  9  1  0  0  0  0
  3 10  1  0  0  0  0
  4  9  1  0  0  0  0
  4 11  1  0  0  0  0
  5 10  1  0  0  0  0
  5 11  1  0  0  0  0
  6  9  1  0  0  0  0
  6 12  1  0  0  0  0
  7 10  1  0  0  0  0
  7 12  1  0  0  0  0
  8 11  1  0  0  0  0
  8 12  1  0  0  0  0
 12 15  1  0  0  0  0
 14 15  1  0  0  0  0
  3 19  1  0  0  0  0
  3 20  1  0  0  0  0
  4 21  1  0  0  0  0
  4 22  1  0  0  0  0
  5 23  1  0  0  0  0
  5 24  1  0  0  0  0
  6 25  1  0  0  0  0
  6 26  1  0  0  0  0
  7 27  1  0  0  0  0
  7 28  1  0  0  0  0
  8 29  1  0  0  0  0
  8 30  1  0  0  0  0
  9 31  1  0  0  0  0
 10 32  1  0  0  0  0
 11 33  1  0  0  0  0
 13 34  1  0  0  0  0
 13 35  1  0  0  0  0
 13 36  1  0  0  0  0
 14 37  1  0  0  0  0
 14 38  1  0  0  0  0
 18 39  1  0  0  0  0
M  END
> <id>
EN300-30322333

> <smiles>
CC(=O)N(CC(=O)O)C1(CC2CC3CC(C2)C1)C3

> <IUPAC Name>
2-[N-(adamantan-1-yl)acetamido]acetic acid

> <CAS>
1782256-65-8

> <URL>
https://www.enaminestore.com/catalog/EN300-30322333

> <ROCS_ShapeQuery>
x0446_0A_x1080_0A_x0929_0A_x0812_0A_x0719_0A_x1140_0A_x0528_0A_x0310_0A

> <ROCS_TanimotoCombo>
0.421 

> <ROCS_ShapeTanimoto>
0.226 

> <ROCS_ColorTanimoto>
0.195 

> <ROCS_RefTversky>
0.206 

> <ROCS_RefColorTversky>
0.217 

> <ROCS_RefTverskyCombo>
0.423 

> <ROCS_FitTversky>
1.749 

> <ROCS_FitColorTversky>
0.660 

> <ROCS_FitTverskyCombo>
2.409 

> <ROCS_ColorScore>
-7.796

> <ROCS_Overlap>
2430.415

> <ROCS_Rank>
177                 

$$$$
untitled-dbase-357474_9
  -OEChem-02082415563D

 43 46  0     0  0  0  0  0  0999 V2000
    5.3728   12.0315   24.3749 C   0  0  0  0  0  0  0  0  0  0  0  0
    5.7916   13.3591   24.4382 C   0  0  0  0  0  0  0  0  0  0  0  0
    6.3042   11.0133   24.1676 C   0  0  0  0  0  0  0  0  0  0  0  0
    7.1434   13.6738   24.2945 C   0  0  0  0  0  0  0  0  0  0  0  0
    8.0731    8.3568   22.4870 C   0  0  0  0  0  0  0  0  0  0  0  0
    8.3744    8.1461   24.8749 C   0  0  0  0  0  0  0  0  0  0  0  0
   13.1581   14.7227   22.3020 C   0  0  0  0  0  0  0  0  0  0  0  0
   12.2183   14.3575   23.2659 C   0  0  0  0  0  0  0  0  0  0  0  0
    7.8007    6.9915   22.4009 C   0  0  0  0  0  0  0  0  0  0  0  0
    8.1019    6.7808   24.7888 C   0  0  0  0  0  0  0  0  0  0  0  0
   11.3782   15.4716   20.8502 C   0  0  0  0  0  0  0  0  0  0  0  0
    7.6676   11.3196   24.0217 C   0  0  0  0  0  0  0  0  0  0  0  0
    8.0892   12.6561   24.0855 C   0  0  0  0  0  0  0  0  0  0  0  0
    8.3600    8.9341   23.7240 C   0  0  0  0  0  0  0  0  0  0  0  0
   12.7381   15.2798   21.0941 C   0  0  0  0  0  0  0  0  0  0  0  0
   10.8584   14.5494   23.0219 C   0  0  0  0  0  0  0  0  0  0  0  0
   10.4383   15.1065   21.8140 C   0  0  0  0  0  0  0  0  0  0  0  0
    7.8150    6.2035   23.5518 C   0  0  0  0  0  0  0  0  0  0  0  0
    8.6428   10.3506   23.8132 C   0  0  0  0  0  0  0  0  0  0  0  0
    9.4488   12.9058   23.9351 C   0  0  0  0  0  0  0  0  0  0  0  0
   13.7182   15.6624   20.0902 C   0  0  0  0  0  0  0  0  0  0  0  0
    8.5577   16.5552   21.9557 C   0  0  0  0  0  0  0  0  0  0  0  0
    9.9550   10.6377   23.6721 N   0  0  0  0  0  0  0  0  0  0  0  0
   10.3634   11.9326   23.7338 N   0  0  0  0  0  0  0  0  0  0  0  0
   14.9340   15.5203   20.2469 O   0  0  0  0  0  0  0  0  0  0  0  0
    9.9380   14.1838   23.9843 O   0  0  0  0  0  0  0  0  0  0  0  0
    9.1133   15.3012   21.5647 O   0  0  0  0  0  0  0  0  0  0  0  0
    7.5534    4.8924   23.4691 F   0  0  0  0  0  0  0  0  0  0  0  0
    4.3200   11.7889   24.4871 H   0  0  0  0  0  0  0  0  0  0  0  0
    5.0649   14.1500   24.5998 H   0  0  0  0  0  0  0  0  0  0  0  0
    5.9414    9.9894   24.1238 H   0  0  0  0  0  0  0  0  0  0  0  0
    7.4424   14.7179   24.3482 H   0  0  0  0  0  0  0  0  0  0  0  0
    8.0581    8.9576   21.5808 H   0  0  0  0  0  0  0  0  0  0  0  0
    8.5962    8.5813   25.8464 H   0  0  0  0  0  0  0  0  0  0  0  0
   14.2152   14.5687   22.5030 H   0  0  0  0  0  0  0  0  0  0  0  0
   12.5519   13.9238   24.2046 H   0  0  0  0  0  0  0  0  0  0  0  0
    7.5774    6.5417   21.4380 H   0  0  0  0  0  0  0  0  0  0  0  0
    8.1129    6.1667   25.6844 H   0  0  0  0  0  0  0  0  0  0  0  0
   11.0474   15.9080   19.9104 H   0  0  0  0  0  0  0  0  0  0  0  0
   13.3356   16.1023   19.1434 H   0  0  0  0  0  0  0  0  0  0  0  0
    7.4956   16.5796   21.7002 H   0  0  0  0  0  0  0  0  0  0  0  0
    9.0852   17.3640   21.4437 H   0  0  0  0  0  0  0  0  0  0  0  0
    8.6731   16.6739   23.0357 H   0  0  0  0  0  0  0  0  0  0  0  0
  1  2  1  0  0  0  0
  1  3  2  0  0  0  0
  2  4  2  0  0  0  0
  3 12  1  0  0  0  0
  4 13  1  0  0  0  0
  5  9  2  0  0  0  0
  5 14  1  0  0  0  0
  6 10  1  0  0  0  0
  6 14  2  0  0  0  0
  7  8  2  0  0  0  0
  7 15  1  0  0  0  0
  8 16  1  0  0  0  0
  9 18  1  0  0  0  0
 10 18  2  0  0  0  0
 11 15  2  0  0  0  0
 11 17  1  0  0  0  0
 12 13  1  0  0  0  0
 12 19  2  0  0  0  0
 13 20  2  0  0  0  0
 14 19  1  0  0  0  0
 15 21  1  0  0  0  0
 16 17  2  0  0  0  0
 16 26  1  0  0  0  0
 17 27  1  0  0  0  0
 18 28  1  0  0  0  0
 19 23  1  0  0  0  0
 20 24  1  0  0  0  0
 20 26  1  0  0  0  0
 21 25  2  0  0  0  0
 22 27  1  0  0  0  0
 23 24  2  0  0  0  0
  1 29  1  0  0  0  0
  2 30  1  0  0  0  0
  3 31  1  0  0  0  0
  4 32  1  0  0  0  0
  5 33  1  0  0  0  0
  6 34  1  0  0  0  0
  7 35  1  0  0  0  0
  8 36  1  0  0  0  0
  9 37  1  0  0  0  0
 10 38  1  0  0  0  0
 11 39  1  0  0  0  0
 21 40  1  0  0  0  0
 22 41  1  0  0  0  0
 22 42  1  0  0  0  0
 22 43  1  0  0  0  0
M  END
> <id>
EN300-18139545

> <smiles>
COC=1C=C(C=O)C=CC1OC=2N=NC(C=3C=CC(F)=CC3)=C4C=CC=CC24

> <MDLNUMBER>
MFCD02329625

> <IUPAC Name>
4-{[4-(4-fluorophenyl)phthalazin-1-yl]oxy}-3-methoxybenzaldehyde

> <CAS>
315691-94-2

> <URL>
https://www.enaminestore.com/catalog/EN300-18139545

> <ROCS_ShapeQuery>
x0446_0A_x1080_0A_x0929_0A_x0812_0A_x0719_0A_x1140_0A_x0528_0A_x0310_0A

> <ROCS_TanimotoCombo>
0.421 

> <ROCS_ShapeTanimoto>
0.243 

> <ROCS_ColorTanimoto>
0.179 

> <ROCS_RefTversky>
0.226 

> <ROCS_RefColorTversky>
0.197 

> <ROCS_RefTverskyCombo>
0.423 

> <ROCS_FitTversky>
1.434 

> <ROCS_FitColorTversky>
0.658 

> <ROCS_FitTverskyCombo>
2.092 

> <ROCS_ColorScore>
-7.053

> <ROCS_Overlap>
2673.037

> <ROCS_Rank>
178                 

$$$$
untitled-dbase-554905_8
  -OEChem-02082415563D

 48 52  0     1  0  0  0  0  0999 V2000
    2.8559   13.6024   25.7787 C   0  0  0  0  0  0  0  0  0  0  0  0
   12.3313   18.6681   21.0613 C   0  0  0  0  0  0  0  0  0  0  0  0
   13.6478   18.1985   21.2529 C   0  0  0  0  0  0  0  0  0  0  0  0
    2.7809   12.8925   24.5804 C   0  0  0  0  0  0  0  0  0  0  0  0
    4.0475   14.2282   26.1452 C   0  0  0  0  0  0  0  0  0  0  0  0
   11.2357   17.8064   21.1688 C   0  0  0  0  0  0  0  0  0  0  0  0
   13.8976   16.8569   21.5563 C   0  0  0  0  0  0  0  0  0  0  0  0
    3.8973   12.8083   23.7485 C   0  0  0  0  0  0  0  0  0  0  0  0
    5.1640   14.1440   25.3133 C   0  0  0  0  0  0  0  0  0  0  0  0
   11.5032   16.4880   21.4718 C   0  0  0  0  0  0  0  0  0  0  0  0
   12.8034   16.0242   21.6609 C   0  0  0  0  0  0  0  0  0  0  0  0
    5.0890   13.4340   24.1150 C   0  0  0  0  0  0  0  0  0  0  0  0
   10.5883   15.3545   21.6407 C   0  0  0  0  0  0  0  0  0  0  0  0
   12.7349   14.5887   21.9527 C   0  0  0  0  0  0  0  0  0  0  0  0
   10.6574   12.8971   23.6138 C   0  0  0  0  0  0  0  0  0  0  0  0
    8.6564    9.9867   24.1341 C   0  0  0  0  0  0  0  0  0  0  0  0
    8.0031   11.8163   22.4202 C   0  0  0  0  0  0  0  0  0  0  0  0
    7.8428   12.3529   24.8058 C   0  0  0  0  0  0  0  0  0  0  0  0
   10.1166   11.4948   23.8929 C   0  0  0  0  0  0  0  0  0  0  0  0
    9.0950   10.8415   22.8987 C   0  0  1  0  0  0  0  0  0  0  0  0
    8.9584   11.2989   24.9318 C   0  0  2  0  0  0  0  0  0  0  0  0
    6.2912   13.3436   23.2202 C   0  0  0  0  0  0  0  0  0  0  0  0
   11.4032   14.3140   21.9600 N   0  0  0  0  0  0  0  0  0  0  0  0
    7.1198   12.1882   23.5358 N   0  0  0  0  0  0  0  0  0  0  0  0
    9.3800   15.4108   21.5237 O   0  0  0  0  0  0  0  0  0  0  0  0
   13.6956   13.8714   22.1507 O   0  0  0  0  0  0  0  0  0  0  0  0
   10.8330   13.7471   24.4766 O   0  0  0  0  0  0  0  0  0  0  0  0
   10.9002   13.0335   22.2781 O   0  0  0  0  0  0  0  0  0  0  0  0
    1.9861   13.6690   26.4257 H   0  0  0  0  0  0  0  0  0  0  0  0
   12.1690   19.7167   20.8251 H   0  0  0  0  0  0  0  0  0  0  0  0
   14.4794   18.8926   21.1614 H   0  0  0  0  0  0  0  0  0  0  0  0
    1.8528   12.4061   24.2944 H   0  0  0  0  0  0  0  0  0  0  0  0
    4.1060   14.7819   27.0775 H   0  0  0  0  0  0  0  0  0  0  0  0
   10.2252   18.1677   21.0189 H   0  0  0  0  0  0  0  0  0  0  0  0
   14.9092   16.4967   21.7005 H   0  0  0  0  0  0  0  0  0  0  0  0
    3.8297   12.2528   22.8168 H   0  0  0  0  0  0  0  0  0  0  0  0
    6.0882   14.6346   25.6070 H   0  0  0  0  0  0  0  0  0  0  0  0
    7.6279    9.6276   24.1458 H   0  0  0  0  0  0  0  0  0  0  0  0
    9.3226    9.1519   24.3668 H   0  0  0  0  0  0  0  0  0  0  0  0
    8.4776   12.7244   22.0306 H   0  0  0  0  0  0  0  0  0  0  0  0
    7.4429   11.3577   21.5954 H   0  0  0  0  0  0  0  0  0  0  0  0
    7.1694   12.2738   25.6688 H   0  0  0  0  0  0  0  0  0  0  0  0
    8.2896   13.3537   24.8281 H   0  0  0  0  0  0  0  0  0  0  0  0
   10.9757   10.8299   24.1004 H   0  0  0  0  0  0  0  0  0  0  0  0
    9.5426   10.2661   22.0816 H   0  0  0  0  0  0  0  0  0  0  0  0
    9.2819   11.1400   25.9659 H   0  0  0  0  0  0  0  0  0  0  0  0
    5.9864   13.2635   22.1710 H   0  0  0  0  0  0  0  0  0  0  0  0
    6.9161   14.2383   23.3100 H   0  0  0  0  0  0  0  0  0  0  0  0
  1  4  1  0  0  0  0
  1  5  2  0  0  0  0
  2  3  1  0  0  0  0
  2  6  2  0  0  0  0
  3  7  2  0  0  0  0
  4  8  2  0  0  0  0
  5  9  1  0  0  0  0
  6 10  1  0  0  0  0
  7 11  1  0  0  0  0
  8 12  1  0  0  0  0
  9 12  2  0  0  0  0
 10 11  2  0  0  0  0
 10 13  1  0  0  0  0
 11 14  1  0  0  0  0
 12 22  1  0  0  0  0
 13 23  1  0  0  0  0
 13 25  2  0  0  0  0
 14 23  1  0  0  0  0
 14 26  2  0  0  0  0
 15 19  1  0  0  0  0
 15 27  2  0  0  0  0
 15 28  1  0  0  0  0
 16 20  1  0  0  0  0
 16 21  1  0  0  0  0
 17 20  1  0  0  0  0
 17 24  1  0  0  0  0
 18 21  1  0  0  0  0
 18 24  1  0  0  0  0
 19 20  1  0  0  0  0
 19 21  1  0  0  0  0
 22 24  1  0  0  0  0
 23 28  1  0  0  0  0
  1 29  1  0  0  0  0
  2 30  1  0  0  0  0
  3 31  1  0  0  0  0
  4 32  1  0  0  0  0
  5 33  1  0  0  0  0
  6 34  1  0  0  0  0
  7 35  1  0  0  0  0
  8 36  1  0  0  0  0
  9 37  1  0  0  0  0
 16 38  1  0  0  0  0
 16 39  1  0  0  0  0
 17 40  1  0  0  0  0
 17 41  1  0  0  0  0
 18 42  1  0  0  0  0
 18 43  1  0  0  0  0
 19 44  1  0  0  0  0
 20 45  1  0  0  0  0
 21 46  1  0  0  0  0
 22 47  1  0  0  0  0
 22 48  1  0  0  0  0
M  END
> <id>
EN300-6521878

> <smiles>
O=C(ON1C(=O)C=2C=CC=CC2C1=O)C3C4CC3CN(CC=5C=CC=CC5)C4

> <IUPAC Name>
1,3-dioxo-2,3-dihydro-1H-isoindol-2-yl 3-benzyl-3-azabicyclo[3.1.1]heptane-6-carboxylate

> <CAS>
2248292-37-5

> <URL>
https://www.enaminestore.com/catalog/EN300-6521878

> <ROCS_ShapeQuery>
x0446_0A_x1080_0A_x0929_0A_x0812_0A_x0719_0A_x1140_0A_x0528_0A_x0310_0A

> <ROCS_TanimotoCombo>
0.421 

> <ROCS_ShapeTanimoto>
0.234 

> <ROCS_ColorTanimoto>
0.188 

> <ROCS_RefTversky>
0.219 

> <ROCS_RefColorTversky>
0.221 

> <ROCS_RefTverskyCombo>
0.440 

> <ROCS_FitTversky>
1.391 

> <ROCS_FitColorTversky>
0.555 

> <ROCS_FitTverskyCombo>
1.946 

> <ROCS_ColorScore>
-7.942

> <ROCS_Overlap>
2594.187

> <ROCS_Rank>
179                 

$$$$
untitled-dbase-356592_0
  -OEChem-02082415563D

 42 45  0     0  0  0  0  0  0999 V2000
   11.3085   14.3965   23.3222 C   0  0  0  0  0  0  0  0  0  0  0  0
    5.8776   13.4621   24.5936 C   0  0  0  0  0  0  0  0  0  0  0  0
    6.1552   12.9133   25.8612 C   0  0  0  0  0  0  0  0  0  0  0  0
    6.6065   13.0741   23.4681 C   0  0  0  0  0  0  0  0  0  0  0  0
    7.1690   11.9631   26.0325 C   0  0  0  0  0  0  0  0  0  0  0  0
    7.6002   12.1367   23.6641 C   0  0  0  0  0  0  0  0  0  0  0  0
    7.8936   11.5768   24.9195 C   0  0  0  0  0  0  0  0  0  0  0  0
    9.3502   10.6925   23.1391 C   0  0  0  0  0  0  0  0  0  0  0  0
    8.6466   11.7400   21.3743 C   0  0  0  0  0  0  0  0  0  0  0  0
    9.7501   14.5440   20.8232 C   0  0  0  0  0  0  0  0  0  0  0  0
   14.3007   16.4820   22.6903 C   0  0  0  0  0  0  0  0  0  0  0  0
   12.8911   17.0366   22.8626 C   0  0  0  0  0  0  0  0  0  0  0  0
   14.3320   14.9668   22.8554 C   0  0  0  0  0  0  0  0  0  0  0  0
   11.8966   16.3538   21.9219 C   0  0  0  0  0  0  0  0  0  0  0  0
   13.3436   14.2755   21.9145 C   0  0  0  0  0  0  0  0  0  0  0  0
   11.9053   14.8165   22.0375 C   0  0  0  0  0  0  0  0  0  0  0  0
    9.1257   13.8194   19.6540 C   0  0  0  0  0  0  0  0  0  0  0  0
   10.8398   14.0665   24.3310 N   0  0  0  0  0  0  0  0  0  0  0  0
   10.0900   10.2636   22.1539 N   0  0  0  0  0  0  0  0  0  0  0  0
    9.6372   10.9383   21.0173 N   0  0  0  0  0  0  0  0  0  0  0  0
    8.4450   11.6061   22.7054 N   0  0  0  0  0  0  0  0  0  0  0  0
   11.0921   14.2541   20.9749 N   0  0  0  0  0  0  0  0  0  0  0  0
    9.0934   15.2917   21.5459 O   0  0  0  0  0  0  0  0  0  0  0  0
    9.2436   10.3862   24.8384 S   0  0  0  0  0  0  0  0  0  0  0  0
    7.7661   12.7912   20.2591 S   0  0  0  0  0  0  0  0  0  0  0  0
    5.0837   14.1978   24.4938 H   0  0  0  0  0  0  0  0  0  0  0  0
    5.5710   13.2344   26.7200 H   0  0  0  0  0  0  0  0  0  0  0  0
    6.3646   13.5168   22.5135 H   0  0  0  0  0  0  0  0  0  0  0  0
    7.3713   11.5494   27.0146 H   0  0  0  0  0  0  0  0  0  0  0  0
   14.6850   16.7529   21.7006 H   0  0  0  0  0  0  0  0  0  0  0  0
   14.9672   16.9438   23.4291 H   0  0  0  0  0  0  0  0  0  0  0  0
   12.5668   16.8954   23.9003 H   0  0  0  0  0  0  0  0  0  0  0  0
   12.8954   18.1180   22.6785 H   0  0  0  0  0  0  0  0  0  0  0  0
   15.3456   14.5980   22.6606 H   0  0  0  0  0  0  0  0  0  0  0  0
   14.0938   14.7060   23.8922 H   0  0  0  0  0  0  0  0  0  0  0  0
   10.8882   16.7325   22.1502 H   0  0  0  0  0  0  0  0  0  0  0  0
   12.0986   16.6659   20.8866 H   0  0  0  0  0  0  0  0  0  0  0  0
   13.7035   14.3584   20.8800 H   0  0  0  0  0  0  0  0  0  0  0  0
   13.3489   13.2000   22.1433 H   0  0  0  0  0  0  0  0  0  0  0  0
    9.8530   13.1905   19.1330 H   0  0  0  0  0  0  0  0  0  0  0  0
    8.7454   14.5592   18.9433 H   0  0  0  0  0  0  0  0  0  0  0  0
   11.5475   13.6095   20.3410 H   0  0  0  0  0  0  0  0  0  0  0  0
  1 16  1  0  0  0  0
  1 18  3  0  0  0  0
  2  3  1  0  0  0  0
  2  4  2  0  0  0  0
  3  5  2  0  0  0  0
  4  6  1  0  0  0  0
  5  7  1  0  0  0  0
  6  7  2  0  0  0  0
  6 21  1  0  0  0  0
  7 24  1  0  0  0  0
  8 19  2  0  0  0  0
  8 21  1  0  0  0  0
  8 24  1  0  0  0  0
  9 20  2  0  0  0  0
  9 21  1  0  0  0  0
  9 25  1  0  0  0  0
 10 17  1  0  0  0  0
 10 22  1  0  0  0  0
 10 23  2  0  0  0  0
 11 12  1  0  0  0  0
 11 13  1  0  0  0  0
 12 14  1  0  0  0  0
 13 15  1  0  0  0  0
 14 16  1  0  0  0  0
 15 16  1  0  0  0  0
 16 22  1  0  0  0  0
 17 25  1  0  0  0  0
 19 20  1  0  0  0  0
  2 26  1  0  0  0  0
  3 27  1  0  0  0  0
  4 28  1  0  0  0  0
  5 29  1  0  0  0  0
 11 30  1  0  0  0  0
 11 31  1  0  0  0  0
 12 32  1  0  0  0  0
 12 33  1  0  0  0  0
 13 34  1  0  0  0  0
 13 35  1  0  0  0  0
 14 36  1  0  0  0  0
 14 37  1  0  0  0  0
 15 38  1  0  0  0  0
 15 39  1  0  0  0  0
 17 40  1  0  0  0  0
 17 41  1  0  0  0  0
 22 42  1  0  0  0  0
M  END
> <id>
EN300-26689588

> <smiles>
O=C(CSC1=NN=C2SC=3C=CC=CC3N12)NC4(CCCCC4)C#N

> <IUPAC Name>
N-(1-cyanocyclohexyl)-2-{7-thia-2,4,5-triazatricyclo[6.4.0.0,2,6]dodeca-1(8),3,5,9,11-pentaen-3-ylsulfanyl}acetamide

> <CAS>
924430-38-6

> <URL>
https://www.enaminestore.com/catalog/EN300-26689588

> <ROCS_ShapeQuery>
x0446_0A_x1080_0A_x0929_0A_x0812_0A_x0719_0A_x1140_0A_x0528_0A_x0310_0A

> <ROCS_TanimotoCombo>
0.421 

> <ROCS_ShapeTanimoto>
0.225 

> <ROCS_ColorTanimoto>
0.196 

> <ROCS_RefTversky>
0.210 

> <ROCS_RefColorTversky>
0.213 

> <ROCS_RefTverskyCombo>
0.423 

> <ROCS_FitTversky>
1.477 

> <ROCS_FitColorTversky>
0.710 

> <ROCS_FitTverskyCombo>
2.187 

> <ROCS_ColorScore>
-7.623

> <ROCS_Overlap>
2482.910

> <ROCS_Rank>
180                 

$$$$
untitled-dbase-397740_7
  -OEChem-02082415563D

 48 52  0     1  0  0  0  0  0999 V2000
   14.8027   13.6174   21.7869 C   0  0  0  0  0  0  0  0  0  0  0  0
   11.2454   17.4576   24.6824 C   0  0  0  0  0  0  0  0  0  0  0  0
   14.2228   13.3189   20.5427 C   0  0  0  0  0  0  0  0  0  0  0  0
   10.1314   17.7354   23.8730 C   0  0  0  0  0  0  0  0  0  0  0  0
   14.1785   14.4953   22.6777 C   0  0  0  0  0  0  0  0  0  0  0  0
   12.2458   16.5818   24.2509 C   0  0  0  0  0  0  0  0  0  0  0  0
   13.0066   13.8911   20.1656 C   0  0  0  0  0  0  0  0  0  0  0  0
    9.9950   17.1417   22.6169 C   0  0  0  0  0  0  0  0  0  0  0  0
   12.9713   15.0634   22.3039 C   0  0  0  0  0  0  0  0  0  0  0  0
   12.1108   15.9922   23.0044 C   0  0  0  0  0  0  0  0  0  0  0  0
   12.3885   14.7563   21.0537 C   0  0  0  0  0  0  0  0  0  0  0  0
   10.9860   16.2701   22.1953 C   0  0  0  0  0  0  0  0  0  0  0  0
    6.5143   12.8126   24.5447 C   0  0  0  0  0  0  0  0  0  0  0  0
    8.5012   13.2891   22.0668 C   0  0  0  0  0  0  0  0  0  0  0  0
    8.5941    9.6713   23.7541 C   0  0  0  0  0  0  0  0  0  0  0  0
    9.7907   10.4187   23.1244 C   0  0  0  0  0  0  0  0  0  0  0  0
    9.2031   11.4859   25.1554 C   0  0  0  0  0  0  0  0  0  0  0  0
   11.0781   15.5108   20.8794 C   0  0  0  0  0  0  0  0  0  0  0  0
    7.2946   11.8110   23.7493 C   0  0  2  0  0  0  0  0  0  0  0  0
    7.9502   10.7473   24.6560 C   0  0  1  0  0  0  0  0  0  0  0  0
    9.6708   11.8241   23.7425 C   0  0  2  0  0  0  0  0  0  0  0  0
    9.8990   14.5887   20.6535 C   0  0  0  0  0  0  0  0  0  0  0  0
    8.4734   12.4471   23.1632 N   0  0  0  0  0  0  0  0  0  0  0  0
    6.7982   13.9960   24.6550 O   0  0  0  0  0  0  0  0  0  0  0  0
    7.5070   13.6204   21.4251 O   0  0  0  0  0  0  0  0  0  0  0  0
    5.4432   12.2266   25.1335 O   0  0  0  0  0  0  0  0  0  0  0  0
    9.7710   13.7112   21.7778 O   0  0  0  0  0  0  0  0  0  0  0  0
   15.7508   13.1605   22.0586 H   0  0  0  0  0  0  0  0  0  0  0  0
   11.3305   17.9314   25.6569 H   0  0  0  0  0  0  0  0  0  0  0  0
   14.7301   12.6358   19.8665 H   0  0  0  0  0  0  0  0  0  0  0  0
    9.3687   18.4220   24.2307 H   0  0  0  0  0  0  0  0  0  0  0  0
   14.6393   14.7175   23.6345 H   0  0  0  0  0  0  0  0  0  0  0  0
   13.1013   16.3784   24.8864 H   0  0  0  0  0  0  0  0  0  0  0  0
   12.5649   13.6613   19.2022 H   0  0  0  0  0  0  0  0  0  0  0  0
    9.1358   17.3630   21.9934 H   0  0  0  0  0  0  0  0  0  0  0  0
    7.9024    9.2911   22.9958 H   0  0  0  0  0  0  0  0  0  0  0  0
    8.9520    8.8242   24.3499 H   0  0  0  0  0  0  0  0  0  0  0  0
   10.7319    9.9405   23.4184 H   0  0  0  0  0  0  0  0  0  0  0  0
    9.7405   10.4310   22.0307 H   0  0  0  0  0  0  0  0  0  0  0  0
    8.9842   12.3704   25.7613 H   0  0  0  0  0  0  0  0  0  0  0  0
    9.8972   10.8372   25.7008 H   0  0  0  0  0  0  0  0  0  0  0  0
   11.1837   16.2287   20.0574 H   0  0  0  0  0  0  0  0  0  0  0  0
    6.6513   11.3869   22.9719 H   0  0  0  0  0  0  0  0  0  0  0  0
    7.3043   10.3516   25.4426 H   0  0  0  0  0  0  0  0  0  0  0  0
   10.5652   12.4423   23.6462 H   0  0  0  0  0  0  0  0  0  0  0  0
   10.0496   13.9870   19.7522 H   0  0  0  0  0  0  0  0  0  0  0  0
    8.9751   15.1652   20.5493 H   0  0  0  0  0  0  0  0  0  0  0  0
    4.9196   12.8666   25.6613 H   0  0  0  0  0  0  0  0  0  0  0  0
  1  3  1  0  0  0  0
  1  5  2  0  0  0  0
  2  4  1  0  0  0  0
  2  6  2  0  0  0  0
  3  7  2  0  0  0  0
  4  8  2  0  0  0  0
  5  9  1  0  0  0  0
  6 10  1  0  0  0  0
  7 11  1  0  0  0  0
  8 12  1  0  0  0  0
  9 10  1  0  0  0  0
  9 11  2  0  0  0  0
 10 12  2  0  0  0  0
 11 18  1  0  0  0  0
 12 18  1  0  0  0  0
 13 19  1  1  0  0  0
 13 24  2  0  0  0  0
 13 26  1  0  0  0  0
 14 23  1  0  0  0  0
 14 25  2  0  0  0  0
 14 27  1  0  0  0  0
 15 16  1  0  0  0  0
 15 20  1  0  0  0  0
 16 21  1  0  0  0  0
 17 20  1  1  0  0  0
 17 21  1  1  0  0  0
 18 22  1  0  0  0  0
 19 20  1  0  0  0  0
 19 23  1  0  0  0  0
 21 23  1  0  0  0  0
 22 27  1  0  0  0  0
  1 28  1  0  0  0  0
  2 29  1  0  0  0  0
  3 30  1  0  0  0  0
  4 31  1  0  0  0  0
  5 32  1  0  0  0  0
  6 33  1  0  0  0  0
  7 34  1  0  0  0  0
  8 35  1  0  0  0  0
 15 36  1  0  0  0  0
 15 37  1  0  0  0  0
 16 38  1  0  0  0  0
 16 39  1  0  0  0  0
 17 40  1  0  0  0  0
 17 41  1  0  0  0  0
 18 42  1  0  0  0  0
 19 43  1  0  0  0  0
 20 44  1  0  0  0  0
 21 45  1  0  0  0  0
 22 46  1  0  0  0  0
 22 47  1  0  0  0  0
 26 48  1  0  0  0  0
M  END
> <id>
EN300-657498

> <smiles>
OC(=O)[C@@H]1[C@H]2CC[C@H](C2)N1C(=O)OCC3C=4C=CC=CC4C=5C=CC=CC35

> <MDLNUMBER>
MFCD28389231

> <IUPAC Name>
(1R,3S,4S)-2-{[(9H-fluoren-9-yl)methoxy]carbonyl}-2-azabicyclo[2.2.1]heptane-3-carboxylic acid

> <CAS>
1993278-87-7

> <URL>
https://www.enaminestore.com/catalog/EN300-657498

> <ROCS_ShapeQuery>
x0446_0A_x1080_0A_x0929_0A_x0812_0A_x0719_0A_x1140_0A_x0528_0A_x0310_0A

> <ROCS_TanimotoCombo>
0.421 

> <ROCS_ShapeTanimoto>
0.239 

> <ROCS_ColorTanimoto>
0.182 

> <ROCS_RefTversky>
0.223 

> <ROCS_RefColorTversky>
0.216 

> <ROCS_RefTverskyCombo>
0.439 

> <ROCS_FitTversky>
1.445 

> <ROCS_FitColorTversky>
0.533 

> <ROCS_FitTverskyCombo>
1.979 

> <ROCS_ColorScore>
-7.787

> <ROCS_Overlap>
2636.214

> <ROCS_Rank>
181                 

$$$$
untitled-dbase-145243_3
  -OEChem-02082415563D

 43 45  0     1  0  0  0  0  0999 V2000
    8.3457   12.8712   25.3328 C   0  0  0  0  0  0  0  0  0  0  0  0
    7.1543   11.9228   25.3748 C   0  0  2  0  0  0  0  0  0  0  0  0
    6.8823   11.2536   24.0447 C   0  0  2  0  0  0  0  0  0  0  0  0
    8.1297   10.8510   23.2841 C   0  0  1  0  0  0  0  0  0  0  0  0
    9.3246   11.7852   23.4329 C   0  0  1  0  0  0  0  0  0  0  0  0
    5.3399   12.8755   24.3631 C   0  0  0  0  0  0  0  0  0  0  0  0
   10.0240    9.6090   23.4699 C   0  0  0  0  0  0  0  0  0  0  0  0
    5.2503   14.3674   24.0693 C   0  0  0  0  0  0  0  0  0  0  0  0
    3.9462   12.2518   24.3946 C   0  0  0  0  0  0  0  0  0  0  0  0
   10.8303    9.1641   24.6832 C   0  0  0  0  0  0  0  0  0  0  0  0
   10.2441    8.6697   22.2899 C   0  0  0  0  0  0  0  0  0  0  0  0
    9.3171   12.9569   22.4579 C   0  0  0  0  0  0  0  0  0  0  0  0
   11.4036   14.4918   20.3426 N   0  0  0  0  0  0  0  0  0  0  0  0
    9.4488   15.7020   21.4873 O   0  0  0  0  0  0  0  0  0  0  0  0
   11.7567   15.8712   22.4707 O   0  0  0  0  0  0  0  0  0  0  0  0
    9.4913   12.2391   24.7802 O   0  0  0  0  0  0  0  0  0  0  0  0
    5.9611   12.6659   25.6437 O   0  0  0  0  0  0  0  0  0  0  0  0
    6.1270   12.2427   23.3409 O   0  0  0  0  0  0  0  0  0  0  0  0
    8.6330    9.6175   23.8190 O   0  0  0  0  0  0  0  0  0  0  0  0
   10.4289   10.9303   23.0820 O   0  0  0  0  0  0  0  0  0  0  0  0
   10.4631   13.7533   22.6996 O   0  0  0  0  0  0  0  0  0  0  0  0
   10.7299   15.0951   21.7994 S   0  0  0  0  0  0  0  0  0  0  0  0
    8.1306   13.7992   24.7952 H   0  0  0  0  0  0  0  0  0  0  0  0
    8.5932   13.1820   26.3543 H   0  0  0  0  0  0  0  0  0  0  0  0
    7.3124   11.1732   26.1580 H   0  0  0  0  0  0  0  0  0  0  0  0
    6.2316   10.3815   24.1896 H   0  0  0  0  0  0  0  0  0  0  0  0
    7.8966   10.6770   22.2257 H   0  0  0  0  0  0  0  0  0  0  0  0
    6.2489   14.8043   24.0486 H   0  0  0  0  0  0  0  0  0  0  0  0
    4.6628   14.8651   24.8410 H   0  0  0  0  0  0  0  0  0  0  0  0
    4.7736   14.5293   23.1023 H   0  0  0  0  0  0  0  0  0  0  0  0
    4.0232   11.1864   24.6053 H   0  0  0  0  0  0  0  0  0  0  0  0
    3.4579   12.3905   23.4314 H   0  0  0  0  0  0  0  0  0  0  0  0
    3.3469   12.7264   25.1700 H   0  0  0  0  0  0  0  0  0  0  0  0
   10.6599    9.8474   25.5154 H   0  0  0  0  0  0  0  0  0  0  0  0
   11.8935    9.1583   24.4429 H   0  0  0  0  0  0  0  0  0  0  0  0
   10.5299    8.1599   24.9830 H   0  0  0  0  0  0  0  0  0  0  0  0
    9.6595    9.0048   21.4333 H   0  0  0  0  0  0  0  0  0  0  0  0
    9.9351    7.6591   22.5561 H   0  0  0  0  0  0  0  0  0  0  0  0
   11.2989    8.6572   22.0159 H   0  0  0  0  0  0  0  0  0  0  0  0
    8.4216   13.5610   22.6070 H   0  0  0  0  0  0  0  0  0  0  0  0
    9.3449   12.5891   21.4317 H   0  0  0  0  0  0  0  0  0  0  0  0
   12.2413   14.9714   19.9888 H   0  0  0  0  0  0  0  0  0  0  0  0
   11.4672   13.4698   20.2512 H   0  0  0  0  0  0  0  0  0  0  0  0
  1  2  1  0  0  0  0
  1 16  1  0  0  0  0
  2  3  1  0  0  0  0
  2 17  1  6  0  0  0
  3  4  1  0  0  0  0
  3 18  1  6  0  0  0
  4  5  1  0  0  0  0
  4 19  1  1  0  0  0
  5 12  1  6  0  0  0
  5 16  1  0  0  0  0
  5 20  1  0  0  0  0
  6  8  1  0  0  0  0
  6  9  1  0  0  0  0
  6 17  1  0  0  0  0
  6 18  1  0  0  0  0
  7 10  1  0  0  0  0
  7 11  1  0  0  0  0
  7 19  1  0  0  0  0
  7 20  1  0  0  0  0
 12 21  1  0  0  0  0
 13 22  1  0  0  0  0
 14 22  2  0  0  0  0
 15 22  2  0  0  0  0
 21 22  1  0  0  0  0
  1 23  1  0  0  0  0
  1 24  1  0  0  0  0
  2 25  1  0  0  0  0
  3 26  1  0  0  0  0
  4 27  1  0  0  0  0
  8 28  1  0  0  0  0
  8 29  1  0  0  0  0
  8 30  1  0  0  0  0
  9 31  1  0  0  0  0
  9 32  1  0  0  0  0
  9 33  1  0  0  0  0
 10 34  1  0  0  0  0
 10 35  1  0  0  0  0
 10 36  1  0  0  0  0
 11 37  1  0  0  0  0
 11 38  1  0  0  0  0
 11 39  1  0  0  0  0
 12 40  1  0  0  0  0
 12 41  1  0  0  0  0
 13 42  1  0  0  0  0
 13 43  1  0  0  0  0
M  END
> <id>
EN300-118319

> <smiles>
CC1(C)O[C@@H]2CO[C@@]3(COS(=O)(=O)N)OC(C)(C)O[C@H]3[C@@H]2O1

> <MDLNUMBER>
MFCD00865320

> <IUPAC Name>
[(1R,2S,6S,9R)-4,4,11,11-tetramethyl-3,5,7,10,12-pentaoxatricyclo[7.3.0.0,2,6]dodecan-6-yl]methyl sulfamate

> <CAS>
97240-79-4

> <Purity>
95

> <URL>
https://www.enaminestore.com/catalog/EN300-118319

> <MP>
123-126

> <ROCS_ShapeQuery>
x0446_0A_x1080_0A_x0929_0A_x0812_0A_x0719_0A_x1140_0A_x0528_0A_x0310_0A

> <ROCS_TanimotoCombo>
0.421 

> <ROCS_ShapeTanimoto>
0.254 

> <ROCS_ColorTanimoto>
0.167 

> <ROCS_RefTversky>
0.229 

> <ROCS_RefColorTversky>
0.200 

> <ROCS_RefTverskyCombo>
0.430 

> <ROCS_FitTversky>
1.735 

> <ROCS_FitColorTversky>
0.504 

> <ROCS_FitTverskyCombo>
2.239 

> <ROCS_ColorScore>
-7.215

> <ROCS_Overlap>
2705.525

> <ROCS_Rank>
182                 

$$$$
untitled-dbase-533096_2
  -OEChem-02082415563D

 32 35  0     0  0  0  0  0  0999 V2000
   11.4323   16.4837   21.3179 C   0  0  0  0  0  0  0  0  0  0  0  0
   12.7581   16.7051   21.6864 C   0  0  0  0  0  0  0  0  0  0  0  0
    6.7619   13.2051   24.7186 C   0  0  0  0  0  0  0  0  0  0  0  0
    5.4577   11.3729   25.8247 C   0  0  0  0  0  0  0  0  0  0  0  0
   12.6396   14.7962   23.1409 C   0  0  0  0  0  0  0  0  0  0  0  0
    8.7604   14.1960   22.0249 C   0  0  0  0  0  0  0  0  0  0  0  0
    7.5563   12.1447   24.3013 C   0  0  0  0  0  0  0  0  0  0  0  0
    6.2855   10.3169   25.3840 C   0  0  0  0  0  0  0  0  0  0  0  0
   10.6992   15.4258   21.8506 C   0  0  0  0  0  0  0  0  0  0  0  0
   11.3143   14.5662   22.7793 C   0  0  0  0  0  0  0  0  0  0  0  0
    7.3689   10.7438   24.5942 C   0  0  0  0  0  0  0  0  0  0  0  0
   13.3643   15.8578   22.6020 C   0  0  0  0  0  0  0  0  0  0  0  0
    5.6865   12.7488   25.5064 C   0  0  0  0  0  0  0  0  0  0  0  0
    9.3591   13.3593   22.9287 C   0  0  0  0  0  0  0  0  0  0  0  0
    8.6762   12.2456   23.5254 C   0  0  0  0  0  0  0  0  0  0  0  0
    5.9943    8.9048   25.7486 C   0  0  0  0  0  0  0  0  0  0  0  0
    9.4214   15.2328   21.4793 N   0  0  0  0  0  0  0  0  0  0  0  0
   10.6361   13.5352   23.3131 N   0  0  0  0  0  0  0  0  0  0  0  0
    8.3510   10.0371   24.0074 N   0  0  0  0  0  0  0  0  0  0  0  0
    9.1084   10.9594   23.3823 N   0  0  0  0  0  0  0  0  0  0  0  0
   14.6374   16.0574   22.9662 F   0  0  0  0  0  0  0  0  0  0  0  0
    4.8234   13.6573   25.9885 F   0  0  0  0  0  0  0  0  0  0  0  0
   10.9694   17.1565   20.5984 H   0  0  0  0  0  0  0  0  0  0  0  0
   13.3115   17.5357   21.2594 H   0  0  0  0  0  0  0  0  0  0  0  0
    6.9177   14.2498   24.4892 H   0  0  0  0  0  0  0  0  0  0  0  0
    4.5914   11.1381   26.4432 H   0  0  0  0  0  0  0  0  0  0  0  0
   13.1283   14.1397   23.8582 H   0  0  0  0  0  0  0  0  0  0  0  0
    7.7337   14.0731   21.7003 H   0  0  0  0  0  0  0  0  0  0  0  0
    5.3419    8.4389   24.9978 H   0  0  0  0  0  0  0  0  0  0  0  0
    6.9155    8.3096   25.8214 H   0  0  0  0  0  0  0  0  0  0  0  0
    5.4977    8.8358   26.7270 H   0  0  0  0  0  0  0  0  0  0  0  0
    9.9178   10.6341   22.8684 H   0  0  0  0  0  0  0  0  0  0  0  0
  1  2  2  0  0  0  0
  1  9  1  0  0  0  0
  2 12  1  0  0  0  0
  3  7  1  0  0  0  0
  3 13  2  0  0  0  0
  4  8  2  0  0  0  0
  4 13  1  0  0  0  0
  5 10  1  0  0  0  0
  5 12  2  0  0  0  0
  6 14  1  0  0  0  0
  6 17  2  0  0  0  0
  7 11  1  0  0  0  0
  7 15  2  0  0  0  0
  8 11  1  0  0  0  0
  8 16  1  0  0  0  0
  9 10  2  0  0  0  0
  9 17  1  0  0  0  0
 10 18  1  0  0  0  0
 11 19  2  0  0  0  0
 12 21  1  0  0  0  0
 13 22  1  0  0  0  0
 14 15  1  0  0  0  0
 14 18  2  0  0  0  0
 15 20  1  0  0  0  0
 19 20  1  0  0  0  0
  1 23  1  0  0  0  0
  2 24  1  0  0  0  0
  3 25  1  0  0  0  0
  4 26  1  0  0  0  0
  5 27  1  0  0  0  0
  6 28  1  0  0  0  0
 16 29  1  0  0  0  0
 16 30  1  0  0  0  0
 16 31  1  0  0  0  0
 20 32  1  0  0  0  0
M  END
> <id>
EN300-190379

> <smiles>
CC1=CC(F)=CC2=C(NN=C12)C=3C=NC=4C=CC(F)=CC4N3

> <MDLNUMBER>
MFCD32858691

> <IUPAC Name>
7-fluoro-2-(5-fluoro-7-methyl-2H-indazol-3-yl)quinoxaline

> <CAS>
1817720-85-6

> <Purity>
95

> <URL>
https://www.enaminestore.com/catalog/EN300-190379

> <ROCS_ShapeQuery>
x0446_0A_x1080_0A_x0929_0A_x0812_0A_x0719_0A_x1140_0A_x0528_0A_x0310_0A

> <ROCS_TanimotoCombo>
0.421 

> <ROCS_ShapeTanimoto>
0.237 

> <ROCS_ColorTanimoto>
0.184 

> <ROCS_RefTversky>
0.218 

> <ROCS_RefColorTversky>
0.197 

> <ROCS_RefTverskyCombo>
0.415 

> <ROCS_FitTversky>
1.589 

> <ROCS_FitColorTversky>
0.741 

> <ROCS_FitTverskyCombo>
2.330 

> <ROCS_ColorScore>
-7.034

> <ROCS_Overlap>
2573.036

> <ROCS_Rank>
183                 

$$$$
untitled-dbase-394600_4
  -OEChem-02082415563D

 37 38  0     0  0  0  0  0  0999 V2000
   10.3315    9.5290   22.5496 C   0  0  0  0  0  0  0  0  0  0  0  0
   10.6958   10.3798   21.5004 C   0  0  0  0  0  0  0  0  0  0  0  0
    9.3579   10.2148   23.2392 C   0  0  0  0  0  0  0  0  0  0  0  0
    7.7838   10.7824   24.7429 C   0  0  0  0  0  0  0  0  0  0  0  0
    7.5193   12.1073   24.1166 C   0  0  0  0  0  0  0  0  0  0  0  0
    8.2503   12.3943   23.0244 C   0  0  0  0  0  0  0  0  0  0  0  0
    6.5159   13.0133   24.6865 C   0  0  0  0  0  0  0  0  0  0  0  0
    9.1915   14.4406   22.1287 C   0  0  0  0  0  0  0  0  0  0  0  0
   11.7039   10.1327   20.4557 C   0  0  0  0  0  0  0  0  0  0  0  0
   11.1812   16.1443   23.2650 C   0  0  0  0  0  0  0  0  0  0  0  0
   12.5988   14.0766   23.4196 C   0  0  0  0  0  0  0  0  0  0  0  0
   11.8473   14.9126   21.1736 C   0  0  0  0  0  0  0  0  0  0  0  0
   11.4809   14.7776   22.6509 C   0  0  0  0  0  0  0  0  0  0  0  0
   10.0176   11.5254   21.5029 N   0  0  0  0  0  0  0  0  0  0  0  0
    8.6366    9.8906   24.3460 N   0  0  0  0  0  0  0  0  0  0  0  0
    9.1833   11.4345   22.5791 N   0  0  0  0  0  0  0  0  0  0  0  0
    8.1485   13.5589   22.3145 N   0  0  0  0  0  0  0  0  0  0  0  0
    6.5689   14.2269   24.6211 O   0  0  0  0  0  0  0  0  0  0  0  0
    9.1458   15.4940   21.5007 O   0  0  0  0  0  0  0  0  0  0  0  0
    5.5449   12.2921   25.2831 O   0  0  0  0  0  0  0  0  0  0  0  0
   10.3078   13.9632   22.7571 O   0  0  0  0  0  0  0  0  0  0  0  0
   10.7168    8.5471   22.7846 H   0  0  0  0  0  0  0  0  0  0  0  0
    7.1794   10.5565   25.6374 H   0  0  0  0  0  0  0  0  0  0  0  0
   11.2564    9.6398   19.5756 H   0  0  0  0  0  0  0  0  0  0  0  0
   12.1809   11.0661   20.1070 H   0  0  0  0  0  0  0  0  0  0  0  0
   12.5272    9.4891   20.8143 H   0  0  0  0  0  0  0  0  0  0  0  0
   10.3792   16.6508   22.7161 H   0  0  0  0  0  0  0  0  0  0  0  0
   10.8832   16.0582   24.3150 H   0  0  0  0  0  0  0  0  0  0  0  0
   12.0576   16.7999   23.2066 H   0  0  0  0  0  0  0  0  0  0  0  0
   12.8172   13.0955   22.9824 H   0  0  0  0  0  0  0  0  0  0  0  0
   12.3022   13.8924   24.4585 H   0  0  0  0  0  0  0  0  0  0  0  0
   13.5201   14.6680   23.4217 H   0  0  0  0  0  0  0  0  0  0  0  0
   12.0623   13.9324   20.7329 H   0  0  0  0  0  0  0  0  0  0  0  0
   11.0411   15.3804   20.5993 H   0  0  0  0  0  0  0  0  0  0  0  0
   12.7560   15.5129   21.0508 H   0  0  0  0  0  0  0  0  0  0  0  0
    7.2521   13.7873   21.9000 H   0  0  0  0  0  0  0  0  0  0  0  0
    4.8535   12.8655   25.6775 H   0  0  0  0  0  0  0  0  0  0  0  0
  1  2  1  0  0  0  0
  1  3  2  0  0  0  0
  2  9  1  0  0  0  0
  2 14  2  0  0  0  0
  3 15  1  0  0  0  0
  3 16  1  0  0  0  0
  4  5  1  0  0  0  0
  4 15  2  0  0  0  0
  5  6  2  0  0  0  0
  5  7  1  0  0  0  0
  6 16  1  0  0  0  0
  6 17  1  0  0  0  0
  7 18  2  0  0  0  0
  7 20  1  0  0  0  0
  8 17  1  0  0  0  0
  8 19  2  0  0  0  0
  8 21  1  0  0  0  0
 10 13  1  0  0  0  0
 11 13  1  0  0  0  0
 12 13  1  0  0  0  0
 13 21  1  0  0  0  0
 14 16  1  0  0  0  0
  1 22  1  0  0  0  0
  4 23  1  0  0  0  0
  9 24  1  0  0  0  0
  9 25  1  0  0  0  0
  9 26  1  0  0  0  0
 10 27  1  0  0  0  0
 10 28  1  0  0  0  0
 10 29  1  0  0  0  0
 11 30  1  0  0  0  0
 11 31  1  0  0  0  0
 11 32  1  0  0  0  0
 12 33  1  0  0  0  0
 12 34  1  0  0  0  0
 12 35  1  0  0  0  0
 17 36  1  0  0  0  0
 20 37  1  0  0  0  0
M  END
> <id>
EN300-6510931

> <smiles>
CC=1C=C2N=CC(C(=O)O)=C(NC(=O)OC(C)(C)C)N2N1

> <IUPAC Name>
7-{[(tert-butoxy)carbonyl]amino}-2-methylpyrazolo[1,5-a]pyrimidine-6-carboxylic acid

> <CAS>
2248370-95-6

> <URL>
https://www.enaminestore.com/catalog/EN300-6510931

> <ROCS_ShapeQuery>
x0446_0A_x1080_0A_x0929_0A_x0812_0A_x0719_0A_x1140_0A_x0528_0A_x0310_0A

> <ROCS_TanimotoCombo>
0.421 

> <ROCS_ShapeTanimoto>
0.251 

> <ROCS_ColorTanimoto>
0.170 

> <ROCS_RefTversky>
0.227 

> <ROCS_RefColorTversky>
0.192 

> <ROCS_RefTverskyCombo>
0.418 

> <ROCS_FitTversky>
1.740 

> <ROCS_FitColorTversky>
0.602 

> <ROCS_FitTverskyCombo>
2.342 

> <ROCS_ColorScore>
-6.864

> <ROCS_Overlap>
2678.728

> <ROCS_Rank>
184                 

$$$$
untitled-dbase-420_0
  -OEChem-02082415563D

 34 37  0     0  0  0  0  0  0999 V2000
   11.4858   15.8563   21.7387 C   0  0  0  0  0  0  0  0  0  0  0  0
   10.2813   14.9697   21.9668 C   0  0  0  0  0  0  0  0  0  0  0  0
   12.1219   13.9932   22.8582 C   0  0  0  0  0  0  0  0  0  0  0  0
    8.1158   10.5167   22.4964 C   0  0  0  0  0  0  0  0  0  0  0  0
    7.6881   11.6873   24.6727 C   0  0  0  0  0  0  0  0  0  0  0  0
    9.6600   10.1556   24.4394 C   0  0  0  0  0  0  0  0  0  0  0  0
    8.4648   12.9932   22.6780 C   0  0  0  0  0  0  0  0  0  0  0  0
   10.4386   11.4598   22.4444 C   0  0  0  0  0  0  0  0  0  0  0  0
   10.0108   12.6318   24.6243 C   0  0  0  0  0  0  0  0  0  0  0  0
    7.5956   11.8119   23.1424 C   0  0  0  0  0  0  0  0  0  0  0  0
    9.5775   10.2722   22.9078 C   0  0  0  0  0  0  0  0  0  0  0  0
    9.1476   11.4488   25.0958 C   0  0  0  0  0  0  0  0  0  0  0  0
    9.9376   12.7716   23.0884 C   0  0  0  0  0  0  0  0  0  0  0  0
   12.5330   15.1953   22.3030 N   0  0  0  0  0  0  0  0  0  0  0  0
   10.7517   13.8829   22.6477 N   0  0  0  0  0  0  0  0  0  0  0  0
   11.4200   16.9183   21.1589 O   0  0  0  0  0  0  0  0  0  0  0  0
    9.1744   15.2725   21.5754 O   0  0  0  0  0  0  0  0  0  0  0  0
   12.8466   13.1852   23.4260 O   0  0  0  0  0  0  0  0  0  0  0  0
    7.4932    9.6681   22.8049 H   0  0  0  0  0  0  0  0  0  0  0  0
    8.0405   10.5860   21.4042 H   0  0  0  0  0  0  0  0  0  0  0  0
    7.3046   12.5993   25.1468 H   0  0  0  0  0  0  0  0  0  0  0  0
    7.0581   10.8590   25.0196 H   0  0  0  0  0  0  0  0  0  0  0  0
    9.0642    9.3006   24.7822 H   0  0  0  0  0  0  0  0  0  0  0  0
   10.6959    9.9647   24.7452 H   0  0  0  0  0  0  0  0  0  0  0  0
    8.3841   13.0993   21.5883 H   0  0  0  0  0  0  0  0  0  0  0  0
    8.0832   13.9237   23.1185 H   0  0  0  0  0  0  0  0  0  0  0  0
   11.4871   11.2790   22.7151 H   0  0  0  0  0  0  0  0  0  0  0  0
   10.4004   11.5341   21.3498 H   0  0  0  0  0  0  0  0  0  0  0  0
    9.6630   13.5541   25.1075 H   0  0  0  0  0  0  0  0  0  0  0  0
   11.0494   12.4760   24.9443 H   0  0  0  0  0  0  0  0  0  0  0  0
    6.5539   11.9797   22.8470 H   0  0  0  0  0  0  0  0  0  0  0  0
    9.9424    9.3481   22.4460 H   0  0  0  0  0  0  0  0  0  0  0  0
    9.2069   11.3587   26.1862 H   0  0  0  0  0  0  0  0  0  0  0  0
   13.4890   15.5318   22.3135 H   0  0  0  0  0  0  0  0  0  0  0  0
  1  2  1  0  0  0  0
  1 14  1  0  0  0  0
  1 16  2  0  0  0  0
  2 15  1  0  0  0  0
  2 17  2  0  0  0  0
  3 14  1  0  0  0  0
  3 15  1  0  0  0  0
  3 18  2  0  0  0  0
  4 10  1  0  0  0  0
  4 11  1  0  0  0  0
  5 10  1  0  0  0  0
  5 12  1  0  0  0  0
  6 11  1  0  0  0  0
  6 12  1  0  0  0  0
  7 10  1  0  0  0  0
  7 13  1  0  0  0  0
  8 11  1  0  0  0  0
  8 13  1  0  0  0  0
  9 12  1  0  0  0  0
  9 13  1  0  0  0  0
 13 15  1  0  0  0  0
  4 19  1  0  0  0  0
  4 20  1  0  0  0  0
  5 21  1  0  0  0  0
  5 22  1  0  0  0  0
  6 23  1  0  0  0  0
  6 24  1  0  0  0  0
  7 25  1  0  0  0  0
  7 26  1  0  0  0  0
  8 27  1  0  0  0  0
  8 28  1  0  0  0  0
  9 29  1  0  0  0  0
  9 30  1  0  0  0  0
 10 31  1  0  0  0  0
 11 32  1  0  0  0  0
 12 33  1  0  0  0  0
 14 34  1  0  0  0  0
M  END
> <id>
EN300-12005

> <smiles>
O=C1NC(=O)C(=O)N1C2(CC3CC4CC(C3)C2)C4

> <MDLNUMBER>
MFCD06380324

> <IUPAC Name>
1-(adamantan-1-yl)imidazolidine-2,4,5-trione

> <CAS>
37428-73-2

> <Purity>
95

> <URL>
https://www.enaminestore.com/catalog/EN300-12005

> <ROCS_ShapeQuery>
x0446_0A_x1080_0A_x0929_0A_x0812_0A_x0719_0A_x1140_0A_x0528_0A_x0310_0A

> <ROCS_TanimotoCombo>
0.421 

> <ROCS_ShapeTanimoto>
0.239 

> <ROCS_ColorTanimoto>
0.182 

> <ROCS_RefTversky>
0.216 

> <ROCS_RefColorTversky>
0.209 

> <ROCS_RefTverskyCombo>
0.425 

> <ROCS_FitTversky>
1.784 

> <ROCS_FitColorTversky>
0.588 

> <ROCS_FitTverskyCombo>
2.373 

> <ROCS_ColorScore>
-7.505

> <ROCS_Overlap>
2550.121

> <ROCS_Rank>
185                 

$$$$
untitled-dbase-44367_8
  -OEChem-02082415563D

 39 41  0     0  0  0  0  0  0999 V2000
    9.7790   11.3314   22.9236 C   0  0  0  0  0  0  0  0  0  0  0  0
    8.5844   14.5616   21.7657 C   0  0  0  0  0  0  0  0  0  0  0  0
    7.8364   12.2731   23.9966 C   0  0  0  0  0  0  0  0  0  0  0  0
    8.9764   12.4377   23.1838 C   0  0  0  0  0  0  0  0  0  0  0  0
    9.3067   13.7187   22.6316 C   0  0  0  0  0  0  0  0  0  0  0  0
    6.8288   13.1866   24.4441 C   0  0  0  0  0  0  0  0  0  0  0  0
    5.8811   12.5809   25.2395 C   0  0  0  0  0  0  0  0  0  0  0  0
    9.4195   10.1154   23.4771 C   0  0  0  0  0  0  0  0  0  0  0  0
   10.4780   14.3948   22.8710 C   0  0  0  0  0  0  0  0  0  0  0  0
    7.5952   10.9938   24.4863 C   0  0  0  0  0  0  0  0  0  0  0  0
    4.7307   13.1456   25.8720 C   0  0  0  0  0  0  0  0  0  0  0  0
   11.6573   14.0541   23.6924 C   0  0  0  0  0  0  0  0  0  0  0  0
   11.3860   17.4795   23.3299 C   0  0  0  0  0  0  0  0  0  0  0  0
   11.3787   16.6064   22.0868 C   0  0  0  0  0  0  0  0  0  0  0  0
   10.2824    8.9255   23.2037 C   0  0  0  0  0  0  0  0  0  0  0  0
    9.2418   15.6873   21.4748 N   0  0  0  0  0  0  0  0  0  0  0  0
    8.3432    9.8932   24.2615 N   0  0  0  0  0  0  0  0  0  0  0  0
   10.3894   15.5565   22.1618 N   0  0  0  0  0  0  0  0  0  0  0  0
    6.7895   14.5074   24.1371 N   0  0  0  0  0  0  0  0  0  0  0  0
    4.8638   13.6673   27.1685 N   0  0  0  0  0  0  0  0  0  0  0  0
    3.6037   13.1766   25.3164 O   0  0  0  0  0  0  0  0  0  0  0  0
   11.3574    9.2039   22.4107 F   0  0  0  0  0  0  0  0  0  0  0  0
   10.8043    8.3623   24.3316 F   0  0  0  0  0  0  0  0  0  0  0  0
    9.6059    7.9252   22.5705 F   0  0  0  0  0  0  0  0  0  0  0  0
    6.1934   10.9137   25.4542 S   0  0  0  0  0  0  0  0  0  0  0  0
   10.6666   11.4172   22.3030 H   0  0  0  0  0  0  0  0  0  0  0  0
    7.6064   14.4051   21.3322 H   0  0  0  0  0  0  0  0  0  0  0  0
   12.4056   13.5017   23.1016 H   0  0  0  0  0  0  0  0  0  0  0  0
   12.1490   14.9527   24.1015 H   0  0  0  0  0  0  0  0  0  0  0  0
   11.3885   13.4305   24.5618 H   0  0  0  0  0  0  0  0  0  0  0  0
   10.4110   17.9528   23.4867 H   0  0  0  0  0  0  0  0  0  0  0  0
   12.1374   18.2693   23.2343 H   0  0  0  0  0  0  0  0  0  0  0  0
   11.6195   16.8922   24.2242 H   0  0  0  0  0  0  0  0  0  0  0  0
   12.3580   16.1374   21.9384 H   0  0  0  0  0  0  0  0  0  0  0  0
   11.1669   17.2065   21.1946 H   0  0  0  0  0  0  0  0  0  0  0  0
    7.5293   14.9573   23.5842 H   0  0  0  0  0  0  0  0  0  0  0  0
    6.0703   15.1317   24.5222 H   0  0  0  0  0  0  0  0  0  0  0  0
    5.7712   13.6292   27.6200 H   0  0  0  0  0  0  0  0  0  0  0  0
    4.0847   14.0812   27.6702 H   0  0  0  0  0  0  0  0  0  0  0  0
  1  4  1  0  0  0  0
  1  8  2  0  0  0  0
  2  5  1  0  0  0  0
  2 16  2  0  0  0  0
  3  4  2  0  0  0  0
  3  6  1  0  0  0  0
  3 10  1  0  0  0  0
  4  5  1  0  0  0  0
  5  9  2  0  0  0  0
  6  7  2  0  0  0  0
  6 19  1  0  0  0  0
  7 11  1  0  0  0  0
  7 25  1  0  0  0  0
  8 15  1  0  0  0  0
  8 17  1  0  0  0  0
  9 12  1  0  0  0  0
  9 18  1  0  0  0  0
 10 17  2  0  0  0  0
 10 25  1  0  0  0  0
 11 20  1  0  0  0  0
 11 21  2  0  0  0  0
 13 14  1  0  0  0  0
 14 18  1  0  0  0  0
 15 22  1  0  0  0  0
 15 23  1  0  0  0  0
 15 24  1  0  0  0  0
 16 18  1  0  0  0  0
  1 26  1  0  0  0  0
  2 27  1  0  0  0  0
 12 28  1  0  0  0  0
 12 29  1  0  0  0  0
 12 30  1  0  0  0  0
 13 31  1  0  0  0  0
 13 32  1  0  0  0  0
 13 33  1  0  0  0  0
 14 34  1  0  0  0  0
 14 35  1  0  0  0  0
 19 36  1  0  0  0  0
 19 37  1  0  0  0  0
 20 38  1  0  0  0  0
 20 39  1  0  0  0  0
M  END
> <id>
EN300-228751

> <smiles>
CCN1N=CC(=C1C)C=2C=C(N=C3SC(C(=O)N)=C(N)C23)C(F)(F)F

> <MDLNUMBER>
MFCD03422770

> <IUPAC Name>
3-amino-4-(1-ethyl-5-methyl-1H-pyrazol-4-yl)-6-(trifluoromethyl)thieno[2,3-b]pyridine-2-carboxamide

> <CAS>
1005566-12-0

> <URL>
https://www.enaminestore.com/catalog/EN300-228751

> <ROCS_ShapeQuery>
x0446_0A_x1080_0A_x0929_0A_x0812_0A_x0719_0A_x1140_0A_x0528_0A_x0310_0A

> <ROCS_TanimotoCombo>
0.421 

> <ROCS_ShapeTanimoto>
0.261 

> <ROCS_ColorTanimoto>
0.160 

> <ROCS_RefTversky>
0.237 

> <ROCS_RefColorTversky>
0.178 

> <ROCS_RefTverskyCombo>
0.415 

> <ROCS_FitTversky>
1.634 

> <ROCS_FitColorTversky>
0.612 

> <ROCS_FitTverskyCombo>
2.246 

> <ROCS_ColorScore>
-6.380

> <ROCS_Overlap>
2799.543

> <ROCS_Rank>
186                 

$$$$
untitled-dbase-20062_0
  -OEChem-02082415563D

 33 36  0     0  0  0  0  0  0999 V2000
    9.8234   14.1417   22.6347 C   0  0  0  0  0  0  0  0  0  0  0  0
   11.1286   16.0703   22.2557 C   0  0  0  0  0  0  0  0  0  0  0  0
    8.3160   10.0676   22.5647 C   0  0  0  0  0  0  0  0  0  0  0  0
    7.0544   11.2749   24.3635 C   0  0  0  0  0  0  0  0  0  0  0  0
    9.3689   10.4234   24.8113 C   0  0  0  0  0  0  0  0  0  0  0  0
    7.9145   12.5338   22.3748 C   0  0  0  0  0  0  0  0  0  0  0  0
   10.2276   11.6722   22.8123 C   0  0  0  0  0  0  0  0  0  0  0  0
    8.9543   12.8908   24.6277 C   0  0  0  0  0  0  0  0  0  0  0  0
    7.3185   11.1983   22.8531 C   0  0  0  0  0  0  0  0  0  0  0  0
    9.6363   10.3378   23.2997 C   0  0  0  0  0  0  0  0  0  0  0  0
    8.3677   11.5518   25.1085 C   0  0  0  0  0  0  0  0  0  0  0  0
    9.2562   12.8549   23.1005 C   0  0  0  0  0  0  0  0  0  0  0  0
    9.2817   14.9267   21.7279 N   0  0  0  0  0  0  0  0  0  0  0  0
   10.0478   16.0575   21.5048 N   0  0  0  0  0  0  0  0  0  0  0  0
   12.0670   17.0515   22.2553 N   0  0  0  0  0  0  0  0  0  0  0  0
   11.3018   14.7132   23.2899 S   0  0  0  0  0  0  0  0  0  0  0  0
    7.8970    9.1061   22.8866 H   0  0  0  0  0  0  0  0  0  0  0  0
    8.4956    9.9910   21.4853 H   0  0  0  0  0  0  0  0  0  0  0  0
    6.3264   12.0668   24.5781 H   0  0  0  0  0  0  0  0  0  0  0  0
    6.6141   10.3339   24.7157 H   0  0  0  0  0  0  0  0  0  0  0  0
    8.9729    9.4673   25.1753 H   0  0  0  0  0  0  0  0  0  0  0  0
   10.3080   10.6037   25.3490 H   0  0  0  0  0  0  0  0  0  0  0  0
    8.0745   12.4970   21.2886 H   0  0  0  0  0  0  0  0  0  0  0  0
    7.1911   13.3423   22.5480 H   0  0  0  0  0  0  0  0  0  0  0  0
   11.1911   11.8501   23.3089 H   0  0  0  0  0  0  0  0  0  0  0  0
   10.4425   11.6117   21.7369 H   0  0  0  0  0  0  0  0  0  0  0  0
    8.2543   13.7056   24.8567 H   0  0  0  0  0  0  0  0  0  0  0  0
    9.8746   13.1100   25.1860 H   0  0  0  0  0  0  0  0  0  0  0  0
    6.3787   11.0046   22.3240 H   0  0  0  0  0  0  0  0  0  0  0  0
   10.3443    9.5264   23.0965 H   0  0  0  0  0  0  0  0  0  0  0  0
    8.1770   11.6003   26.1864 H   0  0  0  0  0  0  0  0  0  0  0  0
   12.0131   17.8509   21.6133 H   0  0  0  0  0  0  0  0  0  0  0  0
   12.9162   16.9872   22.8288 H   0  0  0  0  0  0  0  0  0  0  0  0
  1 12  1  0  0  0  0
  1 13  2  0  0  0  0
  1 16  1  0  0  0  0
  2 14  2  0  0  0  0
  2 15  1  0  0  0  0
  2 16  1  0  0  0  0
  3  9  1  0  0  0  0
  3 10  1  0  0  0  0
  4  9  1  0  0  0  0
  4 11  1  0  0  0  0
  5 10  1  0  0  0  0
  5 11  1  0  0  0  0
  6  9  1  0  0  0  0
  6 12  1  0  0  0  0
  7 10  1  0  0  0  0
  7 12  1  0  0  0  0
  8 11  1  0  0  0  0
  8 12  1  0  0  0  0
 13 14  1  0  0  0  0
  3 17  1  0  0  0  0
  3 18  1  0  0  0  0
  4 19  1  0  0  0  0
  4 20  1  0  0  0  0
  5 21  1  0  0  0  0
  5 22  1  0  0  0  0
  6 23  1  0  0  0  0
  6 24  1  0  0  0  0
  7 25  1  0  0  0  0
  7 26  1  0  0  0  0
  8 27  1  0  0  0  0
  8 28  1  0  0  0  0
  9 29  1  0  0  0  0
 10 30  1  0  0  0  0
 11 31  1  0  0  0  0
 15 32  1  0  0  0  0
 15 33  1  0  0  0  0
M  END
> <id>
EN300-02972

> <smiles>
NC1=NN=C(S1)C2(CC3CC4CC(C3)C2)C4

> <MDLNUMBER>
MFCD01826851

> <IUPAC Name>
5-(adamantan-1-yl)-1,3,4-thiadiazol-2-amine

> <CAS>
26526-57-8

> <Purity>
95

> <URL>
https://www.enaminestore.com/catalog/EN300-02972

> <MP>
200-203

> <ROCS_ShapeQuery>
x0446_0A_x1080_0A_x0929_0A_x0812_0A_x0719_0A_x1140_0A_x0528_0A_x0310_0A

> <ROCS_TanimotoCombo>
0.421 

> <ROCS_ShapeTanimoto>
0.215 

> <ROCS_ColorTanimoto>
0.206 

> <ROCS_RefTversky>
0.197 

> <ROCS_RefColorTversky>
0.232 

> <ROCS_RefTverskyCombo>
0.429 

> <ROCS_FitTversky>
1.778 

> <ROCS_FitColorTversky>
0.640 

> <ROCS_FitTverskyCombo>
2.419 

> <ROCS_ColorScore>
-8.347

> <ROCS_Overlap>
2321.794

> <ROCS_Rank>
187                 

$$$$
untitled-dbase-209163_0
  -OEChem-02082415563D

 30 33  0     0  0  0  0  0  0999 V2000
   12.6651   17.2844   21.2497 C   0  0  0  0  0  0  0  0  0  0  0  0
   11.3999   16.6909   21.2794 C   0  0  0  0  0  0  0  0  0  0  0  0
   13.7586   16.6939   21.9154 C   0  0  0  0  0  0  0  0  0  0  0  0
   11.2751   15.5119   21.9851 C   0  0  0  0  0  0  0  0  0  0  0  0
   12.3509   14.9310   22.6405 C   0  0  0  0  0  0  0  0  0  0  0  0
   13.6084   15.4986   22.6243 C   0  0  0  0  0  0  0  0  0  0  0  0
   10.1031   14.6637   22.1982 C   0  0  0  0  0  0  0  0  0  0  0  0
   11.8821   13.7029   23.2821 C   0  0  0  0  0  0  0  0  0  0  0  0
    8.0762   10.3790   24.1531 C   0  0  0  0  0  0  0  0  0  0  0  0
    9.6061   11.2823   22.4457 C   0  0  0  0  0  0  0  0  0  0  0  0
    8.2624   12.9948   23.9388 C   0  0  0  0  0  0  0  0  0  0  0  0
    9.8949   12.1123   24.9348 C   0  0  0  0  0  0  0  0  0  0  0  0
    8.3730   11.7482   24.8799 C   0  0  0  0  0  0  0  0  0  0  0  0
    9.6703   12.5188   23.4362 C   0  0  0  0  0  0  0  0  0  0  0  0
    8.7630   10.2783   22.9380 N   0  0  0  0  0  0  0  0  0  0  0  0
   10.5402   13.6136   22.9784 N   0  0  0  0  0  0  0  0  0  0  0  0
    8.9970   14.8978   21.7482 O   0  0  0  0  0  0  0  0  0  0  0  0
   12.5676   12.9427   23.9401 O   0  0  0  0  0  0  0  0  0  0  0  0
    7.3373    9.4883   24.5747 O   0  0  0  0  0  0  0  0  0  0  0  0
   10.2016   11.1738   21.3730 O   0  0  0  0  0  0  0  0  0  0  0  0
   15.1104   14.7583   23.4941 Br  0  0  0  0  0  0  0  0  0  0  0  0
   12.8101   18.2142   20.7057 H   0  0  0  0  0  0  0  0  0  0  0  0
   10.5597   17.1448   20.7673 H   0  0  0  0  0  0  0  0  0  0  0  0
   14.7244   17.1921   21.8640 H   0  0  0  0  0  0  0  0  0  0  0  0
    7.4526   12.9674   23.2039 H   0  0  0  0  0  0  0  0  0  0  0  0
    8.2403   13.9626   24.4542 H   0  0  0  0  0  0  0  0  0  0  0  0
   10.1501   12.9301   25.6195 H   0  0  0  0  0  0  0  0  0  0  0  0
   10.5790   11.2772   25.1114 H   0  0  0  0  0  0  0  0  0  0  0  0
    7.8449   11.8470   25.8329 H   0  0  0  0  0  0  0  0  0  0  0  0
    8.6441    9.4346   22.3854 H   0  0  0  0  0  0  0  0  0  0  0  0
  1  2  1  0  0  0  0
  1  3  2  0  0  0  0
  2  4  2  0  0  0  0
  3  6  1  0  0  0  0
  4  5  1  0  0  0  0
  4  7  1  0  0  0  0
  5  6  2  0  0  0  0
  5  8  1  0  0  0  0
  6 21  1  0  0  0  0
  7 16  1  0  0  0  0
  7 17  2  0  0  0  0
  8 16  1  0  0  0  0
  8 18  2  0  0  0  0
  9 13  1  0  0  0  0
  9 15  1  0  0  0  0
  9 19  2  0  0  0  0
 10 14  1  0  0  0  0
 10 15  1  0  0  0  0
 10 20  2  0  0  0  0
 11 13  1  0  0  0  0
 11 14  1  0  0  0  0
 12 13  1  0  0  0  0
 12 14  1  0  0  0  0
 14 16  1  0  0  0  0
  1 22  1  0  0  0  0
  2 23  1  0  0  0  0
  3 24  1  0  0  0  0
 11 25  1  0  0  0  0
 11 26  1  0  0  0  0
 12 27  1  0  0  0  0
 12 28  1  0  0  0  0
 13 29  1  0  0  0  0
 15 30  1  0  0  0  0
M  END
> <id>
EN300-27752567

> <smiles>
BrC=1C=CC=C2C(=O)N(C(=O)C21)C3(CC4C3)C(=O)NC4=O

> <MDLNUMBER>
MFCD34167599

> <IUPAC Name>
4-bromo-2-{2,4-dioxo-3-azabicyclo[3.1.1]heptan-1-yl}-2,3-dihydro-1H-isoindole-1,3-dione

> <CAS>
2648939-39-1

> <Purity>
95

> <URL>
https://www.enaminestore.com/catalog/EN300-27752567

> <ROCS_ShapeQuery>
x0446_0A_x1080_0A_x0929_0A_x0812_0A_x0719_0A_x1140_0A_x0528_0A_x0310_0A

> <ROCS_TanimotoCombo>
0.421 

> <ROCS_ShapeTanimoto>
0.235 

> <ROCS_ColorTanimoto>
0.185 

> <ROCS_RefTversky>
0.216 

> <ROCS_RefColorTversky>
0.222 

> <ROCS_RefTverskyCombo>
0.438 

> <ROCS_FitTversky>
1.641 

> <ROCS_FitColorTversky>
0.527 

> <ROCS_FitTverskyCombo>
2.168 

> <ROCS_ColorScore>
-8.011

> <ROCS_Overlap>
2547.328

> <ROCS_Rank>
188                 

$$$$
untitled-dbase-10230_4
  -OEChem-02082415563D

 35 37  0     1  0  0  0  0  0999 V2000
    6.2078   12.6429   24.7705 C   0  0  0  0  0  0  0  0  0  0  0  0
   10.1368   14.7411   22.3084 C   0  0  0  0  0  0  0  0  0  0  0  0
    9.3161    9.7285   24.0788 C   0  0  0  0  0  0  0  0  0  0  0  0
    7.1046   10.7367   23.4614 C   0  0  0  0  0  0  0  0  0  0  0  0
    8.4100   11.6579   25.3997 C   0  0  0  0  0  0  0  0  0  0  0  0
    9.0916   11.0635   21.9672 C   0  0  0  0  0  0  0  0  0  0  0  0
   10.3977   11.9850   23.9065 C   0  0  0  0  0  0  0  0  0  0  0  0
    8.1821   12.9990   23.2883 C   0  0  0  0  0  0  0  0  0  0  0  0
    8.3800   10.0779   22.9103 C   0  0  1  0  0  0  0  0  0  0  0  0
    9.6895   11.0020   24.8550 C   0  0  2  0  0  0  0  0  0  0  0  0
    7.4653   12.0183   24.2370 C   0  0  0  0  0  0  0  0  0  0  0  0
    9.4724   12.3579   22.7241 C   0  0  0  0  0  0  0  0  0  0  0  0
   10.1824   13.3341   21.7822 C   0  0  0  0  0  0  0  0  0  0  0  0
    5.8110   13.7658   24.4965 O   0  0  0  0  0  0  0  0  0  0  0  0
   10.5957   15.1380   23.3689 O   0  0  0  0  0  0  0  0  0  0  0  0
    5.5666   11.7896   25.6059 O   0  0  0  0  0  0  0  0  0  0  0  0
    9.4960   15.5402   21.4171 O   0  0  0  0  0  0  0  0  0  0  0  0
    8.8264    9.0115   24.7493 H   0  0  0  0  0  0  0  0  0  0  0  0
   10.2229    9.2415   23.6995 H   0  0  0  0  0  0  0  0  0  0  0  0
    6.4175   10.9692   22.6370 H   0  0  0  0  0  0  0  0  0  0  0  0
    6.5723   10.0322   24.1140 H   0  0  0  0  0  0  0  0  0  0  0  0
    7.9122   10.9750   26.1007 H   0  0  0  0  0  0  0  0  0  0  0  0
    8.6653   12.5565   25.9765 H   0  0  0  0  0  0  0  0  0  0  0  0
    9.9897   10.5899   21.5499 H   0  0  0  0  0  0  0  0  0  0  0  0
    8.4367   11.2990   21.1184 H   0  0  0  0  0  0  0  0  0  0  0  0
   10.6873   12.8873   24.4605 H   0  0  0  0  0  0  0  0  0  0  0  0
   11.3259   11.5329   23.5339 H   0  0  0  0  0  0  0  0  0  0  0  0
    7.5132   13.2855   22.4651 H   0  0  0  0  0  0  0  0  0  0  0  0
    8.4221   13.9294   23.8212 H   0  0  0  0  0  0  0  0  0  0  0  0
    8.1176    9.1663   22.3620 H   0  0  0  0  0  0  0  0  0  0  0  0
   10.3560   10.7462   25.6862 H   0  0  0  0  0  0  0  0  0  0  0  0
   11.2240   13.0264   21.6789 H   0  0  0  0  0  0  0  0  0  0  0  0
    9.6904   13.3024   20.8090 H   0  0  0  0  0  0  0  0  0  0  0  0
    4.7424   12.1804   25.9670 H   0  0  0  0  0  0  0  0  0  0  0  0
    9.4474   16.4694   21.7280 H   0  0  0  0  0  0  0  0  0  0  0  0
  1 11  1  0  0  0  0
  1 14  2  0  0  0  0
  1 16  1  0  0  0  0
  2 13  1  0  0  0  0
  2 15  2  0  0  0  0
  2 17  1  0  0  0  0
  3  9  1  0  0  0  0
  3 10  1  0  0  0  0
  4  9  1  0  0  0  0
  4 11  1  0  0  0  0
  5 10  1  0  0  0  0
  5 11  1  0  0  0  0
  6  9  1  0  0  0  0
  6 12  1  0  0  0  0
  7 10  1  0  0  0  0
  7 12  1  0  0  0  0
  8 11  1  0  0  0  0
  8 12  1  0  0  0  0
 12 13  1  0  0  0  0
  3 18  1  0  0  0  0
  3 19  1  0  0  0  0
  4 20  1  0  0  0  0
  4 21  1  0  0  0  0
  5 22  1  0  0  0  0
  5 23  1  0  0  0  0
  6 24  1  0  0  0  0
  6 25  1  0  0  0  0
  7 26  1  0  0  0  0
  7 27  1  0  0  0  0
  8 28  1  0  0  0  0
  8 29  1  0  0  0  0
  9 30  1  0  0  0  0
 10 31  1  0  0  0  0
 13 32  1  0  0  0  0
 13 33  1  0  0  0  0
 16 34  1  0  0  0  0
 17 35  1  0  0  0  0
M  END
> <id>
EN300-54116

> <smiles>
OC(=O)CC1(CC2CC3C1)CC(C2)(C3)C(=O)O

> <IUPAC Name>
3-(carboxymethyl)adamantane-1-carboxylic acid

> <CAS>
56531-58-9

> <Purity>
95

> <URL>
https://www.enaminestore.com/catalog/EN300-54116

> <ROCS_ShapeQuery>
x0446_0A_x1080_0A_x0929_0A_x0812_0A_x0719_0A_x1140_0A_x0528_0A_x0310_0A

> <ROCS_TanimotoCombo>
0.421 

> <ROCS_ShapeTanimoto>
0.228 

> <ROCS_ColorTanimoto>
0.193 

> <ROCS_RefTversky>
0.207 

> <ROCS_RefColorTversky>
0.224 

> <ROCS_RefTverskyCombo>
0.430 

> <ROCS_FitTversky>
1.808 

> <ROCS_FitColorTversky>
0.586 

> <ROCS_FitTverskyCombo>
2.394 

> <ROCS_ColorScore>
-8.040

> <ROCS_Overlap>
2438.206

> <ROCS_Rank>
189                 

$$$$
untitled-dbase-514013_0
  -OEChem-02082415563D

 36 38  0     0  0  0  0  0  0999 V2000
    8.3102   13.8937   22.1081 C   0  0  0  0  0  0  0  0  0  0  0  0
    7.6051   14.9559   24.6276 C   0  0  0  0  0  0  0  0  0  0  0  0
    9.6352    9.7198   23.8316 C   0  0  0  0  0  0  0  0  0  0  0  0
    7.7777   10.9205   22.6599 C   0  0  0  0  0  0  0  0  0  0  0  0
   10.1728   11.4547   22.1039 C   0  0  0  0  0  0  0  0  0  0  0  0
    8.2353   11.3899   25.0692 C   0  0  0  0  0  0  0  0  0  0  0  0
   10.6362   11.9109   24.5087 C   0  0  0  0  0  0  0  0  0  0  0  0
    9.1909   10.3352   22.4947 C   0  0  0  0  0  0  0  0  0  0  0  0
    9.6514   10.8027   24.9229 C   0  0  0  0  0  0  0  0  0  0  0  0
    7.7795   12.0306   23.7369 C   0  0  0  0  0  0  0  0  0  0  0  0
   10.1788   12.5651   23.1829 C   0  0  0  0  0  0  0  0  0  0  0  0
    8.7576   13.1650   23.3443 C   0  0  0  0  0  0  0  0  0  0  0  0
    7.8212   16.0176   25.6544 C   0  0  0  0  0  0  0  0  0  0  0  0
    8.7432   14.2399   24.3127 N   0  0  0  0  0  0  0  0  0  0  0  0
    7.2987   13.6397   21.4711 O   0  0  0  0  0  0  0  0  0  0  0  0
    6.4871   14.7930   24.1530 O   0  0  0  0  0  0  0  0  0  0  0  0
    9.1864   14.8773   21.7887 O   0  0  0  0  0  0  0  0  0  0  0  0
    8.9541    8.9084   24.1165 H   0  0  0  0  0  0  0  0  0  0  0  0
   10.6329    9.2757   23.7276 H   0  0  0  0  0  0  0  0  0  0  0  0
    7.4257   11.3200   21.7015 H   0  0  0  0  0  0  0  0  0  0  0  0
    7.0750   10.1272   22.9437 H   0  0  0  0  0  0  0  0  0  0  0  0
   11.1828   11.0417   21.9880 H   0  0  0  0  0  0  0  0  0  0  0  0
    9.8931   11.8727   21.1297 H   0  0  0  0  0  0  0  0  0  0  0  0
    7.5331   10.5983   25.3597 H   0  0  0  0  0  0  0  0  0  0  0  0
    8.2184   12.1309   25.8772 H   0  0  0  0  0  0  0  0  0  0  0  0
   10.7029   12.6653   25.3015 H   0  0  0  0  0  0  0  0  0  0  0  0
   11.6438   11.4929   24.3907 H   0  0  0  0  0  0  0  0  0  0  0  0
    9.1829    9.5620   21.7184 H   0  0  0  0  0  0  0  0  0  0  0  0
    9.9694   10.3624   25.8744 H   0  0  0  0  0  0  0  0  0  0  0  0
    6.7589   12.4189   23.8431 H   0  0  0  0  0  0  0  0  0  0  0  0
   10.8962   13.3403   22.8860 H   0  0  0  0  0  0  0  0  0  0  0  0
    8.0989   16.9854   25.2067 H   0  0  0  0  0  0  0  0  0  0  0  0
    6.9145   16.2204   26.2468 H   0  0  0  0  0  0  0  0  0  0  0  0
    8.6089   15.8042   26.3945 H   0  0  0  0  0  0  0  0  0  0  0  0
    9.6103   14.4789   24.7828 H   0  0  0  0  0  0  0  0  0  0  0  0
    8.9126   15.3642   20.9823 H   0  0  0  0  0  0  0  0  0  0  0  0
  1 12  1  0  0  0  0
  1 15  2  0  0  0  0
  1 17  1  0  0  0  0
  2 13  1  0  0  0  0
  2 14  1  0  0  0  0
  2 16  2  0  0  0  0
  3  8  1  0  0  0  0
  3  9  1  0  0  0  0
  4  8  1  0  0  0  0
  4 10  1  0  0  0  0
  5  8  1  0  0  0  0
  5 11  1  0  0  0  0
  6  9  1  0  0  0  0
  6 10  1  0  0  0  0
  7  9  1  0  0  0  0
  7 11  1  0  0  0  0
 10 12  1  0  0  0  0
 11 12  1  0  0  0  0
 12 14  1  0  0  0  0
  3 18  1  0  0  0  0
  3 19  1  0  0  0  0
  4 20  1  0  0  0  0
  4 21  1  0  0  0  0
  5 22  1  0  0  0  0
  5 23  1  0  0  0  0
  6 24  1  0  0  0  0
  6 25  1  0  0  0  0
  7 26  1  0  0  0  0
  7 27  1  0  0  0  0
  8 28  1  0  0  0  0
  9 29  1  0  0  0  0
 10 30  1  0  0  0  0
 11 31  1  0  0  0  0
 13 32  1  0  0  0  0
 13 33  1  0  0  0  0
 13 34  1  0  0  0  0
 14 35  1  0  0  0  0
 17 36  1  0  0  0  0
M  END
> <id>
EN300-13159428

> <smiles>
CC(=O)NC1(C2CC3CC(C2)CC1C3)C(=O)O

> <IUPAC Name>
2-acetamidoadamantane-2-carboxylic acid

> <CAS>
221051-06-5

> <URL>
https://www.enaminestore.com/catalog/EN300-13159428

> <ROCS_ShapeQuery>
x0446_0A_x1080_0A_x0929_0A_x0812_0A_x0719_0A_x1140_0A_x0528_0A_x0310_0A

> <ROCS_TanimotoCombo>
0.421 

> <ROCS_ShapeTanimoto>
0.225 

> <ROCS_ColorTanimoto>
0.196 

> <ROCS_RefTversky>
0.205 

> <ROCS_RefColorTversky>
0.222 

> <ROCS_RefTverskyCombo>
0.427 

> <ROCS_FitTversky>
1.780 

> <ROCS_FitColorTversky>
0.625 

> <ROCS_FitTverskyCombo>
2.406 

> <ROCS_ColorScore>
-7.971

> <ROCS_Overlap>
2413.970

> <ROCS_Rank>
190                 

$$$$
untitled-dbase-370948_6
  -OEChem-02082415563D

 42 44  0     0  0  0  0  0  0999 V2000
    8.7607   16.3326   21.5369 C   0  0  0  0  0  0  0  0  0  0  0  0
    7.4940   10.6605   24.0739 C   0  0  0  0  0  0  0  0  0  0  0  0
    9.3639   11.7951   23.8462 C   0  0  0  0  0  0  0  0  0  0  0  0
    9.5909   10.4459   23.8418 C   0  0  0  0  0  0  0  0  0  0  0  0
   10.3811   12.7877   23.7174 C   0  0  0  0  0  0  0  0  0  0  0  0
   11.9746   10.7912   23.5709 C   0  0  0  0  0  0  0  0  0  0  0  0
    7.4256   14.0170   22.8323 C   0  0  0  0  0  0  0  0  0  0  0  0
    6.7392   18.6672   21.5855 C   0  0  0  0  0  0  0  0  0  0  0  0
    6.1975   17.7179   20.5175 C   0  0  0  0  0  0  0  0  0  0  0  0
    7.1654   17.7882   22.7604 C   0  0  0  0  0  0  0  0  0  0  0  0
    6.3178   16.3100   21.0987 C   0  0  0  0  0  0  0  0  0  0  0  0
    7.4243   16.4065   22.1529 C   0  0  0  0  0  0  0  0  0  0  0  0
   11.0574    8.4715   23.7083 C   0  0  0  0  0  0  0  0  0  0  0  0
   12.7777   13.1370   23.4476 C   0  0  0  0  0  0  0  0  0  0  0  0
    7.2524   13.1516   24.0621 C   0  0  0  0  0  0  0  0  0  0  0  0
    9.8131   16.2745   21.0518 N   0  0  0  0  0  0  0  0  0  0  0  0
    8.4285    9.7367   23.9838 N   0  0  0  0  0  0  0  0  0  0  0  0
    8.0131   11.9270   23.9957 N   0  0  0  0  0  0  0  0  0  0  0  0
   10.8673    9.9170   23.7074 N   0  0  0  0  0  0  0  0  0  0  0  0
   11.6672   12.1998   23.5842 N   0  0  0  0  0  0  0  0  0  0  0  0
    7.3050   15.3643   23.1409 N   0  0  0  0  0  0  0  0  0  0  0  0
   10.1647   13.9969   23.7219 O   0  0  0  0  0  0  0  0  0  0  0  0
   13.1301   10.3701   23.4481 O   0  0  0  0  0  0  0  0  0  0  0  0
    7.6424   13.5647   21.7114 O   0  0  0  0  0  0  0  0  0  0  0  0
    6.4352   10.4760   24.1955 H   0  0  0  0  0  0  0  0  0  0  0  0
    7.5780   19.2639   21.2121 H   0  0  0  0  0  0  0  0  0  0  0  0
    5.9535   19.3661   21.8958 H   0  0  0  0  0  0  0  0  0  0  0  0
    5.1492   17.9563   20.3031 H   0  0  0  0  0  0  0  0  0  0  0  0
    6.7506   17.8068   19.5767 H   0  0  0  0  0  0  0  0  0  0  0  0
    8.0854   18.1985   23.2018 H   0  0  0  0  0  0  0  0  0  0  0  0
    6.4133   17.7756   23.5596 H   0  0  0  0  0  0  0  0  0  0  0  0
    5.3644   15.9491   21.5045 H   0  0  0  0  0  0  0  0  0  0  0  0
    6.6020   15.6127   20.2971 H   0  0  0  0  0  0  0  0  0  0  0  0
   10.9902    8.0916   22.6782 H   0  0  0  0  0  0  0  0  0  0  0  0
   12.0476    8.2323   24.1233 H   0  0  0  0  0  0  0  0  0  0  0  0
   10.2778    7.9997   24.3245 H   0  0  0  0  0  0  0  0  0  0  0  0
   13.1708   13.3882   24.4438 H   0  0  0  0  0  0  0  0  0  0  0  0
   13.5741   12.6763   22.8447 H   0  0  0  0  0  0  0  0  0  0  0  0
   12.4252   14.0530   22.9510 H   0  0  0  0  0  0  0  0  0  0  0  0
    6.1955   12.8896   24.1850 H   0  0  0  0  0  0  0  0  0  0  0  0
    7.5737   13.7027   24.9531 H   0  0  0  0  0  0  0  0  0  0  0  0
    7.0903   15.6388   24.0949 H   0  0  0  0  0  0  0  0  0  0  0  0
  1 12  1  0  0  0  0
  1 16  3  0  0  0  0
  2 17  2  0  0  0  0
  2 18  1  0  0  0  0
  3  4  2  0  0  0  0
  3  5  1  0  0  0  0
  3 18  1  0  0  0  0
  4 17  1  0  0  0  0
  4 19  1  0  0  0  0
  5 20  1  0  0  0  0
  5 22  2  0  0  0  0
  6 19  1  0  0  0  0
  6 20  1  0  0  0  0
  6 23  2  0  0  0  0
  7 15  1  0  0  0  0
  7 21  1  0  0  0  0
  7 24  2  0  0  0  0
  8  9  1  0  0  0  0
  8 10  1  0  0  0  0
  9 11  1  0  0  0  0
 10 12  1  0  0  0  0
 11 12  1  0  0  0  0
 12 21  1  0  0  0  0
 13 19  1  0  0  0  0
 14 20  1  0  0  0  0
 15 18  1  0  0  0  0
  2 25  1  0  0  0  0
  8 26  1  0  0  0  0
  8 27  1  0  0  0  0
  9 28  1  0  0  0  0
  9 29  1  0  0  0  0
 10 30  1  0  0  0  0
 10 31  1  0  0  0  0
 11 32  1  0  0  0  0
 11 33  1  0  0  0  0
 13 34  1  0  0  0  0
 13 35  1  0  0  0  0
 13 36  1  0  0  0  0
 14 37  1  0  0  0  0
 14 38  1  0  0  0  0
 14 39  1  0  0  0  0
 15 40  1  0  0  0  0
 15 41  1  0  0  0  0
 21 42  1  0  0  0  0
M  END
> <id>
EN300-26688535

> <smiles>
CN1C(=O)N(C)C=2N=CN(CC(=O)NC3(CCCC3)C#N)C2C1=O

> <IUPAC Name>
N-(1-cyanocyclopentyl)-2-(1,3-dimethyl-2,6-dioxo-2,3,6,7-tetrahydro-1H-purin-7-yl)acetamide

> <CAS>
875530-12-4

> <URL>
https://www.enaminestore.com/catalog/EN300-26688535

> <ROCS_ShapeQuery>
x0446_0A_x1080_0A_x0929_0A_x0812_0A_x0719_0A_x1140_0A_x0528_0A_x0310_0A

> <ROCS_TanimotoCombo>
0.421 

> <ROCS_ShapeTanimoto>
0.240 

> <ROCS_ColorTanimoto>
0.181 

> <ROCS_RefTversky>
0.221 

> <ROCS_RefColorTversky>
0.202 

> <ROCS_RefTverskyCombo>
0.423 

> <ROCS_FitTversky>
1.560 

> <ROCS_FitColorTversky>
0.635 

> <ROCS_FitTverskyCombo>
2.195 

> <ROCS_ColorScore>
-7.231

> <ROCS_Overlap>
2608.549

> <ROCS_Rank>
191                 

$$$$
untitled-dbase-324200_6
  -OEChem-02082415563D

 41 44  0     1  0  0  0  0  0999 V2000
   13.0764   18.6451   22.9191 C   0  0  0  0  0  0  0  0  0  0  0  0
   11.7081   18.3760   22.9487 C   0  0  0  0  0  0  0  0  0  0  0  0
   13.9010   17.9691   22.0198 C   0  0  0  0  0  0  0  0  0  0  0  0
   11.1643   17.4307   22.0790 C   0  0  0  0  0  0  0  0  0  0  0  0
   13.3572   17.0237   21.1502 C   0  0  0  0  0  0  0  0  0  0  0  0
   11.9889   16.7545   21.1797 C   0  0  0  0  0  0  0  0  0  0  0  0
   10.3285   14.1237   21.6089 C   0  0  0  0  0  0  0  0  0  0  0  0
    7.3478   11.3068   24.5477 C   0  0  0  0  0  0  0  0  0  0  0  0
    9.7910   10.9075   25.0425 C   0  0  0  0  0  0  0  0  0  0  0  0
    8.7803    9.8765   23.0386 C   0  0  0  0  0  0  0  0  0  0  0  0
    9.1814   13.0203   24.2697 C   0  0  0  0  0  0  0  0  0  0  0  0
    8.1665   11.9849   22.2573 C   0  0  0  0  0  0  0  0  0  0  0  0
    8.6393   11.9085   25.1713 C   0  0  1  0  0  0  0  0  0  0  0  0
    7.5868   10.8351   23.0848 C   0  0  2  0  0  0  0  0  0  0  0  0
    9.9164   10.7972   23.5138 C   0  0  0  0  0  0  0  0  0  0  0  0
    9.5024   12.2227   22.9890 C   0  0  0  0  0  0  0  0  0  0  0  0
   11.4046   15.7373   20.2441 C   0  0  0  0  0  0  0  0  0  0  0  0
   10.4805   12.8615   22.1638 N   0  0  0  0  0  0  0  0  0  0  0  0
    9.3479   14.8464   21.7523 O   0  0  0  0  0  0  0  0  0  0  0  0
   11.4331   14.4517   20.8743 O   0  0  0  0  0  0  0  0  0  0  0  0
   13.4995   19.3822   23.5954 H   0  0  0  0  0  0  0  0  0  0  0  0
   11.0658   18.9031   23.6481 H   0  0  0  0  0  0  0  0  0  0  0  0
   14.9662   18.1792   21.9958 H   0  0  0  0  0  0  0  0  0  0  0  0
   10.0971   17.2273   22.1092 H   0  0  0  0  0  0  0  0  0  0  0  0
   14.0073   16.5018   20.4530 H   0  0  0  0  0  0  0  0  0  0  0  0
    7.0118   10.4573   25.1542 H   0  0  0  0  0  0  0  0  0  0  0  0
    6.5505   12.0594   24.5627 H   0  0  0  0  0  0  0  0  0  0  0  0
   10.7136   11.3113   25.4769 H   0  0  0  0  0  0  0  0  0  0  0  0
    9.5790    9.9511   25.5311 H   0  0  0  0  0  0  0  0  0  0  0  0
    8.6410    8.9946   23.6718 H   0  0  0  0  0  0  0  0  0  0  0  0
    8.9677    9.5316   22.0144 H   0  0  0  0  0  0  0  0  0  0  0  0
    8.4567   13.8256   24.1097 H   0  0  0  0  0  0  0  0  0  0  0  0
   10.0873   13.4616   24.7048 H   0  0  0  0  0  0  0  0  0  0  0  0
    8.3280   11.6681   21.2190 H   0  0  0  0  0  0  0  0  0  0  0  0
    7.5150   12.8652   22.2441 H   0  0  0  0  0  0  0  0  0  0  0  0
    8.4777   12.2387   26.2008 H   0  0  0  0  0  0  0  0  0  0  0  0
    6.6831   10.4085   22.6423 H   0  0  0  0  0  0  0  0  0  0  0  0
   10.9023   10.4460   23.1979 H   0  0  0  0  0  0  0  0  0  0  0  0
   10.3690   15.9877   19.9902 H   0  0  0  0  0  0  0  0  0  0  0  0
   11.9783   15.6932   19.3120 H   0  0  0  0  0  0  0  0  0  0  0  0
   11.3473   12.3554   21.9705 H   0  0  0  0  0  0  0  0  0  0  0  0
  1  2  1  0  0  0  0
  1  3  2  0  0  0  0
  2  4  2  0  0  0  0
  3  5  1  0  0  0  0
  4  6  1  0  0  0  0
  5  6  2  0  0  0  0
  6 17  1  0  0  0  0
  7 18  1  0  0  0  0
  7 19  2  0  0  0  0
  7 20  1  0  0  0  0
  8 13  1  0  0  0  0
  8 14  1  0  0  0  0
  9 13  1  0  0  0  0
  9 15  1  0  0  0  0
 10 14  1  0  0  0  0
 10 15  1  0  0  0  0
 11 13  1  0  0  0  0
 11 16  1  0  0  0  0
 12 14  1  0  0  0  0
 12 16  1  0  0  0  0
 15 16  1  0  0  0  0
 16 18  1  0  0  0  0
 17 20  1  0  0  0  0
  1 21  1  0  0  0  0
  2 22  1  0  0  0  0
  3 23  1  0  0  0  0
  4 24  1  0  0  0  0
  5 25  1  0  0  0  0
  8 26  1  0  0  0  0
  8 27  1  0  0  0  0
  9 28  1  0  0  0  0
  9 29  1  0  0  0  0
 10 30  1  0  0  0  0
 10 31  1  0  0  0  0
 11 32  1  0  0  0  0
 11 33  1  0  0  0  0
 12 34  1  0  0  0  0
 12 35  1  0  0  0  0
 13 36  1  0  0  0  0
 14 37  1  0  0  0  0
 15 38  1  0  0  0  0
 17 39  1  0  0  0  0
 17 40  1  0  0  0  0
 18 41  1  0  0  0  0
M  END
> <id>
EN300-37447152

> <smiles>
O=C(NC12CC3CC2CC(C1)C3)OCC=4C=CC=CC4

> <IUPAC Name>
benzyl N-{tricyclo[3.3.1.0,3,7]nonan-3-yl}carbamate

> <URL>
https://www.enaminestore.com/catalog/EN300-37447152

> <ROCS_ShapeQuery>
x0446_0A_x1080_0A_x0929_0A_x0812_0A_x0719_0A_x1140_0A_x0528_0A_x0310_0A

> <ROCS_TanimotoCombo>
0.420 

> <ROCS_ShapeTanimoto>
0.207 

> <ROCS_ColorTanimoto>
0.213 

> <ROCS_RefTversky>
0.193 

> <ROCS_RefColorTversky>
0.294 

> <ROCS_RefTverskyCombo>
0.487 

> <ROCS_FitTversky>
1.530 

> <ROCS_FitColorTversky>
0.438 

> <ROCS_FitTverskyCombo>
1.969 

> <ROCS_ColorScore>
-10.727

> <ROCS_Overlap>
2281.387

> <ROCS_Rank>
192                 

$$$$
untitled-dbase-257765_2
  -OEChem-02082415563D

 45 49  0     1  0  0  0  0  0999 V2000
    6.6437   13.0238   25.6549 C   0  0  0  0  0  0  0  0  0  0  0  0
    5.8007   13.9397   24.9878 C   0  0  0  0  0  0  0  0  0  0  0  0
    7.6155   12.3190   24.9455 C   0  0  0  0  0  0  0  0  0  0  0  0
    7.6845   12.5540   23.5842 C   0  0  0  0  0  0  0  0  0  0  0  0
    6.9130   13.4973   22.9366 C   0  0  0  0  0  0  0  0  0  0  0  0
    5.9383   14.1924   23.6146 C   0  0  0  0  0  0  0  0  0  0  0  0
    9.6405   14.1258   21.8242 C   0  0  0  0  0  0  0  0  0  0  0  0
   12.2352    8.4344   24.3791 C   0  0  0  0  0  0  0  0  0  0  0  0
   10.9467    8.2539   24.6906 C   0  0  0  0  0  0  0  0  0  0  0  0
    8.6407   11.4109   25.5760 C   0  0  0  0  0  0  0  0  0  0  0  0
   10.9504   13.7311   22.4686 C   0  0  0  0  0  0  0  0  0  0  0  0
   10.7150   12.8577   23.7007 C   0  0  0  0  0  0  0  0  0  0  0  0
    7.9814   10.5903   22.1032 C   0  0  0  0  0  0  0  0  0  0  0  0
    7.7768    9.5602   23.2287 C   0  0  0  0  0  0  0  0  0  0  0  0
    8.6086   13.0221   21.5706 C   0  0  1  0  0  0  0  0  0  0  0  0
    9.5722   10.6705   24.5485 C   0  0  2  0  0  0  0  0  0  0  0  0
    8.6175   11.9013   22.6221 C   0  0  1  0  0  0  0  0  0  0  0  0
    9.9401   11.5789   23.3267 C   0  0  1  0  0  0  0  0  0  0  0  0
    9.8288    8.3607   23.7059 C   0  0  0  0  0  0  0  0  0  0  0  0
    8.9067    9.3994   24.1538 N   0  0  2  0  0  0  0  0  0  0  0  0
    9.4473   15.2849   21.4533 O   0  0  0  0  0  0  0  0  0  0  0  0
    7.2911   13.6586   21.6237 O   0  0  0  0  0  0  0  0  0  0  0  0
    5.1579   15.1111   22.9955 O   0  0  0  0  0  0  0  0  0  0  0  0
   10.7943   10.8628   22.4270 O   0  0  0  0  0  0  0  0  0  0  0  0
    6.5395   12.8884   26.7278 H   0  0  0  0  0  0  0  0  0  0  0  0
    5.0515   14.4793   25.5630 H   0  0  0  0  0  0  0  0  0  0  0  0
   13.0025    8.3366   25.1393 H   0  0  0  0  0  0  0  0  0  0  0  0
   12.5460    8.6814   23.3699 H   0  0  0  0  0  0  0  0  0  0  0  0
   10.6907    8.0015   25.7167 H   0  0  0  0  0  0  0  0  0  0  0  0
    9.2817   12.0366   26.2092 H   0  0  0  0  0  0  0  0  0  0  0  0
    8.1432   10.7039   26.2448 H   0  0  0  0  0  0  0  0  0  0  0  0
   11.5646   13.2221   21.7178 H   0  0  0  0  0  0  0  0  0  0  0  0
   11.4808   14.6425   22.7686 H   0  0  0  0  0  0  0  0  0  0  0  0
   11.6907   12.5875   24.1228 H   0  0  0  0  0  0  0  0  0  0  0  0
   10.1878   13.4435   24.4610 H   0  0  0  0  0  0  0  0  0  0  0  0
    8.6218   10.1544   21.3259 H   0  0  0  0  0  0  0  0  0  0  0  0
    7.0120   10.7789   21.6238 H   0  0  0  0  0  0  0  0  0  0  0  0
    6.8529    9.8076   23.7904 H   0  0  0  0  0  0  0  0  0  0  0  0
    7.5591    8.5845   22.7501 H   0  0  0  0  0  0  0  0  0  0  0  0
    8.7760   12.6386   20.5587 H   0  0  0  0  0  0  0  0  0  0  0  0
   10.4791   10.3944   25.0904 H   0  0  0  0  0  0  0  0  0  0  0  0
    9.2908    7.4093   23.6518 H   0  0  0  0  0  0  0  0  0  0  0  0
   10.1817    8.6122   22.7007 H   0  0  0  0  0  0  0  0  0  0  0  0
    4.5436   15.5207   23.6285 H   0  0  0  0  0  0  0  0  0  0  0  0
   11.6047   10.6821   22.9210 H   0  0  0  0  0  0  0  0  0  0  0  0
  1  2  2  0  0  0  0
  1  3  1  0  0  0  0
  2  6  1  0  0  0  0
  3  4  2  0  0  0  0
  3 10  1  0  0  0  0
  4  5  1  0  0  0  0
  4 17  1  1  0  0  0
  5  6  2  0  0  0  0
  5 22  1  0  0  0  0
  6 23  1  0  0  0  0
  7 11  1  0  0  0  0
  7 15  1  0  0  0  0
  7 21  2  0  0  0  0
  8  9  2  0  0  0  0
  9 19  1  0  0  0  0
 10 16  1  0  0  0  0
 11 12  1  0  0  0  0
 12 18  1  0  0  0  0
 13 14  1  0  0  0  0
 13 17  1  0  0  0  0
 14 20  1  0  0  0  0
 15 17  1  0  0  0  0
 15 22  1  6  0  0  0
 16 18  1  0  0  0  0
 16 20  1  1  0  0  0
 17 18  1  0  0  0  0
 18 24  1  1  0  0  0
 19 20  1  0  0  0  0
  1 25  1  0  0  0  0
  2 26  1  0  0  0  0
  8 27  1  0  0  0  0
  8 28  1  0  0  0  0
  9 29  1  0  0  0  0
 10 30  1  0  0  0  0
 10 31  1  0  0  0  0
 11 32  1  0  0  0  0
 11 33  1  0  0  0  0
 12 34  1  0  0  0  0
 12 35  1  0  0  0  0
 13 36  1  0  0  0  0
 13 37  1  0  0  0  0
 14 38  1  0  0  0  0
 14 39  1  0  0  0  0
 15 40  1  0  0  0  0
 16 41  1  0  0  0  0
 19 42  1  0  0  0  0
 19 43  1  0  0  0  0
 23 44  1  0  0  0  0
 24 45  1  0  0  0  0
M  END
> <id>
EN300-19748912

> <smiles>
OC=1C=CC=2C[C@H]3N(CC=C)CC[C@]4([C@H]5OC1C24)[C@@]3(O)CCC5=O

> <MDLNUMBER>
MFCD00242634

> <IUPAC Name>
(1S,5R,13R,17S)-10,17-dihydroxy-4-(prop-2-en-1-yl)-12-oxa-4-azapentacyclo[9.6.1.0^{1,13}.0^{5,17}.0^{7,18}]octadeca-7(18),8,10-trien-14-one

> <CAS>
465-65-6

> <URL>
https://www.enaminestore.com/catalog/EN300-19748912

> <ROCS_ShapeQuery>
x0446_0A_x1080_0A_x0929_0A_x0812_0A_x0719_0A_x1140_0A_x0528_0A_x0310_0A

> <ROCS_TanimotoCombo>
0.420 

> <ROCS_ShapeTanimoto>
0.265 

> <ROCS_ColorTanimoto>
0.155 

> <ROCS_RefTversky>
0.240 

> <ROCS_RefColorTversky>
0.189 

> <ROCS_RefTverskyCombo>
0.429 

> <ROCS_FitTversky>
1.671 

> <ROCS_FitColorTversky>
0.466 

> <ROCS_FitTverskyCombo>
2.137 

> <ROCS_ColorScore>
-6.798

> <ROCS_Overlap>
2833.113

> <ROCS_Rank>
193                 

$$$$
untitled-dbase-272982_1
  -OEChem-02082415563D

 47 51  0     1  0  0  0  0  0999 V2000
   11.8944   10.6699   24.5652 C   0  0  0  0  0  0  0  0  0  0  0  0
   10.6710   10.7991   25.1087 C   0  0  0  0  0  0  0  0  0  0  0  0
    5.5481   13.2157   24.7852 C   0  0  0  0  0  0  0  0  0  0  0  0
    9.9369   10.4278   22.2164 C   0  0  0  0  0  0  0  0  0  0  0  0
    4.5703   13.7245   25.5431 C   0  0  0  0  0  0  0  0  0  0  0  0
    9.1331   14.7089   22.8498 C   0  0  0  0  0  0  0  0  0  0  0  0
    6.7996   13.9697   24.3872 C   0  0  0  0  0  0  0  0  0  0  0  0
    7.4635   11.1493   25.7981 C   0  0  0  0  0  0  0  0  0  0  0  0
    6.1319   10.7627   25.1489 C   0  0  0  0  0  0  0  0  0  0  0  0
    6.6228   12.0181   23.0800 C   0  0  0  0  0  0  0  0  0  0  0  0
   12.1677   11.0708   23.1263 C   0  0  1  0  0  0  0  0  0  0  0  0
    8.8446   13.2374   22.8470 C   0  0  1  0  0  0  0  0  0  0  0  0
    8.3855   12.0549   24.9634 C   0  0  1  0  0  0  0  0  0  0  0  0
   10.0947   12.4768   23.3543 C   0  0  1  0  0  0  0  0  0  0  0  0
    9.5600   11.3687   24.2662 C   0  0  1  0  0  0  0  0  0  0  0  0
    5.5921   11.8249   24.1840 C   0  0  2  0  0  0  0  0  0  0  0  0
   10.8941   11.6025   22.3838 C   0  0  2  0  0  0  0  0  0  0  0  0
    7.6933   12.8500   23.8090 C   0  0  1  0  0  0  0  0  0  0  0  0
   11.2088   12.2768   21.0548 C   0  0  0  0  0  0  0  0  0  0  0  0
    9.8771    9.6618   21.2684 O   0  0  0  0  0  0  0  0  0  0  0  0
    9.4536   15.3594   23.8334 O   0  0  0  0  0  0  0  0  0  0  0  0
    9.1523   10.3393   23.3466 O   0  0  0  0  0  0  0  0  0  0  0  0
    8.9876   15.2276   21.6060 O   0  0  0  0  0  0  0  0  0  0  0  0
   13.1870   12.0674   23.1563 O   0  0  0  0  0  0  0  0  0  0  0  0
    4.3548   11.4256   23.6250 O   0  0  0  0  0  0  0  0  0  0  0  0
   12.7051   10.2436   25.1478 H   0  0  0  0  0  0  0  0  0  0  0  0
   10.4793   10.4807   26.1254 H   0  0  0  0  0  0  0  0  0  0  0  0
    3.7006   13.1304   25.7911 H   0  0  0  0  0  0  0  0  0  0  0  0
    4.6354   14.7372   25.9187 H   0  0  0  0  0  0  0  0  0  0  0  0
    6.5213   14.7050   23.6241 H   0  0  0  0  0  0  0  0  0  0  0  0
    7.2606   14.4904   25.2315 H   0  0  0  0  0  0  0  0  0  0  0  0
    7.2727   11.6176   26.7848 H   0  0  0  0  0  0  0  0  0  0  0  0
    7.9915   10.2074   26.0479 H   0  0  0  0  0  0  0  0  0  0  0  0
    6.2643    9.8033   24.6269 H   0  0  0  0  0  0  0  0  0  0  0  0
    5.3925   10.5528   25.9360 H   0  0  0  0  0  0  0  0  0  0  0  0
    7.0058   11.0687   22.6796 H   0  0  0  0  0  0  0  0  0  0  0  0
    6.2018   12.5627   22.2197 H   0  0  0  0  0  0  0  0  0  0  0  0
   12.5696   10.1957   22.6011 H   0  0  0  0  0  0  0  0  0  0  0  0
    8.5919   12.9695   21.8272 H   0  0  0  0  0  0  0  0  0  0  0  0
    8.8274   12.8077   25.6662 H   0  0  0  0  0  0  0  0  0  0  0  0
   10.7619   13.1823   23.9047 H   0  0  0  0  0  0  0  0  0  0  0  0
   11.8941   13.1099   21.2121 H   0  0  0  0  0  0  0  0  0  0  0  0
   10.2920   12.6541   20.6015 H   0  0  0  0  0  0  0  0  0  0  0  0
   11.6717   11.5620   20.3741 H   0  0  0  0  0  0  0  0  0  0  0  0
    9.1705   16.1912   21.5872 H   0  0  0  0  0  0  0  0  0  0  0  0
   13.9612   11.6581   23.5728 H   0  0  0  0  0  0  0  0  0  0  0  0
    4.4780   10.5296   23.2670 H   0  0  0  0  0  0  0  0  0  0  0  0
  1  2  2  0  0  0  0
  1 11  1  0  0  0  0
  2 15  1  0  0  0  0
  3  5  2  0  0  0  0
  3  7  1  0  0  0  0
  3 16  1  0  0  0  0
  4 17  1  0  0  0  0
  4 20  2  0  0  0  0
  4 22  1  0  0  0  0
  6 12  1  6  0  0  0
  6 21  2  0  0  0  0
  6 23  1  0  0  0  0
  7 18  1  0  0  0  0
  8  9  1  0  0  0  0
  8 13  1  1  0  0  0
  9 16  1  0  0  0  0
 10 16  1  0  0  0  0
 10 18  1  1  0  0  0
 11 17  1  0  0  0  0
 11 24  1  6  0  0  0
 12 14  1  0  0  0  0
 12 18  1  0  0  0  0
 13 15  1  0  0  0  0
 13 18  1  0  0  0  0
 14 15  1  0  0  0  0
 14 17  1  1  0  0  0
 15 22  1  1  0  0  0
 16 25  1  1  0  0  0
 17 19  1  6  0  0  0
  1 26  1  0  0  0  0
  2 27  1  0  0  0  0
  5 28  1  0  0  0  0
  5 29  1  0  0  0  0
  7 30  1  0  0  0  0
  7 31  1  0  0  0  0
  8 32  1  0  0  0  0
  8 33  1  0  0  0  0
  9 34  1  0  0  0  0
  9 35  1  0  0  0  0
 10 36  1  0  0  0  0
 10 37  1  0  0  0  0
 11 38  1  0  0  0  0
 12 39  1  0  0  0  0
 13 40  1  0  0  0  0
 14 41  1  0  0  0  0
 19 42  1  0  0  0  0
 19 43  1  0  0  0  0
 19 44  1  0  0  0  0
 23 45  1  0  0  0  0
 24 46  1  0  0  0  0
 25 47  1  0  0  0  0
M  END
> <id>
EN300-19631964

> <smiles>
C[C@]1([C@H]2[C@H](C(=O)O)[C@]3(CC(=C)[C@@]4(O)C3)[C@@H](CC4)[C@]52OC1=O)[C@@H](O)C=C5

> <MDLNUMBER>
MFCD00079329

> <IUPAC Name>
(1R,2R,5S,8S,9S,10R,11S,12S)-5,12-dihydroxy-11-methyl-6-methylidene-16-oxo-15-oxapentacyclo[9.3.2.1^{5,8}.0^{1,10}.0^{2,8}]heptadec-13-ene-9-carboxylic acid

> <CAS>
77-06-5

> <URL>
https://www.enaminestore.com/catalog/EN300-19631964

> <ROCS_ShapeQuery>
x0446_0A_x1080_0A_x0929_0A_x0812_0A_x0719_0A_x1140_0A_x0528_0A_x0310_0A

> <ROCS_TanimotoCombo>
0.420 

> <ROCS_ShapeTanimoto>
0.261 

> <ROCS_ColorTanimoto>
0.159 

> <ROCS_RefTversky>
0.237 

> <ROCS_RefColorTversky>
0.219 

> <ROCS_RefTverskyCombo>
0.456 

> <ROCS_FitTversky>
1.616 

> <ROCS_FitColorTversky>
0.369 

> <ROCS_FitTverskyCombo>
1.986 

> <ROCS_ColorScore>
-7.956

> <ROCS_Overlap>
2807.126

> <ROCS_Rank>
194                 

$$$$
untitled-dbase-325747_4
  -OEChem-02082415563D

 42 44  0     1  0  0  0  0  0999 V2000
   12.7209   15.5733   21.7557 C   0  0  0  0  0  0  0  0  0  0  0  0
    9.8422   14.7529   20.9563 C   0  0  0  0  0  0  0  0  0  0  0  0
    7.0016   11.6714   24.2171 C   0  0  0  0  0  0  0  0  0  0  0  0
    8.8667   10.1572   24.9357 C   0  0  0  0  0  0  0  0  0  0  0  0
    8.1053   10.1617   22.5466 C   0  0  0  0  0  0  0  0  0  0  0  0
    9.2354   12.6354   24.8260 C   0  0  0  0  0  0  0  0  0  0  0  0
    8.4723   12.6401   22.4315 C   0  0  0  0  0  0  0  0  0  0  0  0
   10.3415   11.1224   23.1515 C   0  0  0  0  0  0  0  0  0  0  0  0
    8.2138   11.5323   25.1530 C   0  0  0  0  0  0  0  0  0  0  0  0
    7.4486   11.5369   22.7520 C   0  0  0  0  0  0  0  0  0  0  0  0
    9.3229   10.0151   23.4742 C   0  0  0  0  0  0  0  0  0  0  0  0
    9.7060   12.5180   23.3569 C   0  0  0  0  0  0  0  0  0  0  0  0
   14.1176   15.8978   21.3408 C   0  0  0  0  0  0  0  0  0  0  0  0
   10.7221   13.6170   23.0351 C   0  0  0  0  0  0  0  0  0  0  0  0
   10.9272   13.8650   21.5395 C   0  0  2  0  0  0  0  0  0  0  0  0
   12.2474   14.3704   21.2607 N   0  0  0  0  0  0  0  0  0  0  0  0
   12.1080   16.3527   22.4758 O   0  0  0  0  0  0  0  0  0  0  0  0
    9.2690   15.6314   21.5891 O   0  0  0  0  0  0  0  0  0  0  0  0
    9.5723   14.4863   19.6561 O   0  0  0  0  0  0  0  0  0  0  0  0
    6.2562   10.9020   24.4532 H   0  0  0  0  0  0  0  0  0  0  0  0
    6.5168   12.6429   24.3734 H   0  0  0  0  0  0  0  0  0  0  0  0
    9.7243   10.0389   25.6094 H   0  0  0  0  0  0  0  0  0  0  0  0
    8.1544    9.3610   25.1846 H   0  0  0  0  0  0  0  0  0  0  0  0
    7.3793    9.3657   22.7531 H   0  0  0  0  0  0  0  0  0  0  0  0
    8.4150   10.0466   21.5006 H   0  0  0  0  0  0  0  0  0  0  0  0
    8.7833   13.6200   25.0021 H   0  0  0  0  0  0  0  0  0  0  0  0
   10.0930   12.5566   25.5066 H   0  0  0  0  0  0  0  0  0  0  0  0
    8.7778   12.5647   21.3799 H   0  0  0  0  0  0  0  0  0  0  0  0
    8.0027   13.6248   22.5530 H   0  0  0  0  0  0  0  0  0  0  0  0
   11.2245   11.0092   23.7938 H   0  0  0  0  0  0  0  0  0  0  0  0
   10.6892   11.0125   22.1162 H   0  0  0  0  0  0  0  0  0  0  0  0
    7.8889   11.6269   26.1952 H   0  0  0  0  0  0  0  0  0  0  0  0
    6.5808   11.6347   22.0901 H   0  0  0  0  0  0  0  0  0  0  0  0
    9.7854    9.0330   23.3250 H   0  0  0  0  0  0  0  0  0  0  0  0
   14.1547   16.4689   20.3992 H   0  0  0  0  0  0  0  0  0  0  0  0
   14.6417   16.5231   22.0814 H   0  0  0  0  0  0  0  0  0  0  0  0
   14.7751   15.0287   21.1786 H   0  0  0  0  0  0  0  0  0  0  0  0
   10.3854   14.5403   23.5182 H   0  0  0  0  0  0  0  0  0  0  0  0
   11.6772   13.3438   23.4961 H   0  0  0  0  0  0  0  0  0  0  0  0
   10.8613   12.9070   21.0102 H   0  0  0  0  0  0  0  0  0  0  0  0
   12.8626   13.8151   20.6702 H   0  0  0  0  0  0  0  0  0  0  0  0
    8.8745   15.0754   19.2980 H   0  0  0  0  0  0  0  0  0  0  0  0
  1 13  1  0  0  0  0
  1 16  1  0  0  0  0
  1 17  2  0  0  0  0
  2 15  1  0  0  0  0
  2 18  2  0  0  0  0
  2 19  1  0  0  0  0
  3  9  1  0  0  0  0
  3 10  1  0  0  0  0
  4  9  1  0  0  0  0
  4 11  1  0  0  0  0
  5 10  1  0  0  0  0
  5 11  1  0  0  0  0
  6  9  1  0  0  0  0
  6 12  1  0  0  0  0
  7 10  1  0  0  0  0
  7 12  1  0  0  0  0
  8 11  1  0  0  0  0
  8 12  1  0  0  0  0
 12 14  1  0  0  0  0
 14 15  1  0  0  0  0
 15 16  1  6  0  0  0
  3 20  1  0  0  0  0
  3 21  1  0  0  0  0
  4 22  1  0  0  0  0
  4 23  1  0  0  0  0
  5 24  1  0  0  0  0
  5 25  1  0  0  0  0
  6 26  1  0  0  0  0
  6 27  1  0  0  0  0
  7 28  1  0  0  0  0
  7 29  1  0  0  0  0
  8 30  1  0  0  0  0
  8 31  1  0  0  0  0
  9 32  1  0  0  0  0
 10 33  1  0  0  0  0
 11 34  1  0  0  0  0
 13 35  1  0  0  0  0
 13 36  1  0  0  0  0
 13 37  1  0  0  0  0
 14 38  1  0  0  0  0
 14 39  1  0  0  0  0
 15 40  1  0  0  0  0
 16 41  1  0  0  0  0
 19 42  1  0  0  0  0
M  END
> <id>
EN300-37101623

> <smiles>
CC(=O)N[C@@H](CC1(CC2CC3CC(C2)C1)C3)C(=O)O

> <IUPAC Name>
(2S)-3-(adamantan-1-yl)-2-acetamidopropanoic acid

> <CAS>
2757834-28-7

> <URL>
https://www.enaminestore.com/catalog/EN300-37101623

> <ROCS_ShapeQuery>
x0446_0A_x1080_0A_x0929_0A_x0812_0A_x0719_0A_x1140_0A_x0528_0A_x0310_0A

> <ROCS_TanimotoCombo>
0.420 

> <ROCS_ShapeTanimoto>
0.230 

> <ROCS_ColorTanimoto>
0.190 

> <ROCS_RefTversky>
0.210 

> <ROCS_RefColorTversky>
0.217 

> <ROCS_RefTverskyCombo>
0.426 

> <ROCS_FitTversky>
1.743 

> <ROCS_FitColorTversky>
0.609 

> <ROCS_FitTverskyCombo>
2.353 

> <ROCS_ColorScore>
-7.779

> <ROCS_Overlap>
2473.317

> <ROCS_Rank>
195                 

$$$$
untitled-dbase-286238_1
  -OEChem-02082415563D

 44 47  0     1  0  0  0  0  0999 V2000
    9.5663   14.3537   22.3129 C   0  0  0  0  0  0  0  0  0  0  0  0
   13.6649   15.2882   22.0923 C   0  0  0  0  0  0  0  0  0  0  0  0
   12.5853   15.9673   21.2512 C   0  0  0  0  0  0  0  0  0  0  0  0
   13.1616   13.9615   22.6593 C   0  0  0  0  0  0  0  0  0  0  0  0
    7.4970   11.3735   24.6686 C   0  0  0  0  0  0  0  0  0  0  0  0
    9.3121   13.0907   24.4404 C   0  0  0  0  0  0  0  0  0  0  0  0
    7.7526   12.6452   22.5218 C   0  0  0  0  0  0  0  0  0  0  0  0
    9.8940   10.6534   24.5318 C   0  0  0  0  0  0  0  0  0  0  0  0
    8.3389   10.2097   22.6137 C   0  0  0  0  0  0  0  0  0  0  0  0
   10.1541   11.9257   22.3819 C   0  0  0  0  0  0  0  0  0  0  0  0
   11.2843   16.1127   22.0357 C   0  0  0  0  0  0  0  0  0  0  0  0
   11.8483   14.1440   23.4170 C   0  0  0  0  0  0  0  0  0  0  0  0
    8.9396   11.7341   25.0656 C   0  0  2  0  0  0  0  0  0  0  0  0
    7.3744   11.2861   23.1368 C   0  0  1  0  0  0  0  0  0  0  0  0
    9.1997   13.0160   22.9045 C   0  0  0  0  0  0  0  0  0  0  0  0
    9.7850   10.5649   22.9990 C   0  0  0  0  0  0  0  0  0  0  0  0
   10.8527   14.8224   22.5777 N   0  0  0  0  0  0  0  0  0  0  0  0
    8.7340   14.9611   21.6346 O   0  0  0  0  0  0  0  0  0  0  0  0
   10.6733    9.5614   22.5288 O   0  0  0  0  0  0  0  0  0  0  0  0
   14.5595   15.1177   21.4830 H   0  0  0  0  0  0  0  0  0  0  0  0
   13.9576   15.9506   22.9161 H   0  0  0  0  0  0  0  0  0  0  0  0
   12.9359   16.9548   20.9309 H   0  0  0  0  0  0  0  0  0  0  0  0
   12.4022   15.3806   20.3427 H   0  0  0  0  0  0  0  0  0  0  0  0
   13.0165   13.2427   21.8430 H   0  0  0  0  0  0  0  0  0  0  0  0
   13.9185   13.5383   23.3290 H   0  0  0  0  0  0  0  0  0  0  0  0
    7.2130   10.4157   25.1215 H   0  0  0  0  0  0  0  0  0  0  0  0
    6.8021   12.1282   25.0571 H   0  0  0  0  0  0  0  0  0  0  0  0
    8.6535   13.8763   24.8337 H   0  0  0  0  0  0  0  0  0  0  0  0
   10.3322   13.3700   24.7354 H   0  0  0  0  0  0  0  0  0  0  0  0
    7.6462   12.6044   21.4298 H   0  0  0  0  0  0  0  0  0  0  0  0
    7.0540   13.4176   22.8694 H   0  0  0  0  0  0  0  0  0  0  0  0
   10.9281   10.8779   24.8238 H   0  0  0  0  0  0  0  0  0  0  0  0
    9.6628    9.6802   24.9839 H   0  0  0  0  0  0  0  0  0  0  0  0
    8.0716    9.2254   23.0195 H   0  0  0  0  0  0  0  0  0  0  0  0
    8.2499   10.1142   21.5237 H   0  0  0  0  0  0  0  0  0  0  0  0
   10.1155   11.8681   21.2853 H   0  0  0  0  0  0  0  0  0  0  0  0
   11.1987   12.1724   22.6167 H   0  0  0  0  0  0  0  0  0  0  0  0
   11.4223   16.7935   22.8841 H   0  0  0  0  0  0  0  0  0  0  0  0
   10.5113   16.5448   21.3924 H   0  0  0  0  0  0  0  0  0  0  0  0
   11.4956   13.1726   23.7678 H   0  0  0  0  0  0  0  0  0  0  0  0
   12.0035   14.7710   24.3031 H   0  0  0  0  0  0  0  0  0  0  0  0
    9.0200   11.7943   26.1565 H   0  0  0  0  0  0  0  0  0  0  0  0
    6.3458   11.0281   22.8615 H   0  0  0  0  0  0  0  0  0  0  0  0
   10.5789    9.5328   21.5626 H   0  0  0  0  0  0  0  0  0  0  0  0
  1 15  1  0  0  0  0
  1 17  1  0  0  0  0
  1 18  2  0  0  0  0
  2  3  1  0  0  0  0
  2  4  1  0  0  0  0
  3 11  1  0  0  0  0
  4 12  1  0  0  0  0
  5 13  1  0  0  0  0
  5 14  1  0  0  0  0
  6 13  1  0  0  0  0
  6 15  1  0  0  0  0
  7 14  1  0  0  0  0
  7 15  1  0  0  0  0
  8 13  1  0  0  0  0
  8 16  1  0  0  0  0
  9 14  1  0  0  0  0
  9 16  1  0  0  0  0
 10 15  1  0  0  0  0
 10 16  1  0  0  0  0
 11 17  1  0  0  0  0
 12 17  1  0  0  0  0
 16 19  1  0  0  0  0
  2 20  1  0  0  0  0
  2 21  1  0  0  0  0
  3 22  1  0  0  0  0
  3 23  1  0  0  0  0
  4 24  1  0  0  0  0
  4 25  1  0  0  0  0
  5 26  1  0  0  0  0
  5 27  1  0  0  0  0
  6 28  1  0  0  0  0
  6 29  1  0  0  0  0
  7 30  1  0  0  0  0
  7 31  1  0  0  0  0
  8 32  1  0  0  0  0
  8 33  1  0  0  0  0
  9 34  1  0  0  0  0
  9 35  1  0  0  0  0
 10 36  1  0  0  0  0
 10 37  1  0  0  0  0
 11 38  1  0  0  0  0
 11 39  1  0  0  0  0
 12 40  1  0  0  0  0
 12 41  1  0  0  0  0
 13 42  1  0  0  0  0
 14 43  1  0  0  0  0
 19 44  1  0  0  0  0
M  END
> <id>
EN300-26867501

> <smiles>
OC1(CC2CC3C1)CC(C2)(C3)C(=O)N4CCCCC4

> <IUPAC Name>
3-(piperidine-1-carbonyl)adamantan-1-ol

> <CAS>
1004932-78-8

> <URL>
https://www.enaminestore.com/catalog/EN300-26867501

> <ROCS_ShapeQuery>
x0446_0A_x1080_0A_x0929_0A_x0812_0A_x0719_0A_x1140_0A_x0528_0A_x0310_0A

> <ROCS_TanimotoCombo>
0.420 

> <ROCS_ShapeTanimoto>
0.244 

> <ROCS_ColorTanimoto>
0.176 

> <ROCS_RefTversky>
0.220 

> <ROCS_RefColorTversky>
0.199 

> <ROCS_RefTverskyCombo>
0.419 

> <ROCS_FitTversky>
1.807 

> <ROCS_FitColorTversky>
0.604 

> <ROCS_FitTverskyCombo>
2.412 

> <ROCS_ColorScore>
-7.136

> <ROCS_Overlap>
2598.784

> <ROCS_Rank>
196                 

$$$$
untitled-dbase-513726_5
  -OEChem-02082415563D

 32 34  0     0  0  0  0  0  0999 V2000
   10.2573   13.3878   23.7925 C   0  0  0  0  0  0  0  0  0  0  0  0
   12.9510   10.0834   22.7786 C   0  0  0  0  0  0  0  0  0  0  0  0
    7.8908   12.2321   23.2538 C   0  0  0  0  0  0  0  0  0  0  0  0
    8.4342   12.0774   25.2706 C   0  0  0  0  0  0  0  0  0  0  0  0
   10.4517   10.4911   22.3989 C   0  0  0  0  0  0  0  0  0  0  0  0
   11.0112   10.3315   24.4731 C   0  0  0  0  0  0  0  0  0  0  0  0
    9.3059   12.2148   23.9587 C   0  0  0  0  0  0  0  0  0  0  0  0
    9.7304   10.7194   23.7295 C   0  0  0  0  0  0  0  0  0  0  0  0
    7.6599   11.0832   24.3154 C   0  0  0  0  0  0  0  0  0  0  0  0
   13.1505   10.0939   21.2868 C   0  0  0  0  0  0  0  0  0  0  0  0
    6.2629   10.6511   24.6584 C   0  0  0  0  0  0  0  0  0  0  0  0
   11.6570   10.2759   23.1762 N   0  0  0  0  0  0  0  0  0  0  0  0
   11.3681   13.4672   24.2956 O   0  0  0  0  0  0  0  0  0  0  0  0
   13.8928    9.9101   23.5507 O   0  0  0  0  0  0  0  0  0  0  0  0
    8.5288    9.9486   23.9943 O   0  0  0  0  0  0  0  0  0  0  0  0
    9.7050   14.3446   23.0071 O   0  0  0  0  0  0  0  0  0  0  0  0
    5.4207   11.7955   24.7469 O   0  0  0  0  0  0  0  0  0  0  0  0
    7.2948   13.1442   23.3719 H   0  0  0  0  0  0  0  0  0  0  0  0
    7.8652   11.9211   22.2052 H   0  0  0  0  0  0  0  0  0  0  0  0
    8.9241   11.6195   26.1351 H   0  0  0  0  0  0  0  0  0  0  0  0
    7.8944   12.9735   25.5973 H   0  0  0  0  0  0  0  0  0  0  0  0
   10.1405    9.6000   21.8460 H   0  0  0  0  0  0  0  0  0  0  0  0
   10.5186   11.3446   21.7194 H   0  0  0  0  0  0  0  0  0  0  0  0
   11.4361   11.0825   25.1439 H   0  0  0  0  0  0  0  0  0  0  0  0
   10.9813    9.3597   24.9745 H   0  0  0  0  0  0  0  0  0  0  0  0
   13.3572   11.1088   20.9608 H   0  0  0  0  0  0  0  0  0  0  0  0
   12.2500    9.7272   20.8025 H   0  0  0  0  0  0  0  0  0  0  0  0
   13.9856    9.4474   21.0329 H   0  0  0  0  0  0  0  0  0  0  0  0
    6.2363   10.1285   25.6240 H   0  0  0  0  0  0  0  0  0  0  0  0
    5.8552    9.9822   23.8886 H   0  0  0  0  0  0  0  0  0  0  0  0
   10.3040   15.1125   22.8890 H   0  0  0  0  0  0  0  0  0  0  0  0
    4.5337   11.4711   24.9689 H   0  0  0  0  0  0  0  0  0  0  0  0
  1  7  1  0  0  0  0
  1 13  2  0  0  0  0
  1 16  1  0  0  0  0
  2 10  1  0  0  0  0
  2 12  1  0  0  0  0
  2 14  2  0  0  0  0
  3  7  1  0  0  0  0
  3  9  1  0  0  0  0
  4  7  1  0  0  0  0
  4  9  1  0  0  0  0
  5  8  1  0  0  0  0
  5 12  1  0  0  0  0
  6  8  1  0  0  0  0
  6 12  1  0  0  0  0
  7  8  1  0  0  0  0
  8 15  1  0  0  0  0
  9 11  1  0  0  0  0
  9 15  1  0  0  0  0
 11 17  1  0  0  0  0
  3 18  1  0  0  0  0
  3 19  1  0  0  0  0
  4 20  1  0  0  0  0
  4 21  1  0  0  0  0
  5 22  1  0  0  0  0
  5 23  1  0  0  0  0
  6 24  1  0  0  0  0
  6 25  1  0  0  0  0
 10 26  1  0  0  0  0
 10 27  1  0  0  0  0
 10 28  1  0  0  0  0
 11 29  1  0  0  0  0
 11 30  1  0  0  0  0
 16 31  1  0  0  0  0
 17 32  1  0  0  0  0
M  END
> <id>
EN300-28277163

> <smiles>
CC(=O)N1CC2(C1)OC3(CO)CC2(C3)C(=O)O

> <IUPAC Name>
1-acetyl-4'-(hydroxymethyl)-3'-oxaspiro[azetidine-3,2'-bicyclo[2.1.1]hexane]-1'-carboxylic acid

> <CAS>
2680878-14-0

> <URL>
https://www.enaminestore.com/catalog/EN300-28277163

> <ROCS_ShapeQuery>
x0446_0A_x1080_0A_x0929_0A_x0812_0A_x0719_0A_x1140_0A_x0528_0A_x0310_0A

> <ROCS_TanimotoCombo>
0.420 

> <ROCS_ShapeTanimoto>
0.208 

> <ROCS_ColorTanimoto>
0.212 

> <ROCS_RefTversky>
0.192 

> <ROCS_RefColorTversky>
0.252 

> <ROCS_RefTverskyCombo>
0.444 

> <ROCS_FitTversky>
1.678 

> <ROCS_FitColorTversky>
0.572 

> <ROCS_FitTverskyCombo>
2.249 

> <ROCS_ColorScore>
-9.098

> <ROCS_Overlap>
2265.245

> <ROCS_Rank>
197                 

$$$$
untitled-dbase-451812_3
  -OEChem-02082415563D

 36 38  0     0  0  0  0  0  0999 V2000
    9.7809   11.3335   22.9243 C   0  0  0  0  0  0  0  0  0  0  0  0
    8.5843   14.5628   21.7662 C   0  0  0  0  0  0  0  0  0  0  0  0
    7.8368   12.2734   23.9962 C   0  0  0  0  0  0  0  0  0  0  0  0
    8.9773   12.4390   23.1842 C   0  0  0  0  0  0  0  0  0  0  0  0
    9.3067   13.7204   22.6324 C   0  0  0  0  0  0  0  0  0  0  0  0
    6.8282   13.1860   24.4433 C   0  0  0  0  0  0  0  0  0  0  0  0
    5.8805   12.5793   25.2380 C   0  0  0  0  0  0  0  0  0  0  0  0
    9.4221   10.1170   23.4774 C   0  0  0  0  0  0  0  0  0  0  0  0
   10.4773   14.3975   22.8726 C   0  0  0  0  0  0  0  0  0  0  0  0
    7.5964   10.9937   24.4856 C   0  0  0  0  0  0  0  0  0  0  0  0
    4.7292   13.1430   25.8698 C   0  0  0  0  0  0  0  0  0  0  0  0
   11.6564   14.0577   23.6947 C   0  0  0  0  0  0  0  0  0  0  0  0
   11.3767   16.6100   22.0893 C   0  0  0  0  0  0  0  0  0  0  0  0
   10.2861    8.9280   23.2044 C   0  0  0  0  0  0  0  0  0  0  0  0
    9.2409   15.6891   21.4759 N   0  0  0  0  0  0  0  0  0  0  0  0
    8.3455    9.8938   24.2611 N   0  0  0  0  0  0  0  0  0  0  0  0
   10.3882   15.5592   22.1636 N   0  0  0  0  0  0  0  0  0  0  0  0
    6.7880   14.5067   24.1364 N   0  0  0  0  0  0  0  0  0  0  0  0
    4.8610   13.6645   27.1664 N   0  0  0  0  0  0  0  0  0  0  0  0
    3.6026   13.1731   25.3135 O   0  0  0  0  0  0  0  0  0  0  0  0
   11.3615    9.2074   22.4121 F   0  0  0  0  0  0  0  0  0  0  0  0
   10.8079    8.3651   24.3325 F   0  0  0  0  0  0  0  0  0  0  0  0
    9.6109    7.9271   22.5706 F   0  0  0  0  0  0  0  0  0  0  0  0
    6.1941   10.9124   25.4526 S   0  0  0  0  0  0  0  0  0  0  0  0
   10.6688   11.4201   22.3043 H   0  0  0  0  0  0  0  0  0  0  0  0
    7.6067   14.4056   21.3320 H   0  0  0  0  0  0  0  0  0  0  0  0
   12.4056   13.5059   23.1043 H   0  0  0  0  0  0  0  0  0  0  0  0
   12.1471   14.9566   24.1043 H   0  0  0  0  0  0  0  0  0  0  0  0
   11.3876   13.4337   24.5638 H   0  0  0  0  0  0  0  0  0  0  0  0
   12.0427   16.3879   21.2514 H   0  0  0  0  0  0  0  0  0  0  0  0
   10.8765   17.5703   21.9360 H   0  0  0  0  0  0  0  0  0  0  0  0
   11.9385   16.6445   23.0269 H   0  0  0  0  0  0  0  0  0  0  0  0
    7.5277   14.9573   23.5840 H   0  0  0  0  0  0  0  0  0  0  0  0
    6.0680   15.1304   24.5211 H   0  0  0  0  0  0  0  0  0  0  0  0
    5.7682   13.6272   27.6185 H   0  0  0  0  0  0  0  0  0  0  0  0
    4.0813   14.0777   27.6677 H   0  0  0  0  0  0  0  0  0  0  0  0
  1  4  1  0  0  0  0
  1  8  2  0  0  0  0
  2  5  1  0  0  0  0
  2 15  2  0  0  0  0
  3  4  2  0  0  0  0
  3  6  1  0  0  0  0
  3 10  1  0  0  0  0
  4  5  1  0  0  0  0
  5  9  2  0  0  0  0
  6  7  2  0  0  0  0
  6 18  1  0  0  0  0
  7 11  1  0  0  0  0
  7 24  1  0  0  0  0
  8 14  1  0  0  0  0
  8 16  1  0  0  0  0
  9 12  1  0  0  0  0
  9 17  1  0  0  0  0
 10 16  2  0  0  0  0
 10 24  1  0  0  0  0
 11 19  1  0  0  0  0
 11 20  2  0  0  0  0
 13 17  1  0  0  0  0
 14 21  1  0  0  0  0
 14 22  1  0  0  0  0
 14 23  1  0  0  0  0
 15 17  1  0  0  0  0
  1 25  1  0  0  0  0
  2 26  1  0  0  0  0
 12 27  1  0  0  0  0
 12 28  1  0  0  0  0
 12 29  1  0  0  0  0
 13 30  1  0  0  0  0
 13 31  1  0  0  0  0
 13 32  1  0  0  0  0
 18 33  1  0  0  0  0
 18 34  1  0  0  0  0
 19 35  1  0  0  0  0
 19 36  1  0  0  0  0
M  END
> <id>
EN300-228749

> <smiles>
CC1=C(C=NN1C)C=2C=C(N=C3SC(C(=O)N)=C(N)C23)C(F)(F)F

> <MDLNUMBER>
MFCD03422767

> <IUPAC Name>
3-amino-4-(1,5-dimethyl-1H-pyrazol-4-yl)-6-(trifluoromethyl)thieno[2,3-b]pyridine-2-carboxamide

> <CAS>
1005632-64-3

> <URL>
https://www.enaminestore.com/catalog/EN300-228749

> <ROCS_ShapeQuery>
x0446_0A_x1080_0A_x0929_0A_x0812_0A_x0719_0A_x1140_0A_x0528_0A_x0310_0A

> <ROCS_TanimotoCombo>
0.420 

> <ROCS_ShapeTanimoto>
0.260 

> <ROCS_ColorTanimoto>
0.160 

> <ROCS_RefTversky>
0.235 

> <ROCS_RefColorTversky>
0.178 

> <ROCS_RefTverskyCombo>
0.414 

> <ROCS_FitTversky>
1.661 

> <ROCS_FitColorTversky>
0.612 

> <ROCS_FitTverskyCombo>
2.273 

> <ROCS_ColorScore>
-6.380

> <ROCS_Overlap>
2783.123

> <ROCS_Rank>
198                 

$$$$
untitled-dbase-275338_7
  -OEChem-02082415563D

 55 60  0     1  0  0  0  0  0999 V2000
   17.4461   12.9480   24.5842 C   0  0  0  0  0  0  0  0  0  0  0  0
   17.4687   11.6327   24.1205 C   0  0  0  0  0  0  0  0  0  0  0  0
   16.2274   13.5972   24.7815 C   0  0  0  0  0  0  0  0  0  0  0  0
   16.2725   10.9666   23.8540 C   0  0  0  0  0  0  0  0  0  0  0  0
   15.0312   12.9311   24.5150 C   0  0  0  0  0  0  0  0  0  0  0  0
    7.0427   13.9465   23.7132 C   0  0  0  0  0  0  0  0  0  0  0  0
    7.7710   14.8476   22.9073 C   0  0  0  0  0  0  0  0  0  0  0  0
   15.0537   11.6158   24.0513 C   0  0  0  0  0  0  0  0  0  0  0  0
    7.4431   12.6142   23.8156 C   0  0  0  0  0  0  0  0  0  0  0  0
    8.5477   12.2375   23.0750 C   0  0  0  0  0  0  0  0  0  0  0  0
    9.3099   13.1262   22.3471 C   0  0  0  0  0  0  0  0  0  0  0  0
    8.9271   14.4426   22.2245 C   0  0  0  0  0  0  0  0  0  0  0  0
   11.2060   11.2544   25.0160 C   0  0  0  0  0  0  0  0  0  0  0  0
   11.5353   11.4402   23.7292 C   0  0  0  0  0  0  0  0  0  0  0  0
   13.7966   10.9157   23.7711 C   0  0  0  0  0  0  0  0  0  0  0  0
    6.8222   11.6132   24.7561 C   0  0  0  0  0  0  0  0  0  0  0  0
    9.8341   10.8616   25.4838 C   0  0  0  0  0  0  0  0  0  0  0  0
    8.4122   10.0292   21.9459 C   0  0  0  0  0  0  0  0  0  0  0  0
    6.9556    9.7150   22.3251 C   0  0  0  0  0  0  0  0  0  0  0  0
   10.5633   11.2762   22.5827 C   0  0  1  0  0  0  0  0  0  0  0  0
    8.9825   10.2021   24.3825 C   0  0  1  0  0  0  0  0  0  0  0  0
    7.4538   10.1743   24.7025 C   0  0  2  0  0  0  0  0  0  0  0  0
    9.1376   10.8745   23.0141 C   0  0  1  0  0  0  0  0  0  0  0  0
    5.4482    8.9153   24.0376 C   0  0  0  0  0  0  0  0  0  0  0  0
    9.1686   16.6732   21.4360 C   0  0  0  0  0  0  0  0  0  0  0  0
    6.8278    9.2634   23.7143 N   0  0  1  0  0  0  0  0  0  0  0  0
   13.6379    9.7032   23.8753 O   0  0  0  0  0  0  0  0  0  0  0  0
   10.4566   12.5509   21.8557 O   0  0  0  0  0  0  0  0  0  0  0  0
    9.6523   15.3297   21.5004 O   0  0  0  0  0  0  0  0  0  0  0  0
   12.8226   11.8088   23.3885 O   0  0  0  0  0  0  0  0  0  0  0  0
   18.3775   13.4667   24.7917 H   0  0  0  0  0  0  0  0  0  0  0  0
   18.4177   11.1275   23.9668 H   0  0  0  0  0  0  0  0  0  0  0  0
   16.2098   14.6213   25.1429 H   0  0  0  0  0  0  0  0  0  0  0  0
   16.3016    9.9417   23.4931 H   0  0  0  0  0  0  0  0  0  0  0  0
   14.0874   13.4469   24.6723 H   0  0  0  0  0  0  0  0  0  0  0  0
    6.1822   14.3062   24.2706 H   0  0  0  0  0  0  0  0  0  0  0  0
    7.4428   15.8828   22.8463 H   0  0  0  0  0  0  0  0  0  0  0  0
   11.9570   11.4149   25.7851 H   0  0  0  0  0  0  0  0  0  0  0  0
    6.9666   11.9957   25.7755 H   0  0  0  0  0  0  0  0  0  0  0  0
    5.7404   11.5823   24.5932 H   0  0  0  0  0  0  0  0  0  0  0  0
    9.9346   10.1503   26.3130 H   0  0  0  0  0  0  0  0  0  0  0  0
    9.3509   11.7506   25.9029 H   0  0  0  0  0  0  0  0  0  0  0  0
    8.9528    9.0812   21.8204 H   0  0  0  0  0  0  0  0  0  0  0  0
    8.4241   10.5257   20.9670 H   0  0  0  0  0  0  0  0  0  0  0  0
    6.3245   10.5925   22.1375 H   0  0  0  0  0  0  0  0  0  0  0  0
    6.5968    8.9291   21.6485 H   0  0  0  0  0  0  0  0  0  0  0  0
   10.9782   10.5371   21.8857 H   0  0  0  0  0  0  0  0  0  0  0  0
    9.3442    9.1649   24.3006 H   0  0  0  0  0  0  0  0  0  0  0  0
    7.3284    9.7167   25.6930 H   0  0  0  0  0  0  0  0  0  0  0  0
    5.3892    8.5818   25.0841 H   0  0  0  0  0  0  0  0  0  0  0  0
    4.8052    9.7968   23.8970 H   0  0  0  0  0  0  0  0  0  0  0  0
    5.1096    8.1051   23.3751 H   0  0  0  0  0  0  0  0  0  0  0  0
    9.8447   17.2757   20.8244 H   0  0  0  0  0  0  0  0  0  0  0  0
    9.1062   17.0877   22.4454 H   0  0  0  0  0  0  0  0  0  0  0  0
    8.1745   16.6719   20.9827 H   0  0  0  0  0  0  0  0  0  0  0  0
  1  2  1  0  0  0  0
  1  3  2  0  0  0  0
  2  4  2  0  0  0  0
  3  5  1  0  0  0  0
  4  8  1  0  0  0  0
  5  8  2  0  0  0  0
  6  7  2  0  0  0  0
  6  9  1  0  0  0  0
  7 12  1  0  0  0  0
  8 15  1  0  0  0  0
  9 10  2  0  0  0  0
  9 16  1  0  0  0  0
 10 11  1  0  0  0  0
 10 23  1  1  0  0  0
 11 12  2  0  0  0  0
 11 28  1  0  0  0  0
 12 29  1  0  0  0  0
 13 14  2  0  0  0  0
 13 17  1  0  0  0  0
 14 20  1  0  0  0  0
 14 30  1  0  0  0  0
 15 27  2  0  0  0  0
 15 30  1  0  0  0  0
 16 22  1  0  0  0  0
 17 21  1  6  0  0  0
 18 19  1  0  0  0  0
 18 23  1  0  0  0  0
 19 26  1  0  0  0  0
 20 23  1  0  0  0  0
 20 28  1  6  0  0  0
 21 22  1  0  0  0  0
 21 23  1  0  0  0  0
 22 26  1  1  0  0  0
 24 26  1  0  0  0  0
 25 29  1  0  0  0  0
  1 31  1  0  0  0  0
  2 32  1  0  0  0  0
  3 33  1  0  0  0  0
  4 34  1  0  0  0  0
  5 35  1  0  0  0  0
  6 36  1  0  0  0  0
  7 37  1  0  0  0  0
 13 38  1  0  0  0  0
 16 39  1  0  0  0  0
 16 40  1  0  0  0  0
 17 41  1  0  0  0  0
 17 42  1  0  0  0  0
 18 43  1  0  0  0  0
 18 44  1  0  0  0  0
 19 45  1  0  0  0  0
 19 46  1  0  0  0  0
 20 47  1  0  0  0  0
 21 48  1  0  0  0  0
 22 49  1  0  0  0  0
 24 50  1  0  0  0  0
 24 51  1  0  0  0  0
 24 52  1  0  0  0  0
 25 53  1  0  0  0  0
 25 54  1  0  0  0  0
 25 55  1  0  0  0  0
M  END
> <id>
EN300-20605474

> <smiles>
COC=1C=CC=2C[C@@H]3[C@@H]4CC=C(OC(=O)C=5C=CC=CC5)[C@@H]6OC1C2[C@@]64CCN3C

> <MDLNUMBER>
MFCD28902246

> <IUPAC Name>
(1S,5R,13R,17R)-10-methoxy-4-methyl-12-oxa-4-azapentacyclo[9.6.1.0^{1,13}.0^{5,17}.0^{7,18}]octadeca-7(18),8,10,14-tetraen-14-yl benzoate

> <CAS>
1259440-61-3

> <URL>
https://www.enaminestore.com/catalog/EN300-20605474

> <ROCS_ShapeQuery>
x0446_0A_x1080_0A_x0929_0A_x0812_0A_x0719_0A_x1140_0A_x0528_0A_x0310_0A

> <ROCS_TanimotoCombo>
0.420 

> <ROCS_ShapeTanimoto>
0.265 

> <ROCS_ColorTanimoto>
0.155 

> <ROCS_RefTversky>
0.244 

> <ROCS_RefColorTversky>
0.178 

> <ROCS_RefTverskyCombo>
0.423 

> <ROCS_FitTversky>
1.470 

> <ROCS_FitColorTversky>
0.543 

> <ROCS_FitTverskyCombo>
2.013 

> <ROCS_ColorScore>
-6.387

> <ROCS_Overlap>
2891.731

> <ROCS_Rank>
199                 

$$$$
untitled-dbase-559509_4
  -OEChem-02082415563D

 34 35  0     0  0  0  0  0  0999 V2000
    6.9425   11.1839   25.7159 C   0  0  0  0  0  0  0  0  0  0  0  0
   10.5663   13.6940   22.6075 C   0  0  0  0  0  0  0  0  0  0  0  0
    9.4470   11.7465   24.9005 C   0  0  0  0  0  0  0  0  0  0  0  0
    8.0053   12.2268   23.4720 C   0  0  0  0  0  0  0  0  0  0  0  0
    9.2475   10.1387   23.0361 C   0  0  0  0  0  0  0  0  0  0  0  0
    8.0045   11.1412   24.6304 C   0  0  0  0  0  0  0  0  0  0  0  0
    9.4248   11.6109   23.3548 C   0  0  0  0  0  0  0  0  0  0  0  0
   12.2155   15.9720   23.0981 C   0  0  0  0  0  0  0  0  0  0  0  0
   13.0317   15.6566   20.7436 C   0  0  0  0  0  0  0  0  0  0  0  0
   10.6098   16.1671   21.1698 C   0  0  0  0  0  0  0  0  0  0  0  0
   11.8582   15.4647   21.7017 C   0  0  0  0  0  0  0  0  0  0  0  0
   10.4168   12.3193   22.5923 N   0  0  0  0  0  0  0  0  0  0  0  0
    7.0426   10.6625   26.8165 O   0  0  0  0  0  0  0  0  0  0  0  0
    9.8855   14.4773   23.2613 O   0  0  0  0  0  0  0  0  0  0  0  0
    8.2057    9.8413   23.9895 O   0  0  0  0  0  0  0  0  0  0  0  0
    5.8581   11.8811   25.2975 O   0  0  0  0  0  0  0  0  0  0  0  0
   11.5918   14.0599   21.7817 O   0  0  0  0  0  0  0  0  0  0  0  0
    9.4963   12.7555   25.3245 H   0  0  0  0  0  0  0  0  0  0  0  0
   10.1446   11.0923   25.4316 H   0  0  0  0  0  0  0  0  0  0  0  0
    7.3250   12.0317   22.6379 H   0  0  0  0  0  0  0  0  0  0  0  0
    7.9279   13.2784   23.7694 H   0  0  0  0  0  0  0  0  0  0  0  0
    8.8820    9.9509   22.0227 H   0  0  0  0  0  0  0  0  0  0  0  0
   10.1309    9.5334   23.2575 H   0  0  0  0  0  0  0  0  0  0  0  0
   11.3757   15.8360   23.7888 H   0  0  0  0  0  0  0  0  0  0  0  0
   13.0884   15.4514   23.5052 H   0  0  0  0  0  0  0  0  0  0  0  0
   12.4304   17.0466   23.0805 H   0  0  0  0  0  0  0  0  0  0  0  0
   12.7798   15.2940   19.7405 H   0  0  0  0  0  0  0  0  0  0  0  0
   13.9023   15.0771   21.0717 H   0  0  0  0  0  0  0  0  0  0  0  0
   13.3241   16.7090   20.6685 H   0  0  0  0  0  0  0  0  0  0  0  0
   10.3532   15.8033   20.1682 H   0  0  0  0  0  0  0  0  0  0  0  0
    9.7477   16.0093   21.8261 H   0  0  0  0  0  0  0  0  0  0  0  0
   10.7809   17.2453   21.0728 H   0  0  0  0  0  0  0  0  0  0  0  0
   11.0475   11.7758   22.0054 H   0  0  0  0  0  0  0  0  0  0  0  0
    5.1591   11.9186   25.9847 H   0  0  0  0  0  0  0  0  0  0  0  0
  1  6  1  1  0  0  0
  1 13  2  0  0  0  0
  1 16  1  0  0  0  0
  2 12  1  0  0  0  0
  2 14  2  0  0  0  0
  2 17  1  0  0  0  0
  3  6  1  0  0  0  0
  3  7  1  0  0  0  0
  4  6  1  0  0  0  0
  4  7  1  0  0  0  0
  5  7  1  0  0  0  0
  5 15  1  0  0  0  0
  6 15  1  0  0  0  0
  7 12  1  1  0  0  0
  8 11  1  0  0  0  0
  9 11  1  0  0  0  0
 10 11  1  0  0  0  0
 11 17  1  0  0  0  0
  3 18  1  0  0  0  0
  3 19  1  0  0  0  0
  4 20  1  0  0  0  0
  4 21  1  0  0  0  0
  5 22  1  0  0  0  0
  5 23  1  0  0  0  0
  8 24  1  0  0  0  0
  8 25  1  0  0  0  0
  8 26  1  0  0  0  0
  9 27  1  0  0  0  0
  9 28  1  0  0  0  0
  9 29  1  0  0  0  0
 10 30  1  0  0  0  0
 10 31  1  0  0  0  0
 10 32  1  0  0  0  0
 12 33  1  0  0  0  0
 16 34  1  0  0  0  0
M  END
> <id>
EN300-27193596

> <smiles>
CC(C)(C)OC(=O)N[C@]1(C[C@]2(C1)C(=O)O)CO2

> <IUPAC Name>
4-{[(tert-butoxy)carbonyl]amino}-2-oxabicyclo[2.1.1]hexane-1-carboxylic acid

> <CAS>
2287287-55-0

> <URL>
https://www.enaminestore.com/catalog/EN300-27193596

> <ROCS_ShapeQuery>
x0446_0A_x1080_0A_x0929_0A_x0812_0A_x0719_0A_x1140_0A_x0528_0A_x0310_0A

> <ROCS_TanimotoCombo>
0.420 

> <ROCS_ShapeTanimoto>
0.219 

> <ROCS_ColorTanimoto>
0.201 

> <ROCS_RefTversky>
0.200 

> <ROCS_RefColorTversky>
0.237 

> <ROCS_RefTverskyCombo>
0.437 

> <ROCS_FitTversky>
1.762 

> <ROCS_FitColorTversky>
0.570 

> <ROCS_FitTverskyCombo>
2.332 

> <ROCS_ColorScore>
-8.526

> <ROCS_Overlap>
2362.186

> <ROCS_Rank>
200                 

$$$$
untitled-dbase-85003_1
  -OEChem-02082415563D

 31 33  0     0  0  0  0  0  0999 V2000
    8.0693   10.3856   24.8390 C   0  0  0  0  0  0  0  0  0  0  0  0
   10.2030   11.5849   24.3019 C   0  0  0  0  0  0  0  0  0  0  0  0
    8.0731   12.8797   24.5962 C   0  0  0  0  0  0  0  0  0  0  0  0
    9.1026   10.1605   22.5662 C   0  0  0  0  0  0  0  0  0  0  0  0
    6.9652   11.4600   22.8615 C   0  0  0  0  0  0  0  0  0  0  0  0
    8.8828   11.6677   25.0859 C   0  0  0  0  0  0  0  0  0  0  0  0
    7.7707   10.2354   23.3377 C   0  0  0  0  0  0  0  0  0  0  0  0
    9.9207   11.4492   22.7931 C   0  0  0  0  0  0  0  0  0  0  0  0
    7.7786   12.7515   23.0890 C   0  0  0  0  0  0  0  0  0  0  0  0
    9.0840   12.6364   22.2790 C   0  0  0  0  0  0  0  0  0  0  0  0
   11.2400   13.7008   21.1522 N   0  0  0  0  0  0  0  0  0  0  0  0
    9.1657   15.1565   21.5938 O   0  0  0  0  0  0  0  0  0  0  0  0
   10.5707   14.3741   23.5430 O   0  0  0  0  0  0  0  0  0  0  0  0
    9.9972   14.1501   22.2285 S   0  0  0  0  0  0  0  0  0  0  0  0
    8.6260    9.5121   25.2002 H   0  0  0  0  0  0  0  0  0  0  0  0
    7.1311   10.4214   25.4062 H   0  0  0  0  0  0  0  0  0  0  0  0
   10.8160   12.4702   24.5030 H   0  0  0  0  0  0  0  0  0  0  0  0
   10.7858   10.7218   24.6479 H   0  0  0  0  0  0  0  0  0  0  0  0
    7.1299   12.9449   25.1533 H   0  0  0  0  0  0  0  0  0  0  0  0
    8.6189   13.8059   24.8060 H   0  0  0  0  0  0  0  0  0  0  0  0
    9.6786    9.2877   22.8972 H   0  0  0  0  0  0  0  0  0  0  0  0
    8.9067   10.0239   21.4957 H   0  0  0  0  0  0  0  0  0  0  0  0
    6.7185   11.3538   21.7978 H   0  0  0  0  0  0  0  0  0  0  0  0
    6.0131   11.5159   23.4038 H   0  0  0  0  0  0  0  0  0  0  0  0
    9.0928   11.7700   26.1564 H   0  0  0  0  0  0  0  0  0  0  0  0
    7.1912    9.3216   23.1652 H   0  0  0  0  0  0  0  0  0  0  0  0
   10.8689   11.3837   22.2475 H   0  0  0  0  0  0  0  0  0  0  0  0
    7.1953   13.6173   22.7549 H   0  0  0  0  0  0  0  0  0  0  0  0
    8.8321   12.4616   21.2239 H   0  0  0  0  0  0  0  0  0  0  0  0
   11.2276   14.1087   20.2093 H   0  0  0  0  0  0  0  0  0  0  0  0
   12.1845   13.5757   21.5368 H   0  0  0  0  0  0  0  0  0  0  0  0
  1  6  1  0  0  0  0
  1  7  1  0  0  0  0
  2  6  1  0  0  0  0
  2  8  1  0  0  0  0
  3  6  1  0  0  0  0
  3  9  1  0  0  0  0
  4  7  1  0  0  0  0
  4  8  1  0  0  0  0
  5  7  1  0  0  0  0
  5  9  1  0  0  0  0
  8 10  1  0  0  0  0
  9 10  1  0  0  0  0
 10 14  1  0  0  0  0
 11 14  1  0  0  0  0
 12 14  2  0  0  0  0
 13 14  2  0  0  0  0
  1 15  1  0  0  0  0
  1 16  1  0  0  0  0
  2 17  1  0  0  0  0
  2 18  1  0  0  0  0
  3 19  1  0  0  0  0
  3 20  1  0  0  0  0
  4 21  1  0  0  0  0
  4 22  1  0  0  0  0
  5 23  1  0  0  0  0
  5 24  1  0  0  0  0
  6 25  1  0  0  0  0
  7 26  1  0  0  0  0
  8 27  1  0  0  0  0
  9 28  1  0  0  0  0
 10 29  1  0  0  0  0
 11 30  1  0  0  0  0
 11 31  1  0  0  0  0
M  END
> <id>
EN300-274055

> <smiles>
NS(=O)(=O)C1C2CC3CC(C2)CC1C3

> <IUPAC Name>
adamantane-2-sulfonamide

> <CAS>
1247763-33-2

> <URL>
https://www.enaminestore.com/catalog/EN300-274055

> <ROCS_ShapeQuery>
x0446_0A_x1080_0A_x0929_0A_x0812_0A_x0719_0A_x1140_0A_x0528_0A_x0310_0A

> <ROCS_TanimotoCombo>
0.420 

> <ROCS_ShapeTanimoto>
0.200 

> <ROCS_ColorTanimoto>
0.220 

> <ROCS_RefTversky>
0.184 

> <ROCS_RefColorTversky>
0.235 

> <ROCS_RefTverskyCombo>
0.419 

> <ROCS_FitTversky>
1.814 

> <ROCS_FitColorTversky>
0.774 

> <ROCS_FitTverskyCombo>
2.588 

> <ROCS_ColorScore>
-8.403

> <ROCS_Overlap>
2168.279

> <ROCS_Rank>
201                 

$$$$
untitled-dbase-508236_4
  -OEChem-02082415563D

 41 43  0     1  0  0  0  0  0999 V2000
   12.3537   16.1486   21.0234 C   0  0  0  0  0  0  0  0  0  0  0  0
   13.3688   15.3845   21.5990 C   0  0  0  0  0  0  0  0  0  0  0  0
   11.0335   15.9835   21.4424 C   0  0  0  0  0  0  0  0  0  0  0  0
   13.0638   14.4552   22.5934 C   0  0  0  0  0  0  0  0  0  0  0  0
   10.7284   15.0542   22.4368 C   0  0  0  0  0  0  0  0  0  0  0  0
   11.7436   14.2900   23.0124 C   0  0  0  0  0  0  0  0  0  0  0  0
    7.1766   13.1754   23.3722 C   0  0  0  0  0  0  0  0  0  0  0  0
    5.2189   11.0832   24.3288 C   0  0  0  0  0  0  0  0  0  0  0  0
    8.7964   10.0275   24.0511 C   0  0  0  0  0  0  0  0  0  0  0  0
    9.5620   12.1479   25.1700 C   0  0  0  0  0  0  0  0  0  0  0  0
    9.9741   11.8403   22.7625 C   0  0  0  0  0  0  0  0  0  0  0  0
    8.3310   11.2602   24.8841 C   0  0  1  0  0  0  0  0  0  0  0  0
    8.6812   10.9989   22.8373 C   0  0  2  0  0  0  0  0  0  0  0  0
    7.5128   11.7011   23.6178 C   0  0  0  0  0  0  0  0  0  0  0  0
    4.0946   10.1429   24.0458 C   0  0  0  0  0  0  0  0  0  0  0  0
   11.4145   13.2897   24.0826 C   0  0  0  0  0  0  0  0  0  0  0  0
   10.0748   12.7422   23.9232 N   0  0  0  0  0  0  0  0  0  0  0  0
    6.2961   10.8852   23.5138 N   0  0  0  0  0  0  0  0  0  0  0  0
    7.0086   14.0121   24.2469 O   0  0  0  0  0  0  0  0  0  0  0  0
    5.0998   11.9169   25.2190 O   0  0  0  0  0  0  0  0  0  0  0  0
    7.0865   13.4310   22.0441 O   0  0  0  0  0  0  0  0  0  0  0  0
   12.5916   16.8732   20.2501 H   0  0  0  0  0  0  0  0  0  0  0  0
   14.3970   15.5138   21.2737 H   0  0  0  0  0  0  0  0  0  0  0  0
   10.2431   16.5790   20.9953 H   0  0  0  0  0  0  0  0  0  0  0  0
   13.8612   13.8641   23.0361 H   0  0  0  0  0  0  0  0  0  0  0  0
    9.6970   14.9322   22.7568 H   0  0  0  0  0  0  0  0  0  0  0  0
    9.7869    9.6185   24.2728 H   0  0  0  0  0  0  0  0  0  0  0  0
    8.0872    9.1912   24.0364 H   0  0  0  0  0  0  0  0  0  0  0  0
    9.2720   12.9566   25.8508 H   0  0  0  0  0  0  0  0  0  0  0  0
   10.3295   11.5503   25.6784 H   0  0  0  0  0  0  0  0  0  0  0  0
   10.8400   11.1693   22.6959 H   0  0  0  0  0  0  0  0  0  0  0  0
    9.9570   12.4454   21.8487 H   0  0  0  0  0  0  0  0  0  0  0  0
    7.7600   11.0133   25.7844 H   0  0  0  0  0  0  0  0  0  0  0  0
    8.4265   10.5162   21.8889 H   0  0  0  0  0  0  0  0  0  0  0  0
    4.1634    9.2153   24.6366 H   0  0  0  0  0  0  0  0  0  0  0  0
    3.1122   10.5749   24.2954 H   0  0  0  0  0  0  0  0  0  0  0  0
    4.0082    9.8133   22.9981 H   0  0  0  0  0  0  0  0  0  0  0  0
   12.1243   12.4556   24.0629 H   0  0  0  0  0  0  0  0  0  0  0  0
   11.4743   13.7442   25.0771 H   0  0  0  0  0  0  0  0  0  0  0  0
    6.2554   10.1607   22.8232 H   0  0  0  0  0  0  0  0  0  0  0  0
    6.8697   14.3709   21.8658 H   0  0  0  0  0  0  0  0  0  0  0  0
  1  2  1  0  0  0  0
  1  3  2  0  0  0  0
  2  4  2  0  0  0  0
  3  5  1  0  0  0  0
  4  6  1  0  0  0  0
  5  6  2  0  0  0  0
  6 16  1  0  0  0  0
  7 14  1  0  0  0  0
  7 19  2  0  0  0  0
  7 21  1  0  0  0  0
  8 15  1  0  0  0  0
  8 18  1  0  0  0  0
  8 20  2  0  0  0  0
  9 12  1  0  0  0  0
  9 13  1  0  0  0  0
 10 12  1  0  0  0  0
 10 17  1  0  0  0  0
 11 13  1  0  0  0  0
 11 17  1  0  0  0  0
 12 14  1  0  0  0  0
 13 14  1  0  0  0  0
 14 18  1  0  0  0  0
 16 17  1  0  0  0  0
  1 22  1  0  0  0  0
  2 23  1  0  0  0  0
  3 24  1  0  0  0  0
  4 25  1  0  0  0  0
  5 26  1  0  0  0  0
  9 27  1  0  0  0  0
  9 28  1  0  0  0  0
 10 29  1  0  0  0  0
 10 30  1  0  0  0  0
 11 31  1  0  0  0  0
 11 32  1  0  0  0  0
 12 33  1  0  0  0  0
 13 34  1  0  0  0  0
 15 35  1  0  0  0  0
 15 36  1  0  0  0  0
 15 37  1  0  0  0  0
 16 38  1  0  0  0  0
 16 39  1  0  0  0  0
 18 40  1  0  0  0  0
 21 41  1  0  0  0  0
M  END
> <id>
EN300-28287709

> <smiles>
CC(=O)NC1(C2CC1CN(CC=3C=CC=CC3)C2)C(=O)O

> <IUPAC Name>
3-benzyl-6-acetamido-3-azabicyclo[3.1.1]heptane-6-carboxylic acid

> <CAS>
2680742-80-5

> <URL>
https://www.enaminestore.com/catalog/EN300-28287709

> <ROCS_ShapeQuery>
x0446_0A_x1080_0A_x0929_0A_x0812_0A_x0719_0A_x1140_0A_x0528_0A_x0310_0A

> <ROCS_TanimotoCombo>
0.420 

> <ROCS_ShapeTanimoto>
0.239 

> <ROCS_ColorTanimoto>
0.181 

> <ROCS_RefTversky>
0.218 

> <ROCS_RefColorTversky>
0.214 

> <ROCS_RefTverskyCombo>
0.432 

> <ROCS_FitTversky>
1.695 

> <ROCS_FitColorTversky>
0.538 

> <ROCS_FitTverskyCombo>
2.233 

> <ROCS_ColorScore>
-7.703

> <ROCS_Overlap>
2571.901

> <ROCS_Rank>
202                 

$$$$
untitled-dbase-388412_9
  -OEChem-02082415563D

 39 41  0     1  0  0  0  0  0999 V2000
   10.3390   14.5110   21.5840 C   0  0  0  0  0  0  0  0  0  0  0  0
    6.8131   14.1701   25.5513 C   0  0  0  0  0  0  0  0  0  0  0  0
    8.4348    9.8077   23.0657 C   0  0  0  0  0  0  0  0  0  0  0  0
    7.0672   11.7836   23.7825 C   0  0  0  0  0  0  0  0  0  0  0  0
    8.9376   10.9513   25.2401 C   0  0  0  0  0  0  0  0  0  0  0  0
    8.6607   11.9932   21.8576 C   0  0  0  0  0  0  0  0  0  0  0  0
   10.5297   11.1622   23.3146 C   0  0  0  0  0  0  0  0  0  0  0  0
    9.1654   13.1432   24.0326 C   0  0  0  0  0  0  0  0  0  0  0  0
    7.6786   11.0528   22.5752 C   0  0  1  0  0  0  0  0  0  0  0  0
    9.5536   10.2190   24.0363 C   0  0  2  0  0  0  0  0  0  0  0  0
    8.1753   12.2128   24.7723 C   0  0  0  0  0  0  0  0  0  0  0  0
    9.7901   12.4228   22.8172 C   0  0  0  0  0  0  0  0  0  0  0  0
   11.4576   15.2549   20.9331 C   0  0  0  0  0  0  0  0  0  0  0  0
    7.5616   12.9374   25.9736 C   0  0  0  0  0  0  0  0  0  0  0  0
   10.7154   13.3026   22.1368 N   0  0  0  0  0  0  0  0  0  0  0  0
    9.2133   14.9951   21.5883 O   0  0  0  0  0  0  0  0  0  0  0  0
    6.6781   14.5862   24.4105 O   0  0  0  0  0  0  0  0  0  0  0  0
    6.2882   14.7809   26.6445 O   0  0  0  0  0  0  0  0  0  0  0  0
    7.7406    9.1198   23.5640 H   0  0  0  0  0  0  0  0  0  0  0  0
    8.8600    9.2668   22.2114 H   0  0  0  0  0  0  0  0  0  0  0  0
    6.5061   12.6613   23.4367 H   0  0  0  0  0  0  0  0  0  0  0  0
    6.3450   11.1261   24.2836 H   0  0  0  0  0  0  0  0  0  0  0  0
    8.2589   10.2744   25.7749 H   0  0  0  0  0  0  0  0  0  0  0  0
    9.7295   11.2271   25.9486 H   0  0  0  0  0  0  0  0  0  0  0  0
    9.0788   11.4828   20.9801 H   0  0  0  0  0  0  0  0  0  0  0  0
    8.1202   12.8738   21.4866 H   0  0  0  0  0  0  0  0  0  0  0  0
   11.3421   11.4416   23.9982 H   0  0  0  0  0  0  0  0  0  0  0  0
   10.9916   10.6340   22.4702 H   0  0  0  0  0  0  0  0  0  0  0  0
    8.6441   14.0519   23.7017 H   0  0  0  0  0  0  0  0  0  0  0  0
    9.9553   13.4670   24.7241 H   0  0  0  0  0  0  0  0  0  0  0  0
    6.8830   10.7529   21.8840 H   0  0  0  0  0  0  0  0  0  0  0  0
   10.0889    9.3274   24.3815 H   0  0  0  0  0  0  0  0  0  0  0  0
   11.5699   14.9976   19.8676 H   0  0  0  0  0  0  0  0  0  0  0  0
   11.3057   16.3460   20.9547 H   0  0  0  0  0  0  0  0  0  0  0  0
   12.4529   15.0923   21.3769 H   0  0  0  0  0  0  0  0  0  0  0  0
    6.8730   12.2580   26.4779 H   0  0  0  0  0  0  0  0  0  0  0  0
    8.3629   13.2241   26.6561 H   0  0  0  0  0  0  0  0  0  0  0  0
   11.6868   13.0184   22.0623 H   0  0  0  0  0  0  0  0  0  0  0  0
    5.7905   15.5921   26.4064 H   0  0  0  0  0  0  0  0  0  0  0  0
  1 13  1  0  0  0  0
  1 15  1  0  0  0  0
  1 16  2  0  0  0  0
  2 14  1  0  0  0  0
  2 17  2  0  0  0  0
  2 18  1  0  0  0  0
  3  9  1  0  0  0  0
  3 10  1  0  0  0  0
  4  9  1  0  0  0  0
  4 11  1  0  0  0  0
  5 10  1  0  0  0  0
  5 11  1  0  0  0  0
  6  9  1  0  0  0  0
  6 12  1  0  0  0  0
  7 10  1  0  0  0  0
  7 12  1  0  0  0  0
  8 11  1  0  0  0  0
  8 12  1  0  0  0  0
 11 14  1  0  0  0  0
 12 15  1  0  0  0  0
  3 19  1  0  0  0  0
  3 20  1  0  0  0  0
  4 21  1  0  0  0  0
  4 22  1  0  0  0  0
  5 23  1  0  0  0  0
  5 24  1  0  0  0  0
  6 25  1  0  0  0  0
  6 26  1  0  0  0  0
  7 27  1  0  0  0  0
  7 28  1  0  0  0  0
  8 29  1  0  0  0  0
  8 30  1  0  0  0  0
  9 31  1  0  0  0  0
 10 32  1  0  0  0  0
 13 33  1  0  0  0  0
 13 34  1  0  0  0  0
 13 35  1  0  0  0  0
 14 36  1  0  0  0  0
 14 37  1  0  0  0  0
 15 38  1  0  0  0  0
 18 39  1  0  0  0  0
M  END
> <id>
EN300-297459

> <smiles>
CC(=O)NC1(CC2CC3CC(CC(=O)O)(C2)C1)C3

> <IUPAC Name>
2-(3-acetamidoadamantan-1-yl)acetic acid

> <CAS>
75667-93-5

> <URL>
https://www.enaminestore.com/catalog/EN300-297459

> <ROCS_ShapeQuery>
x0446_0A_x1080_0A_x0929_0A_x0812_0A_x0719_0A_x1140_0A_x0528_0A_x0310_0A

> <ROCS_TanimotoCombo>
0.420 

> <ROCS_ShapeTanimoto>
0.232 

> <ROCS_ColorTanimoto>
0.188 

> <ROCS_RefTversky>
0.210 

> <ROCS_RefColorTversky>
0.214 

> <ROCS_RefTverskyCombo>
0.425 

> <ROCS_FitTversky>
1.793 

> <ROCS_FitColorTversky>
0.603 

> <ROCS_FitTverskyCombo>
2.396 

> <ROCS_ColorScore>
-7.697

> <ROCS_Overlap>
2484.130

> <ROCS_Rank>
203                 

$$$$
untitled-dbase-66999_0
  -OEChem-02082415563D

 24 26  0     1  0  0  0  0  0999 V2000
    6.9256   13.4385   24.5074 C   0  0  0  0  0  0  0  0  0  0  0  0
    8.4450   13.6582   22.0452 C   0  0  0  0  0  0  0  0  0  0  0  0
    9.9405   10.5068   23.6576 C   0  0  0  0  0  0  0  0  0  0  0  0
    9.0923   10.4499   24.9358 C   0  0  0  0  0  0  0  0  0  0  0  0
    6.6427   11.2862   25.3171 C   0  0  0  0  0  0  0  0  0  0  0  0
    8.2885   12.7932   24.4336 C   0  0  2  0  0  0  0  0  0  0  0  0
    9.0729   12.8249   23.1206 C   0  0  1  0  0  0  0  0  0  0  0  0
    9.0664   11.3433   22.7143 C   0  0  2  0  0  0  0  0  0  0  0  0
    7.9155   11.3214   24.5383 C   0  0  1  0  0  0  0  0  0  0  0  0
    6.6627   14.5949   24.2152 O   0  0  0  0  0  0  0  0  0  0  0  0
    7.5842   13.2703   21.2694 O   0  0  0  0  0  0  0  0  0  0  0  0
    6.0114   12.5424   25.0024 O   0  0  0  0  0  0  0  0  0  0  0  0
    7.7445   10.9508   23.1512 O   0  0  0  0  0  0  0  0  0  0  0  0
    8.9647   14.9101   22.0448 O   0  0  0  0  0  0  0  0  0  0  0  0
   10.9302   10.9441   23.8190 H   0  0  0  0  0  0  0  0  0  0  0  0
   10.0711    9.4928   23.2634 H   0  0  0  0  0  0  0  0  0  0  0  0
    8.7781    9.4174   25.1259 H   0  0  0  0  0  0  0  0  0  0  0  0
    9.6281   10.8199   25.8147 H   0  0  0  0  0  0  0  0  0  0  0  0
    5.9756   10.4777   25.0058 H   0  0  0  0  0  0  0  0  0  0  0  0
    6.8007   11.2490   26.3991 H   0  0  0  0  0  0  0  0  0  0  0  0
    8.8766   13.1324   25.2935 H   0  0  0  0  0  0  0  0  0  0  0  0
   10.0939   13.1936   23.2672 H   0  0  0  0  0  0  0  0  0  0  0  0
    9.2199   11.1435   21.6508 H   0  0  0  0  0  0  0  0  0  0  0  0
    8.5672   15.4716   21.3455 H   0  0  0  0  0  0  0  0  0  0  0  0
  1  6  1  6  0  0  0
  1 10  2  0  0  0  0
  1 12  1  0  0  0  0
  2  7  1  6  0  0  0
  2 11  2  0  0  0  0
  2 14  1  0  0  0  0
  3  4  1  0  0  0  0
  3  8  1  0  0  0  0
  4  9  1  0  0  0  0
  5  9  1  0  0  0  0
  5 12  1  0  0  0  0
  6  7  1  0  0  0  0
  6  9  1  0  0  0  0
  7  8  1  0  0  0  0
  8 13  1  1  0  0  0
  9 13  1  6  0  0  0
  3 15  1  0  0  0  0
  3 16  1  0  0  0  0
  4 17  1  0  0  0  0
  4 18  1  0  0  0  0
  5 19  1  0  0  0  0
  5 20  1  0  0  0  0
  6 21  1  0  0  0  0
  7 22  1  0  0  0  0
  8 23  1  0  0  0  0
 14 24  1  0  0  0  0
M  END
> <id>
EN300-310745

> <smiles>
OC(=O)[C@@H]1[C@H]2CC[C@]3(COC(=O)[C@H]13)O2 |&1:3,4,7,12,r|

> <IUPAC Name>
rac-(1R,5S,6R,7S)-4-oxo-3,10-dioxatricyclo[5.2.1.0,1,5]decane-6-carboxylic acid

> <CAS>
146728-81-6

> <Purity>
95

> <URL>
https://www.enaminestore.com/catalog/EN300-310745

> <ROCS_ShapeQuery>
x0446_0A_x1080_0A_x0929_0A_x0812_0A_x0719_0A_x1140_0A_x0528_0A_x0310_0A

> <ROCS_TanimotoCombo>
0.420 

> <ROCS_ShapeTanimoto>
0.210 

> <ROCS_ColorTanimoto>
0.210 

> <ROCS_RefTversky>
0.192 

> <ROCS_RefColorTversky>
0.239 

> <ROCS_RefTverskyCombo>
0.431 

> <ROCS_FitTversky>
1.814 

> <ROCS_FitColorTversky>
0.627 

> <ROCS_FitTverskyCombo>
2.441 

> <ROCS_ColorScore>
-8.604

> <ROCS_Overlap>
2265.844

> <ROCS_Rank>
204                 

$$$$
untitled-dbase-485511_2
  -OEChem-02082415563D

 36 38  0     0  0  0  0  0  0999 V2000
   10.9309   15.5975   22.2678 C   0  0  0  0  0  0  0  0  0  0  0  0
    7.2110   10.6809   23.9635 C   0  0  0  0  0  0  0  0  0  0  0  0
    8.3723   12.5763   25.1207 C   0  0  0  0  0  0  0  0  0  0  0  0
    8.1271   12.5865   22.6184 C   0  0  0  0  0  0  0  0  0  0  0  0
    9.4609   10.3293   25.0070 C   0  0  0  0  0  0  0  0  0  0  0  0
    9.2147   10.3403   22.4992 C   0  0  0  0  0  0  0  0  0  0  0  0
    7.4515   12.2001   23.9462 C   0  0  0  0  0  0  0  0  0  0  0  0
    8.5511    9.9369   23.8286 C   0  0  0  0  0  0  0  0  0  0  0  0
    9.7295   11.8477   24.9870 C   0  0  0  0  0  0  0  0  0  0  0  0
    9.4849   11.8586   22.4807 C   0  0  0  0  0  0  0  0  0  0  0  0
   10.4143   12.2636   23.6564 C   0  0  0  0  0  0  0  0  0  0  0  0
   11.8284   11.6844   23.5197 C   0  0  0  0  0  0  0  0  0  0  0  0
   11.2018   14.1322   22.4686 C   0  0  0  0  0  0  0  0  0  0  0  0
   11.6095   16.5161   22.7020 O   0  0  0  0  0  0  0  0  0  0  0  0
    9.8093   15.7689   21.5236 O   0  0  0  0  0  0  0  0  0  0  0  0
   10.5797   13.6886   23.6612 O   0  0  0  0  0  0  0  0  0  0  0  0
    6.7125   10.3903   24.8963 H   0  0  0  0  0  0  0  0  0  0  0  0
    6.5402   10.3978   23.1430 H   0  0  0  0  0  0  0  0  0  0  0  0
    8.5187   13.6624   25.1504 H   0  0  0  0  0  0  0  0  0  0  0  0
    7.8955   12.3014   26.0700 H   0  0  0  0  0  0  0  0  0  0  0  0
    7.4753   12.3190   21.7771 H   0  0  0  0  0  0  0  0  0  0  0  0
    8.2665   13.6729   22.5699 H   0  0  0  0  0  0  0  0  0  0  0  0
    8.9802   10.0512   25.9537 H   0  0  0  0  0  0  0  0  0  0  0  0
   10.3986    9.7651   24.9654 H   0  0  0  0  0  0  0  0  0  0  0  0
   10.1427    9.7771   22.3538 H   0  0  0  0  0  0  0  0  0  0  0  0
    8.5589   10.0707   21.6615 H   0  0  0  0  0  0  0  0  0  0  0  0
    6.4951   12.7260   24.0421 H   0  0  0  0  0  0  0  0  0  0  0  0
    8.3742    8.8557   23.8413 H   0  0  0  0  0  0  0  0  0  0  0  0
   10.3591   12.1307   25.8392 H   0  0  0  0  0  0  0  0  0  0  0  0
    9.9369   12.1485   21.5244 H   0  0  0  0  0  0  0  0  0  0  0  0
   12.2610   12.0041   22.5758 H   0  0  0  0  0  0  0  0  0  0  0  0
   11.7795   10.5995   23.5466 H   0  0  0  0  0  0  0  0  0  0  0  0
   12.4460   12.0397   24.3399 H   0  0  0  0  0  0  0  0  0  0  0  0
   12.2789   13.9727   22.5641 H   0  0  0  0  0  0  0  0  0  0  0  0
   10.8072   13.5574   21.6264 H   0  0  0  0  0  0  0  0  0  0  0  0
    9.6092   16.7180   21.3763 H   0  0  0  0  0  0  0  0  0  0  0  0
  1 13  1  0  0  0  0
  1 14  2  0  0  0  0
  1 15  1  0  0  0  0
  2  7  1  0  0  0  0
  2  8  1  0  0  0  0
  3  7  1  0  0  0  0
  3  9  1  0  0  0  0
  4  7  1  0  0  0  0
  4 10  1  0  0  0  0
  5  8  1  0  0  0  0
  5  9  1  0  0  0  0
  6  8  1  0  0  0  0
  6 10  1  0  0  0  0
  9 11  1  0  0  0  0
 10 11  1  0  0  0  0
 11 12  1  0  0  0  0
 11 16  1  0  0  0  0
 13 16  1  0  0  0  0
  2 17  1  0  0  0  0
  2 18  1  0  0  0  0
  3 19  1  0  0  0  0
  3 20  1  0  0  0  0
  4 21  1  0  0  0  0
  4 22  1  0  0  0  0
  5 23  1  0  0  0  0
  5 24  1  0  0  0  0
  6 25  1  0  0  0  0
  6 26  1  0  0  0  0
  7 27  1  0  0  0  0
  8 28  1  0  0  0  0
  9 29  1  0  0  0  0
 10 30  1  0  0  0  0
 12 31  1  0  0  0  0
 12 32  1  0  0  0  0
 12 33  1  0  0  0  0
 13 34  1  0  0  0  0
 13 35  1  0  0  0  0
 15 36  1  0  0  0  0
M  END
> <id>
EN300-11812219

> <smiles>
CC1(OCC(=O)O)C2CC3CC(C2)CC1C3

> <IUPAC Name>
2-[(2-methyladamantan-2-yl)oxy]acetic acid

> <CAS>
893781-62-9

> <Purity>
95

> <URL>
https://www.enaminestore.com/catalog/EN300-11812219

> <ROCS_ShapeQuery>
x0446_0A_x1080_0A_x0929_0A_x0812_0A_x0719_0A_x1140_0A_x0528_0A_x0310_0A

> <ROCS_TanimotoCombo>
0.420 

> <ROCS_ShapeTanimoto>
0.223 

> <ROCS_ColorTanimoto>
0.197 

> <ROCS_RefTversky>
0.202 

> <ROCS_RefColorTversky>
0.219 

> <ROCS_RefTverskyCombo>
0.421 

> <ROCS_FitTversky>
1.837 

> <ROCS_FitColorTversky>
0.664 

> <ROCS_FitTverskyCombo>
2.501 

> <ROCS_ColorScore>
-7.836

> <ROCS_Overlap>
2387.513

> <ROCS_Rank>
205                 

$$$$
untitled-dbase-19668_5
  -OEChem-02082415563D

 47 50  0     0  0  0  0  0  0999 V2000
   11.7690   15.9862   23.1842 C   0  0  0  0  0  0  0  0  0  0  0  0
   11.6997   14.4479   21.3224 C   0  0  0  0  0  0  0  0  0  0  0  0
   13.1521   16.0962   23.0419 C   0  0  0  0  0  0  0  0  0  0  0  0
   13.0830   14.5579   21.1801 C   0  0  0  0  0  0  0  0  0  0  0  0
   11.0427   15.1620   22.3245 C   0  0  0  0  0  0  0  0  0  0  0  0
   13.8092   15.3821   22.0398 C   0  0  0  0  0  0  0  0  0  0  0  0
    9.5810   15.0457   22.4746 C   0  0  0  0  0  0  0  0  0  0  0  0
    9.3536   10.2903   24.7591 C   0  0  0  0  0  0  0  0  0  0  0  0
    8.9682   10.4320   22.2854 C   0  0  0  0  0  0  0  0  0  0  0  0
    7.0348   10.6347   23.8692 C   0  0  0  0  0  0  0  0  0  0  0  0
   10.1457   12.2966   23.4796 C   0  0  0  0  0  0  0  0  0  0  0  0
    8.2080   12.4999   25.0670 C   0  0  0  0  0  0  0  0  0  0  0  0
    7.8214   12.6419   22.5879 C   0  0  0  0  0  0  0  0  0  0  0  0
    9.9445   10.7722   23.4237 C   0  0  0  0  0  0  0  0  0  0  0  0
    8.0014   10.9760   25.0154 C   0  0  0  0  0  0  0  0  0  0  0  0
    7.6140   11.1183   22.5294 C   0  0  0  0  0  0  0  0  0  0  0  0
    8.7967   13.0111   23.7308 C   0  0  0  0  0  0  0  0  0  0  0  0
   15.7661   14.7313   20.8555 C   0  0  0  0  0  0  0  0  0  0  0  0
    9.0008   14.5274   23.7859 C   0  0  0  0  0  0  0  0  0  0  0  0
    8.8362   15.3946   21.4648 N   0  0  0  0  0  0  0  0  0  0  0  0
    9.5925   15.8339   20.3780 O   0  0  0  0  0  0  0  0  0  0  0  0
   15.1588   15.4891   21.9009 O   0  0  0  0  0  0  0  0  0  0  0  0
   11.2678   16.5476   23.9684 H   0  0  0  0  0  0  0  0  0  0  0  0
   11.1429   13.8031   20.6473 H   0  0  0  0  0  0  0  0  0  0  0  0
   13.7123   16.7397   23.7147 H   0  0  0  0  0  0  0  0  0  0  0  0
   13.5893   13.9990   20.3979 H   0  0  0  0  0  0  0  0  0  0  0  0
    9.2234    9.2012   24.7395 H   0  0  0  0  0  0  0  0  0  0  0  0
   10.0481   10.5130   25.5784 H   0  0  0  0  0  0  0  0  0  0  0  0
    9.3854   10.7568   21.3243 H   0  0  0  0  0  0  0  0  0  0  0  0
    8.8312    9.3454   22.2219 H   0  0  0  0  0  0  0  0  0  0  0  0
    6.8635    9.5518   23.8340 H   0  0  0  0  0  0  0  0  0  0  0  0
    6.0602   11.1054   24.0479 H   0  0  0  0  0  0  0  0  0  0  0  0
   10.8605   12.5448   24.2749 H   0  0  0  0  0  0  0  0  0  0  0  0
   10.5896   12.6442   22.5378 H   0  0  0  0  0  0  0  0  0  0  0  0
    7.2502   12.9946   25.2737 H   0  0  0  0  0  0  0  0  0  0  0  0
    8.8786   12.7526   25.8985 H   0  0  0  0  0  0  0  0  0  0  0  0
    8.2123   12.9976   21.6257 H   0  0  0  0  0  0  0  0  0  0  0  0
    6.8548   13.1396   22.7383 H   0  0  0  0  0  0  0  0  0  0  0  0
   10.9065   10.2788   23.2456 H   0  0  0  0  0  0  0  0  0  0  0  0
    7.5843   10.6274   25.9668 H   0  0  0  0  0  0  0  0  0  0  0  0
    6.9222   10.8707   21.7165 H   0  0  0  0  0  0  0  0  0  0  0  0
   16.8445   14.9080   20.8556 H   0  0  0  0  0  0  0  0  0  0  0  0
   15.3379   15.0265   19.8943 H   0  0  0  0  0  0  0  0  0  0  0  0
   15.5730   13.6698   21.0276 H   0  0  0  0  0  0  0  0  0  0  0  0
    9.6486   14.7819   24.6258 H   0  0  0  0  0  0  0  0  0  0  0  0
    8.0426   15.0106   23.9883 H   0  0  0  0  0  0  0  0  0  0  0  0
    8.8993   16.0485   19.7312 H   0  0  0  0  0  0  0  0  0  0  0  0
  1  3  2  0  0  0  0
  1  5  1  0  0  0  0
  2  4  1  0  0  0  0
  2  5  2  0  0  0  0
  3  6  1  0  0  0  0
  4  6  2  0  0  0  0
  5  7  1  0  0  0  0
  6 22  1  0  0  0  0
  7 19  1  0  0  0  0
  7 20  2  0  0  0  0
  8 14  1  0  0  0  0
  8 15  1  0  0  0  0
  9 14  1  0  0  0  0
  9 16  1  0  0  0  0
 10 15  1  0  0  0  0
 10 16  1  0  0  0  0
 11 14  1  0  0  0  0
 11 17  1  0  0  0  0
 12 15  1  0  0  0  0
 12 17  1  0  0  0  0
 13 16  1  0  0  0  0
 13 17  1  0  0  0  0
 17 19  1  0  0  0  0
 18 22  1  0  0  0  0
 20 21  1  4  0  0  0
  1 23  1  0  0  0  0
  2 24  1  0  0  0  0
  3 25  1  0  0  0  0
  4 26  1  0  0  0  0
  8 27  1  0  0  0  0
  8 28  1  0  0  0  0
  9 29  1  0  0  0  0
  9 30  1  0  0  0  0
 10 31  1  0  0  0  0
 10 32  1  0  0  0  0
 11 33  1  0  0  0  0
 11 34  1  0  0  0  0
 12 35  1  0  0  0  0
 12 36  1  0  0  0  0
 13 37  1  0  0  0  0
 13 38  1  0  0  0  0
 14 39  1  0  0  0  0
 15 40  1  0  0  0  0
 16 41  1  0  0  0  0
 18 42  1  0  0  0  0
 18 43  1  0  0  0  0
 18 44  1  0  0  0  0
 19 45  1  0  0  0  0
 19 46  1  0  0  0  0
 21 47  1  0  0  0  0
M  END
> <id>
EN300-07900

> <smiles>
COC=1C=CC(=CC1)C(=NO)CC2(CC3CC4CC(C3)C2)C4

> <IUPAC Name>
N-[2-(adamantan-1-yl)-1-(4-methoxyphenyl)ethylidene]hydroxylamine

> <CAS>
749906-92-1

> <URL>
https://www.enaminestore.com/catalog/EN300-07900

> <ROCS_ShapeQuery>
x0446_0A_x1080_0A_x0929_0A_x0812_0A_x0719_0A_x1140_0A_x0528_0A_x0310_0A

> <ROCS_TanimotoCombo>
0.420 

> <ROCS_ShapeTanimoto>
0.232 

> <ROCS_ColorTanimoto>
0.188 

> <ROCS_RefTversky>
0.213 

> <ROCS_RefColorTversky>
0.210 

> <ROCS_RefTverskyCombo>
0.423 

> <ROCS_FitTversky>
1.606 

> <ROCS_FitColorTversky>
0.639 

> <ROCS_FitTverskyCombo>
2.246 

> <ROCS_ColorScore>
-7.546

> <ROCS_Overlap>
2515.295

> <ROCS_Rank>
206                 

$$$$
untitled-dbase-400682_2
  -OEChem-02082415563D

 30 32  0     0  0  0  0  0  0999 V2000
   12.6982   14.4703   23.1348 C   0  0  0  0  0  0  0  0  0  0  0  0
   10.9396   15.0289   21.5752 C   0  0  0  0  0  0  0  0  0  0  0  0
   13.4014   15.6121   22.7508 C   0  0  0  0  0  0  0  0  0  0  0  0
   11.6428   16.1708   21.1913 C   0  0  0  0  0  0  0  0  0  0  0  0
    7.5237   10.3706   24.5221 C   0  0  0  0  0  0  0  0  0  0  0  0
   11.4673   14.1787   22.5470 C   0  0  0  0  0  0  0  0  0  0  0  0
    7.6257   11.7583   24.3701 C   0  0  0  0  0  0  0  0  0  0  0  0
   12.8737   16.4623   21.7791 C   0  0  0  0  0  0  0  0  0  0  0  0
    8.8698   11.9625   23.8184 C   0  0  0  0  0  0  0  0  0  0  0  0
   11.4115   11.6515   22.7449 C   0  0  0  0  0  0  0  0  0  0  0  0
   10.7178   12.9615   22.9566 C   0  0  0  0  0  0  0  0  0  0  0  0
   10.7315   10.5561   23.1205 C   0  0  0  0  0  0  0  0  0  0  0  0
    6.6738   12.7750   24.7022 C   0  0  0  0  0  0  0  0  0  0  0  0
   11.2951    9.1752   22.9683 C   0  0  0  0  0  0  0  0  0  0  0  0
    8.6099    9.7232   24.1044 N   0  0  0  0  0  0  0  0  0  0  0  0
    9.5213   13.0992   23.4513 N   0  0  0  0  0  0  0  0  0  0  0  0
    9.4493   10.7026   23.6669 N   0  0  0  0  0  0  0  0  0  0  0  0
    6.8208   14.0046   24.5431 O   0  0  0  0  0  0  0  0  0  0  0  0
    5.5152   12.2793   25.2398 O   0  0  0  0  0  0  0  0  0  0  0  0
   13.5489   17.5588   21.4104 F   0  0  0  0  0  0  0  0  0  0  0  0
   10.5112    8.4360   22.1514 F   0  0  0  0  0  0  0  0  0  0  0  0
   12.5215    9.2292   22.4021 F   0  0  0  0  0  0  0  0  0  0  0  0
   13.1187   13.8148   23.8929 H   0  0  0  0  0  0  0  0  0  0  0  0
    9.9807   14.8117   21.1110 H   0  0  0  0  0  0  0  0  0  0  0  0
   14.3597   15.8393   23.2084 H   0  0  0  0  0  0  0  0  0  0  0  0
   11.2322   16.8328   20.4343 H   0  0  0  0  0  0  0  0  0  0  0  0
    6.7007    9.7949   24.9214 H   0  0  0  0  0  0  0  0  0  0  0  0
   12.4051   11.6228   22.3159 H   0  0  0  0  0  0  0  0  0  0  0  0
   11.3666    8.6880   23.9365 H   0  0  0  0  0  0  0  0  0  0  0  0
    4.8559   12.9682   25.4700 H   0  0  0  0  0  0  0  0  0  0  0  0
  1  3  2  0  0  0  0
  1  6  1  0  0  0  0
  2  4  1  0  0  0  0
  2  6  2  0  0  0  0
  3  8  1  0  0  0  0
  4  8  2  0  0  0  0
  5  7  1  0  0  0  0
  5 15  2  0  0  0  0
  6 11  1  0  0  0  0
  7  9  2  0  0  0  0
  7 13  1  0  0  0  0
  8 20  1  0  0  0  0
  9 16  1  0  0  0  0
  9 17  1  0  0  0  0
 10 11  1  0  0  0  0
 10 12  2  0  0  0  0
 11 16  2  0  0  0  0
 12 14  1  0  0  0  0
 12 17  1  0  0  0  0
 13 18  2  0  0  0  0
 13 19  1  0  0  0  0
 14 21  1  0  0  0  0
 14 22  1  0  0  0  0
 15 17  1  0  0  0  0
  1 23  1  0  0  0  0
  2 24  1  0  0  0  0
  3 25  1  0  0  0  0
  4 26  1  0  0  0  0
  5 27  1  0  0  0  0
 10 28  1  0  0  0  0
 14 29  1  0  0  0  0
 19 30  1  0  0  0  0
M  END
> <id>
EN300-228918

> <smiles>
OC(=O)C=1C=NN2C(=CC(=NC12)C=3C=CC(F)=CC3)C(F)F

> <MDLNUMBER>
MFCD04967191

> <IUPAC Name>
7-(difluoromethyl)-5-(4-fluorophenyl)pyrazolo[1,5-a]pyrimidine-3-carboxylic acid

> <CAS>
712319-09-0

> <URL>
https://www.enaminestore.com/catalog/EN300-228918

> <ROCS_ShapeQuery>
x0446_0A_x1080_0A_x0929_0A_x0812_0A_x0719_0A_x1140_0A_x0528_0A_x0310_0A

> <ROCS_TanimotoCombo>
0.420 

> <ROCS_ShapeTanimoto>
0.263 

> <ROCS_ColorTanimoto>
0.156 

> <ROCS_RefTversky>
0.237 

> <ROCS_RefColorTversky>
0.171 

> <ROCS_RefTverskyCombo>
0.408 

> <ROCS_FitTversky>
1.747 

> <ROCS_FitColorTversky>
0.644 

> <ROCS_FitTverskyCombo>
2.392 

> <ROCS_ColorScore>
-6.118

> <ROCS_Overlap>
2794.594

> <ROCS_Rank>
207                 

$$$$
untitled-dbase-264718_6
  -OEChem-02082415563D

 51 54  0     0  0  0  0  0  0999 V2000
    9.6706   14.9668   22.4471 C   0  0  0  0  0  0  0  0  0  0  0  0
    9.3309   10.3251   22.5745 C   0  0  0  0  0  0  0  0  0  0  0  0
    7.0126   10.7040   23.4519 C   0  0  0  0  0  0  0  0  0  0  0  0
    8.9140   10.3467   25.0470 C   0  0  0  0  0  0  0  0  0  0  0  0
    8.2681   12.5878   22.3727 C   0  0  0  0  0  0  0  0  0  0  0  0
   10.1739   12.2297   23.9714 C   0  0  0  0  0  0  0  0  0  0  0  0
    7.8506   12.6094   24.8510 C   0  0  0  0  0  0  0  0  0  0  0  0
   12.0117   15.1626   23.4152 C   0  0  0  0  0  0  0  0  0  0  0  0
   11.6715   14.5982   21.0424 C   0  0  0  0  0  0  0  0  0  0  0  0
   13.1340   16.1157   23.0001 C   0  0  0  0  0  0  0  0  0  0  0  0
   12.7951   15.5659   20.6725 C   0  0  0  0  0  0  0  0  0  0  0  0
    8.0075   11.0717   22.3385 C   0  0  0  0  0  0  0  0  0  0  0  0
    9.9184   10.7127   23.9417 C   0  0  0  0  0  0  0  0  0  0  0  0
    7.5885   11.0933   24.8235 C   0  0  0  0  0  0  0  0  0  0  0  0
    8.8546   13.0046   23.7423 C   0  0  0  0  0  0  0  0  0  0  0  0
   15.5346   16.1122   20.1318 C   0  0  0  0  0  0  0  0  0  0  0  0
    9.1128   14.5134   23.7726 C   0  0  0  0  0  0  0  0  0  0  0  0
   14.8701   16.5616   21.3885 C   0  0  0  0  0  0  0  0  0  0  0  0
   11.0589   14.9597   22.3199 N   0  0  0  0  0  0  0  0  0  0  0  0
   13.7798   15.6608   21.7601 N   0  0  0  0  0  0  0  0  0  0  0  0
    8.8956   15.3199   21.5547 O   0  0  0  0  0  0  0  0  0  0  0  0
    9.1622    9.2419   22.5330 H   0  0  0  0  0  0  0  0  0  0  0  0
   10.0449   10.5667   21.7776 H   0  0  0  0  0  0  0  0  0  0  0  0
    6.0580   11.2184   23.2864 H   0  0  0  0  0  0  0  0  0  0  0  0
    6.8028    9.6276   23.4259 H   0  0  0  0  0  0  0  0  0  0  0  0
    8.7381    9.2639   25.0493 H   0  0  0  0  0  0  0  0  0  0  0  0
    9.3279   10.6039   26.0298 H   0  0  0  0  0  0  0  0  0  0  0  0
    8.9593   12.8609   21.5649 H   0  0  0  0  0  0  0  0  0  0  0  0
    7.3314   13.1269   22.1812 H   0  0  0  0  0  0  0  0  0  0  0  0
   10.6159   12.5099   24.9363 H   0  0  0  0  0  0  0  0  0  0  0  0
   10.9085   12.4947   23.2001 H   0  0  0  0  0  0  0  0  0  0  0  0
    6.9043   13.1492   24.7161 H   0  0  0  0  0  0  0  0  0  0  0  0
    8.2398   12.8979   25.8358 H   0  0  0  0  0  0  0  0  0  0  0  0
   12.4206   14.1769   23.6699 H   0  0  0  0  0  0  0  0  0  0  0  0
   11.5234   15.5513   24.3110 H   0  0  0  0  0  0  0  0  0  0  0  0
   10.9219   14.5799   20.2446 H   0  0  0  0  0  0  0  0  0  0  0  0
   12.0607   13.5780   21.1477 H   0  0  0  0  0  0  0  0  0  0  0  0
   12.7304   17.1304   22.8842 H   0  0  0  0  0  0  0  0  0  0  0  0
   13.8723   16.1485   23.8104 H   0  0  0  0  0  0  0  0  0  0  0  0
   13.2828   15.1928   19.7638 H   0  0  0  0  0  0  0  0  0  0  0  0
   12.3718   16.5512   20.4359 H   0  0  0  0  0  0  0  0  0  0  0  0
    7.5928   10.7901   21.3642 H   0  0  0  0  0  0  0  0  0  0  0  0
   10.8598   10.1763   24.1052 H   0  0  0  0  0  0  0  0  0  0  0  0
    6.8764   10.8272   25.6125 H   0  0  0  0  0  0  0  0  0  0  0  0
   14.7984   16.0903   19.3148 H   0  0  0  0  0  0  0  0  0  0  0  0
   16.3454   16.8102   19.8761 H   0  0  0  0  0  0  0  0  0  0  0  0
   15.9507   15.1043   20.2774 H   0  0  0  0  0  0  0  0  0  0  0  0
    9.8248   14.7501   24.5612 H   0  0  0  0  0  0  0  0  0  0  0  0
    8.1796   15.0413   23.9609 H   0  0  0  0  0  0  0  0  0  0  0  0
   15.6124   16.5808   22.2001 H   0  0  0  0  0  0  0  0  0  0  0  0
   14.4648   17.5731   21.2383 H   0  0  0  0  0  0  0  0  0  0  0  0
  1 17  1  0  0  0  0
  1 19  1  0  0  0  0
  1 21  2  0  0  0  0
  2 12  1  0  0  0  0
  2 13  1  0  0  0  0
  3 12  1  0  0  0  0
  3 14  1  0  0  0  0
  4 13  1  0  0  0  0
  4 14  1  0  0  0  0
  5 12  1  0  0  0  0
  5 15  1  0  0  0  0
  6 13  1  0  0  0  0
  6 15  1  0  0  0  0
  7 14  1  0  0  0  0
  7 15  1  0  0  0  0
  8 10  1  0  0  0  0
  8 19  1  0  0  0  0
  9 11  1  0  0  0  0
  9 19  1  0  0  0  0
 10 20  1  0  0  0  0
 11 20  1  0  0  0  0
 15 17  1  0  0  0  0
 16 18  1  0  0  0  0
 18 20  1  0  0  0  0
  2 22  1  0  0  0  0
  2 23  1  0  0  0  0
  3 24  1  0  0  0  0
  3 25  1  0  0  0  0
  4 26  1  0  0  0  0
  4 27  1  0  0  0  0
  5 28  1  0  0  0  0
  5 29  1  0  0  0  0
  6 30  1  0  0  0  0
  6 31  1  0  0  0  0
  7 32  1  0  0  0  0
  7 33  1  0  0  0  0
  8 34  1  0  0  0  0
  8 35  1  0  0  0  0
  9 36  1  0  0  0  0
  9 37  1  0  0  0  0
 10 38  1  0  0  0  0
 10 39  1  0  0  0  0
 11 40  1  0  0  0  0
 11 41  1  0  0  0  0
 12 42  1  0  0  0  0
 13 43  1  0  0  0  0
 14 44  1  0  0  0  0
 16 45  1  0  0  0  0
 16 46  1  0  0  0  0
 16 47  1  0  0  0  0
 17 48  1  0  0  0  0
 17 49  1  0  0  0  0
 18 50  1  0  0  0  0
 18 51  1  0  0  0  0
M  END
> <id>
EN300-26867637

> <smiles>
CCN1CCN(CC1)C(=O)CC2(CC3CC4CC(C3)C2)C4

> <IUPAC Name>
2-(adamantan-1-yl)-1-(4-ethylpiperazin-1-yl)ethan-1-one

> <CAS>
942486-52-4

> <URL>
https://www.enaminestore.com/catalog/EN300-26867637

> <ROCS_ShapeQuery>
x0446_0A_x1080_0A_x0929_0A_x0812_0A_x0719_0A_x1140_0A_x0528_0A_x0310_0A

> <ROCS_TanimotoCombo>
0.420 

> <ROCS_ShapeTanimoto>
0.230 

> <ROCS_ColorTanimoto>
0.189 

> <ROCS_RefTversky>
0.211 

> <ROCS_RefColorTversky>
0.208 

> <ROCS_RefTverskyCombo>
0.419 

> <ROCS_FitTversky>
1.651 

> <ROCS_FitColorTversky>
0.685 

> <ROCS_FitTverskyCombo>
2.336 

> <ROCS_ColorScore>
-7.432

> <ROCS_Overlap>
2491.541

> <ROCS_Rank>
208                 

$$$$
untitled-dbase-534_5
  -OEChem-02082415563D

 35 38  0     0  0  0  0  0  0999 V2000
   15.3613   16.4025   21.6114 C   0  0  0  0  0  0  0  0  0  0  0  0
   14.7745   15.7766   22.7112 C   0  0  0  0  0  0  0  0  0  0  0  0
   14.5770   16.7723   20.5188 C   0  0  0  0  0  0  0  0  0  0  0  0
   13.4034   15.5203   22.7183 C   0  0  0  0  0  0  0  0  0  0  0  0
   13.2059   16.5160   20.5259 C   0  0  0  0  0  0  0  0  0  0  0  0
   12.6191   15.8900   21.6256 C   0  0  0  0  0  0  0  0  0  0  0  0
   10.5677   14.6319   22.2438 C   0  0  0  0  0  0  0  0  0  0  0  0
    5.6737   12.6365   25.8987 C   0  0  0  0  0  0  0  0  0  0  0  0
    6.7944   13.2601   25.5211 C   0  0  0  0  0  0  0  0  0  0  0  0
    5.4574   11.2545   25.5738 C   0  0  0  0  0  0  0  0  0  0  0  0
    6.3848   10.5791   24.8857 C   0  0  0  0  0  0  0  0  0  0  0  0
    9.7421   11.1367   23.3401 C   0  0  0  0  0  0  0  0  0  0  0  0
    9.8715   12.4386   23.6837 C   0  0  0  0  0  0  0  0  0  0  0  0
    7.8330   12.5113   24.7524 C   0  0  0  0  0  0  0  0  0  0  0  0
    8.4944   10.4105   23.7509 C   0  0  0  0  0  0  0  0  0  0  0  0
   10.7674   10.3904   22.5780 C   0  0  0  0  0  0  0  0  0  0  0  0
    9.2896   14.7789   21.9805 N   0  0  0  0  0  0  0  0  0  0  0  0
    9.2004   15.9013   21.1885 N   0  0  0  0  0  0  0  0  0  0  0  0
   10.3990   16.4296   20.9730 N   0  0  0  0  0  0  0  0  0  0  0  0
    8.9133   13.1302   24.3934 N   0  0  0  0  0  0  0  0  0  0  0  0
   11.2520   15.6342   21.6336 N   0  0  0  0  0  0  0  0  0  0  0  0
    7.5705   11.1726   24.4649 N   0  0  0  0  0  0  0  0  0  0  0  0
    8.3527    9.2252   23.4501 O   0  0  0  0  0  0  0  0  0  0  0  0
   10.6252    9.2183   22.2830 O   0  0  0  0  0  0  0  0  0  0  0  0
   11.3153   13.3536   23.2282 S   0  0  0  0  0  0  0  0  0  0  0  0
   16.4285   16.6039   21.6061 H   0  0  0  0  0  0  0  0  0  0  0  0
   15.3848   15.4898   23.5626 H   0  0  0  0  0  0  0  0  0  0  0  0
   15.0345   17.2610   19.6634 H   0  0  0  0  0  0  0  0  0  0  0  0
   12.9585   15.0325   23.5822 H   0  0  0  0  0  0  0  0  0  0  0  0
   12.6062   16.8101   19.6680 H   0  0  0  0  0  0  0  0  0  0  0  0
    4.9058   13.1594   26.4572 H   0  0  0  0  0  0  0  0  0  0  0  0
    6.9735   14.3022   25.7584 H   0  0  0  0  0  0  0  0  0  0  0  0
    4.5375   10.7807   25.8962 H   0  0  0  0  0  0  0  0  0  0  0  0
    6.2304    9.5353   24.6361 H   0  0  0  0  0  0  0  0  0  0  0  0
   11.6517   10.9806   22.3094 H   0  0  0  0  0  0  0  0  0  0  0  0
  1  2  1  0  0  0  0
  1  3  2  0  0  0  0
  2  4  2  0  0  0  0
  3  5  1  0  0  0  0
  4  6  1  0  0  0  0
  5  6  2  0  0  0  0
  6 21  1  0  0  0  0
  7 17  2  0  0  0  0
  7 21  1  0  0  0  0
  7 25  1  0  0  0  0
  8  9  2  0  0  0  0
  8 10  1  0  0  0  0
  9 14  1  0  0  0  0
 10 11  2  0  0  0  0
 11 22  1  0  0  0  0
 12 13  2  0  0  0  0
 12 15  1  0  0  0  0
 12 16  1  0  0  0  0
 13 20  1  0  0  0  0
 13 25  1  0  0  0  0
 14 20  2  0  0  0  0
 14 22  1  0  0  0  0
 15 22  1  0  0  0  0
 15 23  2  0  0  0  0
 16 24  2  0  0  0  0
 17 18  1  0  0  0  0
 18 19  2  0  0  0  0
 19 21  1  0  0  0  0
  1 26  1  0  0  0  0
  2 27  1  0  0  0  0
  3 28  1  0  0  0  0
  4 29  1  0  0  0  0
  5 30  1  0  0  0  0
  8 31  1  0  0  0  0
  9 32  1  0  0  0  0
 10 33  1  0  0  0  0
 11 34  1  0  0  0  0
 16 35  1  0  0  0  0
M  END
> <id>
EN300-01127

> <smiles>
O=CC1=C(SC2=NN=NN2C=3C=CC=CC3)N=C4C=CC=CN4C1=O

> <MDLNUMBER>
MFCD02673364

> <IUPAC Name>
4-oxo-2-[(1-phenyl-1H-1,2,3,4-tetrazol-5-yl)sulfanyl]-4H-pyrido[1,2-a]pyrimidine-3-carbaldehyde

> <CAS>
746610-48-0

> <Purity>
95

> <URL>
https://www.enaminestore.com/catalog/EN300-01127

> <ROCS_ShapeQuery>
x0446_0A_x1080_0A_x0929_0A_x0812_0A_x0719_0A_x1140_0A_x0528_0A_x0310_0A

> <ROCS_TanimotoCombo>
0.420 

> <ROCS_ShapeTanimoto>
0.260 

> <ROCS_ColorTanimoto>
0.160 

> <ROCS_RefTversky>
0.236 

> <ROCS_RefColorTversky>
0.184 

> <ROCS_RefTverskyCombo>
0.420 

> <ROCS_FitTversky>
1.615 

> <ROCS_FitColorTversky>
0.550 

> <ROCS_FitTverskyCombo>
2.165 

> <ROCS_ColorScore>
-6.596

> <ROCS_Overlap>
2793.758

> <ROCS_Rank>
209                 

$$$$
untitled-dbase-276289_4
  -OEChem-02082415563D

 46 49  0     0  0  0  0  0  0999 V2000
   10.2857   14.2838   21.6245 C   0  0  0  0  0  0  0  0  0  0  0  0
   12.8760   16.8306   22.6366 C   0  0  0  0  0  0  0  0  0  0  0  0
   11.7977   17.0894   21.5908 C   0  0  0  0  0  0  0  0  0  0  0  0
   12.7090   15.4599   23.2821 C   0  0  0  0  0  0  0  0  0  0  0  0
   11.7533   15.9869   20.5332 C   0  0  0  0  0  0  0  0  0  0  0  0
   12.6929   14.3436   22.2392 C   0  0  0  0  0  0  0  0  0  0  0  0
    8.2029   10.1082   25.1973 C   0  0  0  0  0  0  0  0  0  0  0  0
    7.3150   10.5741   22.8993 C   0  0  0  0  0  0  0  0  0  0  0  0
    7.3397   12.3935   24.6333 C   0  0  0  0  0  0  0  0  0  0  0  0
    9.7704   10.2160   23.2438 C   0  0  0  0  0  0  0  0  0  0  0  0
    9.7950   12.0319   24.9743 C   0  0  0  0  0  0  0  0  0  0  0  0
   11.6706   14.5784   21.1253 C   0  0  0  0  0  0  0  0  0  0  0  0
    7.1428   10.8847   24.3976 C   0  0  0  0  0  0  0  0  0  0  0  0
    9.6130   10.5223   24.7427 C   0  0  0  0  0  0  0  0  0  0  0  0
    8.7204   10.9965   22.4282 C   0  0  0  0  0  0  0  0  0  0  0  0
    8.7452   12.8238   24.1696 C   0  0  0  0  0  0  0  0  0  0  0  0
    8.8790   12.5153   22.6618 C   0  0  0  0  0  0  0  0  0  0  0  0
   10.1289   13.0065   22.1283 N   0  0  0  0  0  0  0  0  0  0  0  0
    9.4227   15.1513   21.5592 O   0  0  0  0  0  0  0  0  0  0  0  0
   13.8651   16.8968   22.1670 H   0  0  0  0  0  0  0  0  0  0  0  0
   12.8357   17.6084   23.4074 H   0  0  0  0  0  0  0  0  0  0  0  0
   10.8214   17.1638   22.0849 H   0  0  0  0  0  0  0  0  0  0  0  0
   11.9796   18.0551   21.1055 H   0  0  0  0  0  0  0  0  0  0  0  0
   13.5293   15.2861   23.9880 H   0  0  0  0  0  0  0  0  0  0  0  0
   11.7822   15.4393   23.8674 H   0  0  0  0  0  0  0  0  0  0  0  0
   10.9045   16.1686   19.8618 H   0  0  0  0  0  0  0  0  0  0  0  0
   12.6602   16.0611   19.9182 H   0  0  0  0  0  0  0  0  0  0  0  0
   13.6945   14.2658   21.7954 H   0  0  0  0  0  0  0  0  0  0  0  0
   12.4956   13.3872   22.7401 H   0  0  0  0  0  0  0  0  0  0  0  0
    8.0816   10.3050   26.2697 H   0  0  0  0  0  0  0  0  0  0  0  0
    8.0644    9.0295   25.0543 H   0  0  0  0  0  0  0  0  0  0  0  0
    7.1661    9.5020   22.7198 H   0  0  0  0  0  0  0  0  0  0  0  0
    6.5501   11.1031   22.3174 H   0  0  0  0  0  0  0  0  0  0  0  0
    6.5752   12.9601   24.0876 H   0  0  0  0  0  0  0  0  0  0  0  0
    7.2085   12.6266   25.6973 H   0  0  0  0  0  0  0  0  0  0  0  0
   10.7827   10.4755   22.9118 H   0  0  0  0  0  0  0  0  0  0  0  0
    9.6502    9.1395   23.0692 H   0  0  0  0  0  0  0  0  0  0  0  0
    9.6929   12.2594   26.0427 H   0  0  0  0  0  0  0  0  0  0  0  0
   10.8082   12.3364   24.6858 H   0  0  0  0  0  0  0  0  0  0  0  0
   11.8601   13.8501   20.3259 H   0  0  0  0  0  0  0  0  0  0  0  0
    6.1404   10.5868   24.7244 H   0  0  0  0  0  0  0  0  0  0  0  0
   10.3636    9.9663   25.3153 H   0  0  0  0  0  0  0  0  0  0  0  0
    8.8275   10.7624   21.3625 H   0  0  0  0  0  0  0  0  0  0  0  0
    8.8702   13.8979   24.3507 H   0  0  0  0  0  0  0  0  0  0  0  0
    8.0981   13.0525   22.1095 H   0  0  0  0  0  0  0  0  0  0  0  0
   10.9307   12.3831   22.1234 H   0  0  0  0  0  0  0  0  0  0  0  0
  1 12  1  0  0  0  0
  1 18  1  0  0  0  0
  1 19  2  0  0  0  0
  2  3  1  0  0  0  0
  2  4  1  0  0  0  0
  3  5  1  0  0  0  0
  4  6  1  0  0  0  0
  5 12  1  0  0  0  0
  6 12  1  0  0  0  0
  7 13  1  0  0  0  0
  7 14  1  0  0  0  0
  8 13  1  0  0  0  0
  8 15  1  0  0  0  0
  9 13  1  0  0  0  0
  9 16  1  0  0  0  0
 10 14  1  0  0  0  0
 10 15  1  0  0  0  0
 11 14  1  0  0  0  0
 11 16  1  0  0  0  0
 15 17  1  0  0  0  0
 16 17  1  0  0  0  0
 17 18  1  0  0  0  0
  2 20  1  0  0  0  0
  2 21  1  0  0  0  0
  3 22  1  0  0  0  0
  3 23  1  0  0  0  0
  4 24  1  0  0  0  0
  4 25  1  0  0  0  0
  5 26  1  0  0  0  0
  5 27  1  0  0  0  0
  6 28  1  0  0  0  0
  6 29  1  0  0  0  0
  7 30  1  0  0  0  0
  7 31  1  0  0  0  0
  8 32  1  0  0  0  0
  8 33  1  0  0  0  0
  9 34  1  0  0  0  0
  9 35  1  0  0  0  0
 10 36  1  0  0  0  0
 10 37  1  0  0  0  0
 11 38  1  0  0  0  0
 11 39  1  0  0  0  0
 12 40  1  0  0  0  0
 13 41  1  0  0  0  0
 14 42  1  0  0  0  0
 15 43  1  0  0  0  0
 16 44  1  0  0  0  0
 17 45  1  0  0  0  0
 18 46  1  0  0  0  0
M  END
> <id>
EN300-26868709

> <smiles>
O=C(NC1C2CC3CC(C2)CC1C3)C4CCCCC4

> <IUPAC Name>
N-(adamantan-2-yl)cyclohexanecarboxamide

> <CAS>
325820-49-3

> <URL>
https://www.enaminestore.com/catalog/EN300-26868709

> <ROCS_ShapeQuery>
x0446_0A_x1080_0A_x0929_0A_x0812_0A_x0719_0A_x1140_0A_x0528_0A_x0310_0A

> <ROCS_TanimotoCombo>
0.420 

> <ROCS_ShapeTanimoto>
0.230 

> <ROCS_ColorTanimoto>
0.189 

> <ROCS_RefTversky>
0.210 

> <ROCS_RefColorTversky>
0.208 

> <ROCS_RefTverskyCombo>
0.417 

> <ROCS_FitTversky>
1.742 

> <ROCS_FitColorTversky>
0.685 

> <ROCS_FitTverskyCombo>
2.427 

> <ROCS_ColorScore>
-7.431

> <ROCS_Overlap>
2474.166

> <ROCS_Rank>
210                 

$$$$
untitled-dbase-335933_1
  -OEChem-02082415563D

 39 41  0     0  0  0  0  0  0999 V2000
    7.4539   15.1402   24.0159 C   0  0  0  0  0  0  0  0  0  0  0  0
   10.2842   15.5120   22.5298 C   0  0  0  0  0  0  0  0  0  0  0  0
    8.8794   10.5620   22.0418 C   0  0  0  0  0  0  0  0  0  0  0  0
    7.7060   10.2465   24.2357 C   0  0  0  0  0  0  0  0  0  0  0  0
   10.2058   10.4342   24.1666 C   0  0  0  0  0  0  0  0  0  0  0  0
    7.5072   12.4245   23.0092 C   0  0  0  0  0  0  0  0  0  0  0  0
   10.0096   12.6122   22.9399 C   0  0  0  0  0  0  0  0  0  0  0  0
    8.8350   12.2963   25.1374 C   0  0  0  0  0  0  0  0  0  0  0  0
    7.6120   10.8984   22.8457 C   0  0  0  0  0  0  0  0  0  0  0  0
   10.1247   11.0869   22.7761 C   0  0  0  0  0  0  0  0  0  0  0  0
    8.9452   10.7697   24.9817 C   0  0  0  0  0  0  0  0  0  0  0  0
    8.7459   12.9724   23.7522 C   0  0  0  0  0  0  0  0  0  0  0  0
    9.9161   15.1322   23.9314 C   0  0  0  0  0  0  0  0  0  0  0  0
    7.4722   16.5471   23.4824 C   0  0  0  0  0  0  0  0  0  0  0  0
    8.6447   14.4075   23.9014 N   0  0  0  0  0  0  0  0  0  0  0  0
    6.4139   14.7057   24.5190 O   0  0  0  0  0  0  0  0  0  0  0  0
    9.6348   15.2819   21.5207 O   0  0  0  0  0  0  0  0  0  0  0  0
   11.4735   16.1681   22.5251 O   0  0  0  0  0  0  0  0  0  0  0  0
    8.6778   16.8876   22.9606 F   0  0  0  0  0  0  0  0  0  0  0  0
    6.5386   16.7474   22.5179 F   0  0  0  0  0  0  0  0  0  0  0  0
    7.2103   17.4553   24.4598 F   0  0  0  0  0  0  0  0  0  0  0  0
    8.9570    9.4769   21.9020 H   0  0  0  0  0  0  0  0  0  0  0  0
    8.8183   11.0080   21.0415 H   0  0  0  0  0  0  0  0  0  0  0  0
    6.8000   10.4656   24.8142 H   0  0  0  0  0  0  0  0  0  0  0  0
    7.7632    9.1558   24.1345 H   0  0  0  0  0  0  0  0  0  0  0  0
   10.3065    9.3466   24.0641 H   0  0  0  0  0  0  0  0  0  0  0  0
   11.0993   10.7881   24.6950 H   0  0  0  0  0  0  0  0  0  0  0  0
    7.4178   12.8922   22.0199 H   0  0  0  0  0  0  0  0  0  0  0  0
    6.5917   12.6711   23.5628 H   0  0  0  0  0  0  0  0  0  0  0  0
   10.9074   12.9949   23.4428 H   0  0  0  0  0  0  0  0  0  0  0  0
    9.9732   13.0847   21.9496 H   0  0  0  0  0  0  0  0  0  0  0  0
    7.9487   12.5399   25.7376 H   0  0  0  0  0  0  0  0  0  0  0  0
    9.7070   12.6706   25.6895 H   0  0  0  0  0  0  0  0  0  0  0  0
    6.7289   10.5207   22.3185 H   0  0  0  0  0  0  0  0  0  0  0  0
   11.0243   10.8435   22.1999 H   0  0  0  0  0  0  0  0  0  0  0  0
    9.0080   10.3003   25.9698 H   0  0  0  0  0  0  0  0  0  0  0  0
   10.6870   14.4797   24.3498 H   0  0  0  0  0  0  0  0  0  0  0  0
    9.8009   16.0313   24.5422 H   0  0  0  0  0  0  0  0  0  0  0  0
   11.7423   16.4312   21.6191 H   0  0  0  0  0  0  0  0  0  0  0  0
  1 14  1  0  0  0  0
  1 15  1  0  0  0  0
  1 16  2  0  0  0  0
  2 13  1  0  0  0  0
  2 17  2  0  0  0  0
  2 18  1  0  0  0  0
  3  9  1  0  0  0  0
  3 10  1  0  0  0  0
  4  9  1  0  0  0  0
  4 11  1  0  0  0  0
  5 10  1  0  0  0  0
  5 11  1  0  0  0  0
  6  9  1  0  0  0  0
  6 12  1  0  0  0  0
  7 10  1  0  0  0  0
  7 12  1  0  0  0  0
  8 11  1  0  0  0  0
  8 12  1  0  0  0  0
 12 15  1  0  0  0  0
 13 15  1  0  0  0  0
 14 19  1  0  0  0  0
 14 20  1  0  0  0  0
 14 21  1  0  0  0  0
  3 22  1  0  0  0  0
  3 23  1  0  0  0  0
  4 24  1  0  0  0  0
  4 25  1  0  0  0  0
  5 26  1  0  0  0  0
  5 27  1  0  0  0  0
  6 28  1  0  0  0  0
  6 29  1  0  0  0  0
  7 30  1  0  0  0  0
  7 31  1  0  0  0  0
  8 32  1  0  0  0  0
  8 33  1  0  0  0  0
  9 34  1  0  0  0  0
 10 35  1  0  0  0  0
 11 36  1  0  0  0  0
 13 37  1  0  0  0  0
 13 38  1  0  0  0  0
 18 39  1  0  0  0  0
M  END
> <id>
EN300-37101133

> <smiles>
OC(=O)CN(C(=O)C(F)(F)F)C1(CC2CC3CC(C2)C1)C3

> <IUPAC Name>
2-[N-(adamantan-1-yl)-2,2,2-trifluoroacetamido]acetic acid

> <CAS>
2757956-62-8

> <URL>
https://www.enaminestore.com/catalog/EN300-37101133

> <ROCS_ShapeQuery>
x0446_0A_x1080_0A_x0929_0A_x0812_0A_x0719_0A_x1140_0A_x0528_0A_x0310_0A

> <ROCS_TanimotoCombo>
0.420 

> <ROCS_ShapeTanimoto>
0.224 

> <ROCS_ColorTanimoto>
0.195 

> <ROCS_RefTversky>
0.207 

> <ROCS_RefColorTversky>
0.217 

> <ROCS_RefTverskyCombo>
0.424 

> <ROCS_FitTversky>
1.581 

> <ROCS_FitColorTversky>
0.659 

> <ROCS_FitTverskyCombo>
2.240 

> <ROCS_ColorScore>
-7.788

> <ROCS_Overlap>
2447.196

> <ROCS_Rank>
211                 

$$$$
untitled-dbase-437532_2
  -OEChem-02082415563D

 34 36  0     0  0  0  0  0  0999 V2000
    7.2170   10.6344   24.6789 C   0  0  0  0  0  0  0  0  0  0  0  0
    9.6233   11.1385   25.1718 C   0  0  0  0  0  0  0  0  0  0  0  0
    9.0253    9.6120   23.2745 C   0  0  0  0  0  0  0  0  0  0  0  0
    8.1409   12.9185   24.2109 C   0  0  0  0  0  0  0  0  0  0  0  0
    7.5414   11.3887   22.3092 C   0  0  0  0  0  0  0  0  0  0  0  0
    9.9532   11.8937   22.8031 C   0  0  0  0  0  0  0  0  0  0  0  0
    8.1974   11.7139   25.1666 C   0  0  0  0  0  0  0  0  0  0  0  0
    7.5963   10.1799   23.2598 C   0  0  0  0  0  0  0  0  0  0  0  0
   10.0148   10.6865   23.7552 C   0  0  0  0  0  0  0  0  0  0  0  0
    8.5250   12.4880   22.7754 C   0  0  0  0  0  0  0  0  0  0  0  0
    8.4675   13.6888   21.8274 C   0  0  0  0  0  0  0  0  0  0  0  0
   11.0019   13.7784   21.0400 N   0  0  0  0  0  0  0  0  0  0  0  0
    9.6637   15.9567   21.3245 O   0  0  0  0  0  0  0  0  0  0  0  0
   10.3465   14.6430   23.3723 O   0  0  0  0  0  0  0  0  0  0  0  0
    9.9070   14.6832   21.9856 S   0  0  0  0  0  0  0  0  0  0  0  0
    7.2332    9.7772   25.3633 H   0  0  0  0  0  0  0  0  0  0  0  0
    6.1929   11.0274   24.6854 H   0  0  0  0  0  0  0  0  0  0  0  0
   10.3312   11.8946   25.5331 H   0  0  0  0  0  0  0  0  0  0  0  0
    9.6822   10.2904   25.8651 H   0  0  0  0  0  0  0  0  0  0  0  0
    9.0734    8.7368   23.9340 H   0  0  0  0  0  0  0  0  0  0  0  0
    9.3030    9.2694   22.2701 H   0  0  0  0  0  0  0  0  0  0  0  0
    7.1312   13.3492   24.2206 H   0  0  0  0  0  0  0  0  0  0  0  0
    8.8211   13.7031   24.5666 H   0  0  0  0  0  0  0  0  0  0  0  0
    7.7879   11.0666   21.2893 H   0  0  0  0  0  0  0  0  0  0  0  0
    6.5181   11.7844   22.2756 H   0  0  0  0  0  0  0  0  0  0  0  0
   10.6748   12.6551   23.1265 H   0  0  0  0  0  0  0  0  0  0  0  0
   10.2544   11.5829   21.7944 H   0  0  0  0  0  0  0  0  0  0  0  0
    7.9233   12.0322   26.1787 H   0  0  0  0  0  0  0  0  0  0  0  0
    6.8959    9.4095   22.9184 H   0  0  0  0  0  0  0  0  0  0  0  0
   11.0305   10.2757   23.7656 H   0  0  0  0  0  0  0  0  0  0  0  0
    7.6058   14.3083   22.0623 H   0  0  0  0  0  0  0  0  0  0  0  0
    8.4080   13.3479   20.7972 H   0  0  0  0  0  0  0  0  0  0  0  0
   11.2881   14.1714   20.1348 H   0  0  0  0  0  0  0  0  0  0  0  0
   11.7529   13.2766   21.5295 H   0  0  0  0  0  0  0  0  0  0  0  0
  1  7  1  0  0  0  0
  1  8  1  0  0  0  0
  2  7  1  0  0  0  0
  2  9  1  0  0  0  0
  3  8  1  0  0  0  0
  3  9  1  0  0  0  0
  4  7  1  0  0  0  0
  4 10  1  0  0  0  0
  5  8  1  0  0  0  0
  5 10  1  0  0  0  0
  6  9  1  0  0  0  0
  6 10  1  0  0  0  0
 10 11  1  0  0  0  0
 11 15  1  0  0  0  0
 12 15  1  0  0  0  0
 13 15  2  0  0  0  0
 14 15  2  0  0  0  0
  1 16  1  0  0  0  0
  1 17  1  0  0  0  0
  2 18  1  0  0  0  0
  2 19  1  0  0  0  0
  3 20  1  0  0  0  0
  3 21  1  0  0  0  0
  4 22  1  0  0  0  0
  4 23  1  0  0  0  0
  5 24  1  0  0  0  0
  5 25  1  0  0  0  0
  6 26  1  0  0  0  0
  6 27  1  0  0  0  0
  7 28  1  0  0  0  0
  8 29  1  0  0  0  0
  9 30  1  0  0  0  0
 11 31  1  0  0  0  0
 11 32  1  0  0  0  0
 12 33  1  0  0  0  0
 12 34  1  0  0  0  0
M  END
> <id>
EN300-281490

> <smiles>
NS(=O)(=O)CC1(CC2CC3CC(C2)C1)C3

> <IUPAC Name>
(adamantan-1-yl)methanesulfonamide

> <CAS>
1283721-16-3

> <Purity>
95

> <URL>
https://www.enaminestore.com/catalog/EN300-281490

> <ROCS_ShapeQuery>
x0446_0A_x1080_0A_x0929_0A_x0812_0A_x0719_0A_x1140_0A_x0528_0A_x0310_0A

> <ROCS_TanimotoCombo>
0.419 

> <ROCS_ShapeTanimoto>
0.206 

> <ROCS_ColorTanimoto>
0.214 

> <ROCS_RefTversky>
0.188 

> <ROCS_RefColorTversky>
0.230 

> <ROCS_RefTverskyCombo>
0.418 

> <ROCS_FitTversky>
1.799 

> <ROCS_FitColorTversky>
0.757 

> <ROCS_FitTverskyCombo>
2.556 

> <ROCS_ColorScore>
-8.221

> <ROCS_Overlap>
2222.249

> <ROCS_Rank>
212                 

$$$$
untitled-dbase-271677_2
  -OEChem-02082415563D

 29 31  0     0  0  0  0  0  0999 V2000
   12.9276   15.3030   22.3856 C   0  0  0  0  0  0  0  0  0  0  0  0
   12.3554   15.3314   21.1139 C   0  0  0  0  0  0  0  0  0  0  0  0
   12.2077   14.7867   23.4630 C   0  0  0  0  0  0  0  0  0  0  0  0
   10.3431   14.3274   21.9970 C   0  0  0  0  0  0  0  0  0  0  0  0
    9.5187   10.4459   23.3052 C   0  0  0  0  0  0  0  0  0  0  0  0
    8.2262   12.3961   24.5615 C   0  0  0  0  0  0  0  0  0  0  0  0
   11.0631   14.8436   20.9196 C   0  0  0  0  0  0  0  0  0  0  0  0
   10.9154   14.2989   23.2687 C   0  0  0  0  0  0  0  0  0  0  0  0
    7.6712   11.1562   24.2976 C   0  0  0  0  0  0  0  0  0  0  0  0
    9.5331   12.6075   24.1351 C   0  0  0  0  0  0  0  0  0  0  0  0
    7.2052   13.0973   25.2295 C   0  0  0  0  0  0  0  0  0  0  0  0
   10.4660   14.8729   19.5936 C   0  0  0  0  0  0  0  0  0  0  0  0
    5.4273   10.1341   24.7721 C   0  0  0  0  0  0  0  0  0  0  0  0
    8.2587   10.1249   23.6703 N   0  0  0  0  0  0  0  0  0  0  0  0
   10.1870   11.6086   23.4950 N   0  0  0  0  0  0  0  0  0  0  0  0
    6.0928   12.3700   25.3805 N   0  0  0  0  0  0  0  0  0  0  0  0
    6.4061   11.1948   24.8040 N   0  0  0  0  0  0  0  0  0  0  0  0
    9.3286   14.4564   19.3577 O   0  0  0  0  0  0  0  0  0  0  0  0
   10.2030   13.7881   24.3342 O   0  0  0  0  0  0  0  0  0  0  0  0
    7.3485   14.8653   25.8553 Br  0  0  0  0  0  0  0  0  0  0  0  0
   13.9338   15.6828   22.5368 H   0  0  0  0  0  0  0  0  0  0  0  0
   12.9254   15.7349   20.2811 H   0  0  0  0  0  0  0  0  0  0  0  0
   12.6589   14.7672   24.4513 H   0  0  0  0  0  0  0  0  0  0  0  0
    9.3353   13.9451   21.8508 H   0  0  0  0  0  0  0  0  0  0  0  0
   10.0717    9.6672   22.7908 H   0  0  0  0  0  0  0  0  0  0  0  0
   11.0782   15.2933   18.7663 H   0  0  0  0  0  0  0  0  0  0  0  0
    5.5526    9.5322   25.6760 H   0  0  0  0  0  0  0  0  0  0  0  0
    4.4233   10.5661   24.7365 H   0  0  0  0  0  0  0  0  0  0  0  0
    5.5859    9.5227   23.8793 H   0  0  0  0  0  0  0  0  0  0  0  0
  1  2  1  0  0  0  0
  1  3  2  0  0  0  0
  2  7  2  0  0  0  0
  3  8  1  0  0  0  0
  4  7  1  0  0  0  0
  4  8  2  0  0  0  0
  5 14  2  0  0  0  0
  5 15  1  0  0  0  0
  6  9  2  0  0  0  0
  6 10  1  0  0  0  0
  6 11  1  0  0  0  0
  7 12  1  0  0  0  0
  8 19  1  0  0  0  0
  9 14  1  0  0  0  0
  9 17  1  0  0  0  0
 10 15  2  0  0  0  0
 10 19  1  0  0  0  0
 11 16  2  0  0  0  0
 11 20  1  0  0  0  0
 12 18  2  0  0  0  0
 13 17  1  0  0  0  0
 16 17  1  0  0  0  0
  1 21  1  0  0  0  0
  2 22  1  0  0  0  0
  3 23  1  0  0  0  0
  4 24  1  0  0  0  0
  5 25  1  0  0  0  0
 12 26  1  0  0  0  0
 13 27  1  0  0  0  0
 13 28  1  0  0  0  0
 13 29  1  0  0  0  0
M  END
> <id>
EN300-1180195

> <smiles>
CN1N=C(Br)C=2C(OC=3C=CC=C(C=O)C3)=NC=NC12

> <IUPAC Name>
3-({3-bromo-1-methyl-1H-pyrazolo[3,4-d]pyrimidin-4-yl}oxy)benzaldehyde

> <CAS>
1375254-37-7

> <URL>
https://www.enaminestore.com/catalog/EN300-1180195

> <ROCS_ShapeQuery>
x0446_0A_x1080_0A_x0929_0A_x0812_0A_x0719_0A_x1140_0A_x0528_0A_x0310_0A

> <ROCS_TanimotoCombo>
0.419 

> <ROCS_ShapeTanimoto>
0.235 

> <ROCS_ColorTanimoto>
0.184 

> <ROCS_RefTversky>
0.215 

> <ROCS_RefColorTversky>
0.201 

> <ROCS_RefTverskyCombo>
0.416 

> <ROCS_FitTversky>
1.687 

> <ROCS_FitColorTversky>
0.689 

> <ROCS_FitTverskyCombo>
2.376 

> <ROCS_ColorScore>
-7.192

> <ROCS_Overlap>
2533.291

> <ROCS_Rank>
213                 

$$$$
untitled-dbase-50759_1
  -OEChem-02082415563D

 43 46  0     0  0  0  0  0  0999 V2000
   14.1803   14.6287   21.1186 C   0  0  0  0  0  0  0  0  0  0  0  0
   13.8751   15.7729   20.3816 C   0  0  0  0  0  0  0  0  0  0  0  0
   13.1960   14.0150   21.8933 C   0  0  0  0  0  0  0  0  0  0  0  0
   12.5856   16.3035   20.4193 C   0  0  0  0  0  0  0  0  0  0  0  0
   11.9065   14.5455   21.9311 C   0  0  0  0  0  0  0  0  0  0  0  0
   11.6013   15.6898   21.1941 C   0  0  0  0  0  0  0  0  0  0  0  0
   10.8807   13.8687   22.7657 C   0  0  0  0  0  0  0  0  0  0  0  0
   10.2638   16.2677   21.2126 C   0  0  0  0  0  0  0  0  0  0  0  0
    7.1169   10.1840   23.1507 C   0  0  0  0  0  0  0  0  0  0  0  0
    7.5595   11.4914   25.2446 C   0  0  0  0  0  0  0  0  0  0  0  0
    8.8742    9.4105   24.7643 C   0  0  0  0  0  0  0  0  0  0  0  0
    8.2265   12.4286   23.0165 C   0  0  0  0  0  0  0  0  0  0  0  0
    9.5424   10.3456   22.5358 C   0  0  0  0  0  0  0  0  0  0  0  0
    9.9861   11.6545   24.6331 C   0  0  0  0  0  0  0  0  0  0  0  0
    7.1689   11.5950   23.7604 C   0  0  0  0  0  0  0  0  0  0  0  0
    8.4903    9.5034   23.2777 C   0  0  0  0  0  0  0  0  0  0  0  0
    8.9353   10.8176   25.3828 C   0  0  0  0  0  0  0  0  0  0  0  0
    9.6168   11.7663   23.1380 C   0  0  0  0  0  0  0  0  0  0  0  0
   10.6074   12.5515   22.4352 N   0  0  0  0  0  0  0  0  0  0  0  0
   10.3289   14.4972   23.6652 O   0  0  0  0  0  0  0  0  0  0  0  0
    9.2163   15.6366   21.3753 O   0  0  0  0  0  0  0  0  0  0  0  0
   10.2796   17.6154   21.0286 O   0  0  0  0  0  0  0  0  0  0  0  0
   15.1842   14.2155   21.0891 H   0  0  0  0  0  0  0  0  0  0  0  0
   14.6415   16.2509   19.7785 H   0  0  0  0  0  0  0  0  0  0  0  0
   13.4460   13.1238   22.4634 H   0  0  0  0  0  0  0  0  0  0  0  0
   12.3599   17.1956   19.8407 H   0  0  0  0  0  0  0  0  0  0  0  0
    6.3532    9.5838   23.6603 H   0  0  0  0  0  0  0  0  0  0  0  0
    6.8236   10.2421   22.0953 H   0  0  0  0  0  0  0  0  0  0  0  0
    7.5845   12.4909   25.6961 H   0  0  0  0  0  0  0  0  0  0  0  0
    6.8037   10.9139   25.7911 H   0  0  0  0  0  0  0  0  0  0  0  0
    8.1412    8.7969   25.3025 H   0  0  0  0  0  0  0  0  0  0  0  0
    9.8454    8.9119   24.8699 H   0  0  0  0  0  0  0  0  0  0  0  0
    7.9399   12.5235   21.9610 H   0  0  0  0  0  0  0  0  0  0  0  0
    8.2513   13.4441   23.4331 H   0  0  0  0  0  0  0  0  0  0  0  0
   10.5205    9.8516   22.6036 H   0  0  0  0  0  0  0  0  0  0  0  0
    9.2845   10.3968   21.4699 H   0  0  0  0  0  0  0  0  0  0  0  0
   10.0494   12.6528   25.0852 H   0  0  0  0  0  0  0  0  0  0  0  0
   10.9736   11.1887   24.7485 H   0  0  0  0  0  0  0  0  0  0  0  0
    6.1877   12.0738   23.6684 H   0  0  0  0  0  0  0  0  0  0  0  0
    8.4471    8.4985   22.8431 H   0  0  0  0  0  0  0  0  0  0  0  0
    9.2069   10.7446   26.4418 H   0  0  0  0  0  0  0  0  0  0  0  0
   11.0587   12.1166   21.6377 H   0  0  0  0  0  0  0  0  0  0  0  0
    9.3835   18.0144   21.0404 H   0  0  0  0  0  0  0  0  0  0  0  0
  1  2  1  0  0  0  0
  1  3  2  0  0  0  0
  2  4  2  0  0  0  0
  3  5  1  0  0  0  0
  4  6  1  0  0  0  0
  5  6  2  0  0  0  0
  5  7  1  0  0  0  0
  6  8  1  0  0  0  0
  7 19  1  0  0  0  0
  7 20  2  0  0  0  0
  8 21  2  0  0  0  0
  8 22  1  0  0  0  0
  9 15  1  0  0  0  0
  9 16  1  0  0  0  0
 10 15  1  0  0  0  0
 10 17  1  0  0  0  0
 11 16  1  0  0  0  0
 11 17  1  0  0  0  0
 12 15  1  0  0  0  0
 12 18  1  0  0  0  0
 13 16  1  0  0  0  0
 13 18  1  0  0  0  0
 14 17  1  0  0  0  0
 14 18  1  0  0  0  0
 18 19  1  0  0  0  0
  1 23  1  0  0  0  0
  2 24  1  0  0  0  0
  3 25  1  0  0  0  0
  4 26  1  0  0  0  0
  9 27  1  0  0  0  0
  9 28  1  0  0  0  0
 10 29  1  0  0  0  0
 10 30  1  0  0  0  0
 11 31  1  0  0  0  0
 11 32  1  0  0  0  0
 12 33  1  0  0  0  0
 12 34  1  0  0  0  0
 13 35  1  0  0  0  0
 13 36  1  0  0  0  0
 14 37  1  0  0  0  0
 14 38  1  0  0  0  0
 15 39  1  0  0  0  0
 16 40  1  0  0  0  0
 17 41  1  0  0  0  0
 19 42  1  0  0  0  0
 22 43  1  0  0  0  0
M  END
> <id>
EN300-04837

> <smiles>
OC(=O)C=1C=CC=CC1C(=O)NC2(CC3CC4CC(C3)C2)C4

> <MDLNUMBER>
MFCD01791147

> <IUPAC Name>
2-[(adamantan-1-yl)carbamoyl]benzoic acid

> <CAS>
26878-89-7

> <Purity>
95

> <URL>
https://www.enaminestore.com/catalog/EN300-04837

> <ROCS_ShapeQuery>
x0446_0A_x1080_0A_x0929_0A_x0812_0A_x0719_0A_x1140_0A_x0528_0A_x0310_0A

> <ROCS_TanimotoCombo>
0.419 

> <ROCS_ShapeTanimoto>
0.230 

> <ROCS_ColorTanimoto>
0.190 

> <ROCS_RefTversky>
0.212 

> <ROCS_RefColorTversky>
0.220 

> <ROCS_RefTverskyCombo>
0.432 

> <ROCS_FitTversky>
1.581 

> <ROCS_FitColorTversky>
0.577 

> <ROCS_FitTverskyCombo>
2.158 

> <ROCS_ColorScore>
-7.916

> <ROCS_Overlap>
2502.162

> <ROCS_Rank>
214                 

$$$$
untitled-dbase-269871_2
  -OEChem-02082415563D

 53 57  0     1  0  0  0  0  0999 V2000
   13.8115   13.6498   21.6634 C   0  0  0  0  0  0  0  0  0  0  0  0
   14.6994   14.6810   21.3408 C   0  0  0  0  0  0  0  0  0  0  0  0
    8.1224   10.4932   24.2347 C   0  0  0  0  0  0  0  0  0  0  0  0
   12.0031   15.1944   21.3586 C   0  0  0  0  0  0  0  0  0  0  0  0
   12.4559   13.9277   21.6703 C   0  0  0  0  0  0  0  0  0  0  0  0
    9.4422   10.7975   23.8628 C   0  0  0  0  0  0  0  0  0  0  0  0
    9.8697   12.1476   23.7852 C   0  0  0  0  0  0  0  0  0  0  0  0
    7.2648   11.5384   24.5055 C   0  0  0  0  0  0  0  0  0  0  0  0
    7.6741   12.8471   24.4277 C   0  0  0  0  0  0  0  0  0  0  0  0
   14.2234   15.9657   21.0291 C   0  0  0  0  0  0  0  0  0  0  0  0
   12.8545   16.2350   21.0353 C   0  0  0  0  0  0  0  0  0  0  0  0
    8.9638   13.1842   24.0732 C   0  0  0  0  0  0  0  0  0  0  0  0
   10.5515   15.2106   21.4402 C   0  0  0  0  0  0  0  0  0  0  0  0
   10.4129    9.6710   23.6188 C   0  0  0  0  0  0  0  0  0  0  0  0
   11.6956   10.1258   22.9200 C   0  0  0  0  0  0  0  0  0  0  0  0
    5.5936   12.8123   25.0193 C   0  0  0  0  0  0  0  0  0  0  0  0
   11.2909   12.4921   23.3658 C   0  0  2  0  0  0  0  0  0  0  0  0
   11.3051   13.0548   21.9352 C   0  0  1  0  0  0  0  0  0  0  0  0
   12.7668   11.2023   24.8196 C   0  0  0  0  0  0  0  0  0  0  0  0
   16.4987   16.5922   20.7349 C   0  0  0  0  0  0  0  0  0  0  0  0
   12.2297   18.3923   21.8171 C   0  0  0  0  0  0  0  0  0  0  0  0
    9.7952   15.0379   25.3065 C   0  0  0  0  0  0  0  0  0  0  0  0
   12.2523   11.3718   23.4603 N   0  0  1  0  0  0  0  0  0  0  0  0
    9.8156   16.1555   21.2368 O   0  0  0  0  0  0  0  0  0  0  0  0
    5.9601   11.4250   24.8754 O   0  0  0  0  0  0  0  0  0  0  0  0
    6.6773   13.7207   24.7363 O   0  0  0  0  0  0  0  0  0  0  0  0
   10.1743   13.9422   21.7940 O   0  0  0  0  0  0  0  0  0  0  0  0
   15.1179   16.9469   20.7192 O   0  0  0  0  0  0  0  0  0  0  0  0
   12.3858   17.4724   20.7352 O   0  0  0  0  0  0  0  0  0  0  0  0
    9.3249   14.4933   24.0737 O   0  0  0  0  0  0  0  0  0  0  0  0
   14.1833   12.6587   21.9003 H   0  0  0  0  0  0  0  0  0  0  0  0
   15.7680   14.4808   21.3315 H   0  0  0  0  0  0  0  0  0  0  0  0
    7.7876    9.4642   24.3206 H   0  0  0  0  0  0  0  0  0  0  0  0
   10.6884    9.2000   24.5803 H   0  0  0  0  0  0  0  0  0  0  0  0
    9.9059    8.8907   23.0207 H   0  0  0  0  0  0  0  0  0  0  0  0
   12.4583    9.3114   22.9512 H   0  0  0  0  0  0  0  0  0  0  0  0
   11.4550   10.2547   21.8407 H   0  0  0  0  0  0  0  0  0  0  0  0
    4.7654   13.0296   24.3349 H   0  0  0  0  0  0  0  0  0  0  0  0
    5.2538   12.9808   26.0477 H   0  0  0  0  0  0  0  0  0  0  0  0
   11.6173   13.2997   24.0835 H   0  0  0  0  0  0  0  0  0  0  0  0
   11.2152   12.2481   21.2149 H   0  0  0  0  0  0  0  0  0  0  0  0
   13.1721   12.1591   25.1808 H   0  0  0  0  0  0  0  0  0  0  0  0
   11.9515   10.8762   25.4821 H   0  0  0  0  0  0  0  0  0  0  0  0
   13.5636   10.4440   24.8181 H   0  0  0  0  0  0  0  0  0  0  0  0
   17.1025   17.4637   20.4704 H   0  0  0  0  0  0  0  0  0  0  0  0
   16.6760   15.7829   20.0222 H   0  0  0  0  0  0  0  0  0  0  0  0
   16.7680   16.2564   21.7391 H   0  0  0  0  0  0  0  0  0  0  0  0
   11.8476   19.3426   21.4362 H   0  0  0  0  0  0  0  0  0  0  0  0
   13.1941   18.5457   22.3081 H   0  0  0  0  0  0  0  0  0  0  0  0
   11.5189   17.9783   22.5361 H   0  0  0  0  0  0  0  0  0  0  0  0
   10.0495   16.0914   25.1669 H   0  0  0  0  0  0  0  0  0  0  0  0
   10.6745   14.4809   25.6400 H   0  0  0  0  0  0  0  0  0  0  0  0
    9.0059   14.9523   26.0570 H   0  0  0  0  0  0  0  0  0  0  0  0
  1  2  2  0  0  0  0
  1  5  1  0  0  0  0
  2 10  1  0  0  0  0
  3  6  1  0  0  0  0
  3  8  2  0  0  0  0
  4  5  2  0  0  0  0
  4 11  1  0  0  0  0
  4 13  1  0  0  0  0
  5 18  1  0  0  0  0
  6  7  2  0  0  0  0
  6 14  1  0  0  0  0
  7 12  1  0  0  0  0
  7 17  1  0  0  0  0
  8  9  1  0  0  0  0
  8 25  1  0  0  0  0
  9 12  2  0  0  0  0
  9 26  1  0  0  0  0
 10 11  2  0  0  0  0
 10 28  1  0  0  0  0
 11 29  1  0  0  0  0
 12 30  1  0  0  0  0
 13 24  2  0  0  0  0
 13 27  1  0  0  0  0
 14 15  1  0  0  0  0
 15 23  1  0  0  0  0
 16 25  1  0  0  0  0
 16 26  1  0  0  0  0
 17 18  1  1  0  0  0
 17 23  1  6  0  0  0
 18 27  1  0  0  0  0
 19 23  1  0  0  0  0
 20 28  1  0  0  0  0
 21 29  1  0  0  0  0
 22 30  1  0  0  0  0
  1 31  1  0  0  0  0
  2 32  1  0  0  0  0
  3 33  1  0  0  0  0
 14 34  1  0  0  0  0
 14 35  1  0  0  0  0
 15 36  1  0  0  0  0
 15 37  1  0  0  0  0
 16 38  1  0  0  0  0
 16 39  1  0  0  0  0
 17 40  1  0  0  0  0
 18 41  1  0  0  0  0
 19 42  1  0  0  0  0
 19 43  1  0  0  0  0
 19 44  1  0  0  0  0
 20 45  1  0  0  0  0
 20 46  1  0  0  0  0
 20 47  1  0  0  0  0
 21 48  1  0  0  0  0
 21 49  1  0  0  0  0
 21 50  1  0  0  0  0
 22 51  1  0  0  0  0
 22 52  1  0  0  0  0
 22 53  1  0  0  0  0
M  END
> <id>
EN300-24402818

> <smiles>
COC=1C=CC=2[C@H](OC(=O)C2C1OC)[C@@H]3N(C)CCC=4C=C5OCOC5=C(OC)C34

> <MDLNUMBER>
MFCD00069316

> <IUPAC Name>
(3S)-6,7-dimethoxy-3-[(5R)-4-methoxy-6-methyl-2H,5H,6H,7H,8H-[1,3]dioxolo[4,5-g]isoquinolin-5-yl]-1,3-dihydro-2-benzofuran-1-one

> <CAS>
128-62-1

> <URL>
https://www.enaminestore.com/catalog/EN300-24402818

> <ROCS_ShapeQuery>
x0446_0A_x1080_0A_x0929_0A_x0812_0A_x0719_0A_x1140_0A_x0528_0A_x0310_0A

> <ROCS_TanimotoCombo>
0.419 

> <ROCS_ShapeTanimoto>
0.268 

> <ROCS_ColorTanimoto>
0.151 

> <ROCS_RefTversky>
0.247 

> <ROCS_RefColorTversky>
0.180 

> <ROCS_RefTverskyCombo>
0.427 

> <ROCS_FitTversky>
1.480 

> <ROCS_FitColorTversky>
0.486 

> <ROCS_FitTverskyCombo>
1.966 

> <ROCS_ColorScore>
-6.467

> <ROCS_Overlap>
2918.397

> <ROCS_Rank>
215                 

$$$$
untitled-dbase-299608_4
  -OEChem-02082415563D

 34 35  0     0  0  0  0  0  0999 V2000
    6.9410   11.1850   25.7163 C   0  0  0  0  0  0  0  0  0  0  0  0
   10.5694   13.7024   22.5919 C   0  0  0  0  0  0  0  0  0  0  0  0
    9.4403   11.7409   24.8965 C   0  0  0  0  0  0  0  0  0  0  0  0
    7.9972   12.2082   23.4666 C   0  0  0  0  0  0  0  0  0  0  0  0
    9.2436   10.1300   23.0484 C   0  0  0  0  0  0  0  0  0  0  0  0
    8.0027   11.1379   24.6306 C   0  0  0  0  0  0  0  0  0  0  0  0
    9.4329   11.6186   23.3449 C   0  0  0  0  0  0  0  0  0  0  0  0
   12.2174   15.9829   23.0749 C   0  0  0  0  0  0  0  0  0  0  0  0
   13.0263   15.6663   20.7181 C   0  0  0  0  0  0  0  0  0  0  0  0
   10.6051   16.1742   21.1518 C   0  0  0  0  0  0  0  0  0  0  0  0
   11.8561   15.4738   21.6803 C   0  0  0  0  0  0  0  0  0  0  0  0
   10.4190   12.3257   22.5805 N   0  0  0  0  0  0  0  0  0  0  0  0
    7.0411   10.6673   26.8187 O   0  0  0  0  0  0  0  0  0  0  0  0
    9.8898   14.4855   23.2472 O   0  0  0  0  0  0  0  0  0  0  0  0
    8.2040    9.8368   24.0019 O   0  0  0  0  0  0  0  0  0  0  0  0
    5.8568   11.8813   25.2957 O   0  0  0  0  0  0  0  0  0  0  0  0
   11.5917   14.0688   21.7624 O   0  0  0  0  0  0  0  0  0  0  0  0
    9.4884   12.7487   25.3238 H   0  0  0  0  0  0  0  0  0  0  0  0
   10.1398   11.0882   25.4271 H   0  0  0  0  0  0  0  0  0  0  0  0
    7.3198   12.0013   22.6328 H   0  0  0  0  0  0  0  0  0  0  0  0
    7.9052   13.2608   23.7567 H   0  0  0  0  0  0  0  0  0  0  0  0
    8.8803    9.9353   22.0352 H   0  0  0  0  0  0  0  0  0  0  0  0
   10.1297    9.5296   23.2725 H   0  0  0  0  0  0  0  0  0  0  0  0
   11.3800   15.8466   23.7686 H   0  0  0  0  0  0  0  0  0  0  0  0
   13.0923   15.4638   23.4797 H   0  0  0  0  0  0  0  0  0  0  0  0
   12.4309   17.0578   23.0557 H   0  0  0  0  0  0  0  0  0  0  0  0
   12.7715   15.3024   19.7162 H   0  0  0  0  0  0  0  0  0  0  0  0
   13.8986   15.0882   21.0438 H   0  0  0  0  0  0  0  0  0  0  0  0
   13.3171   16.7189   20.6410 H   0  0  0  0  0  0  0  0  0  0  0  0
   10.3457   15.8092   20.1514 H   0  0  0  0  0  0  0  0  0  0  0  0
    9.7454   16.0160   21.8110 H   0  0  0  0  0  0  0  0  0  0  0  0
   10.7746   17.2525   21.0531 H   0  0  0  0  0  0  0  0  0  0  0  0
   11.0490   11.7805   21.9914 H   0  0  0  0  0  0  0  0  0  0  0  0
    5.1580   11.9215   25.9830 H   0  0  0  0  0  0  0  0  0  0  0  0
  1  6  1  0  0  0  0
  1 13  2  0  0  0  0
  1 16  1  0  0  0  0
  2 12  1  0  0  0  0
  2 14  2  0  0  0  0
  2 17  1  0  0  0  0
  3  6  1  0  0  0  0
  3  7  1  0  0  0  0
  4  6  1  0  0  0  0
  4  7  1  0  0  0  0
  5  7  1  0  0  0  0
  5 15  1  0  0  0  0
  6 15  1  0  0  0  0
  7 12  1  0  0  0  0
  8 11  1  0  0  0  0
  9 11  1  0  0  0  0
 10 11  1  0  0  0  0
 11 17  1  0  0  0  0
  3 18  1  0  0  0  0
  3 19  1  0  0  0  0
  4 20  1  0  0  0  0
  4 21  1  0  0  0  0
  5 22  1  0  0  0  0
  5 23  1  0  0  0  0
  8 24  1  0  0  0  0
  8 25  1  0  0  0  0
  8 26  1  0  0  0  0
  9 27  1  0  0  0  0
  9 28  1  0  0  0  0
  9 29  1  0  0  0  0
 10 30  1  0  0  0  0
 10 31  1  0  0  0  0
 10 32  1  0  0  0  0
 12 33  1  0  0  0  0
 16 34  1  0  0  0  0
M  END
> <id>
EN300-6745768

> <smiles>
CC(C)(C)OC(=O)NC1(CC2(C1)C(=O)O)CO2

> <MDLNUMBER>
MFCD31794700

> <IUPAC Name>
4-{[(tert-butoxy)carbonyl]amino}-2-oxabicyclo[2.1.1]hexane-1-carboxylic acid

> <CAS>
2287287-55-0

> <Purity>
95

> <URL>
https://www.enaminestore.com/catalog/EN300-6745768

> <ROCS_ShapeQuery>
x0446_0A_x1080_0A_x0929_0A_x0812_0A_x0719_0A_x1140_0A_x0528_0A_x0310_0A

> <ROCS_TanimotoCombo>
0.419 

> <ROCS_ShapeTanimoto>
0.219 

> <ROCS_ColorTanimoto>
0.201 

> <ROCS_RefTversky>
0.200 

> <ROCS_RefColorTversky>
0.237 

> <ROCS_RefTverskyCombo>
0.436 

> <ROCS_FitTversky>
1.759 

> <ROCS_FitColorTversky>
0.569 

> <ROCS_FitTverskyCombo>
2.328 

> <ROCS_ColorScore>
-8.519

> <ROCS_Overlap>
2356.832

> <ROCS_Rank>
216                 

$$$$
untitled-dbase-48948_5
  -OEChem-02082415563D

 42 45  0     1  0  0  0  0  0999 V2000
   12.5419   15.9680   21.9059 C   0  0  0  0  0  0  0  0  0  0  0  0
   13.1212   14.7151   22.1060 C   0  0  0  0  0  0  0  0  0  0  0  0
   11.1710   16.1412   22.0966 C   0  0  0  0  0  0  0  0  0  0  0  0
   12.3295   13.6351   22.4968 C   0  0  0  0  0  0  0  0  0  0  0  0
   10.3794   15.0613   22.4874 C   0  0  0  0  0  0  0  0  0  0  0  0
   10.9586   13.8082   22.6876 C   0  0  0  0  0  0  0  0  0  0  0  0
    6.1471   13.4215   24.9085 C   0  0  0  0  0  0  0  0  0  0  0  0
    9.8017    9.7721   23.8409 C   0  0  0  0  0  0  0  0  0  0  0  0
   10.1708   11.5007   22.0614 C   0  0  0  0  0  0  0  0  0  0  0  0
   10.5893   12.0659   24.4678 C   0  0  0  0  0  0  0  0  0  0  0  0
    7.8411   10.7792   22.6483 C   0  0  0  0  0  0  0  0  0  0  0  0
    8.2674   11.3357   25.0598 C   0  0  0  0  0  0  0  0  0  0  0  0
    8.6243   13.0809   23.2858 C   0  0  0  0  0  0  0  0  0  0  0  0
    9.2976   10.3117   22.4965 C   0  0  2  0  0  0  0  0  0  0  0  0
    9.7230   10.8739   24.9053 C   0  0  1  0  0  0  0  0  0  0  0  0
   10.1115   12.6539   23.1052 C   0  0  0  0  0  0  0  0  0  0  0  0
    7.7380   11.8886   23.7198 C   0  0  0  0  0  0  0  0  0  0  0  0
    6.2826   12.3417   23.8726 C   0  0  0  0  0  0  0  0  0  0  0  0
    5.9431   13.2651   26.1030 O   0  0  0  0  0  0  0  0  0  0  0  0
    6.2871   14.6370   24.3196 O   0  0  0  0  0  0  0  0  0  0  0  0
   13.1587   16.8091   21.6029 H   0  0  0  0  0  0  0  0  0  0  0  0
   14.1888   14.5803   21.9586 H   0  0  0  0  0  0  0  0  0  0  0  0
   10.7199   17.1168   21.9420 H   0  0  0  0  0  0  0  0  0  0  0  0
   12.7895   12.6624   22.6503 H   0  0  0  0  0  0  0  0  0  0  0  0
    9.3122   15.2055   22.6335 H   0  0  0  0  0  0  0  0  0  0  0  0
    9.1998    8.9083   24.1491 H   0  0  0  0  0  0  0  0  0  0  0  0
   10.8357    9.4196   23.7404 H   0  0  0  0  0  0  0  0  0  0  0  0
   11.2084   11.1674   21.9250 H   0  0  0  0  0  0  0  0  0  0  0  0
    9.8339   11.8654   21.0817 H   0  0  0  0  0  0  0  0  0  0  0  0
   10.5622   12.8445   25.2422 H   0  0  0  0  0  0  0  0  0  0  0  0
   11.6386   11.7495   24.3916 H   0  0  0  0  0  0  0  0  0  0  0  0
    7.4688   11.1467   21.6833 H   0  0  0  0  0  0  0  0  0  0  0  0
    7.2084    9.9258   22.9245 H   0  0  0  0  0  0  0  0  0  0  0  0
    7.6473   10.4948   25.3962 H   0  0  0  0  0  0  0  0  0  0  0  0
    8.2046   12.1050   25.8402 H   0  0  0  0  0  0  0  0  0  0  0  0
    8.5564   13.8883   24.0283 H   0  0  0  0  0  0  0  0  0  0  0  0
    8.2463   13.5025   22.3437 H   0  0  0  0  0  0  0  0  0  0  0  0
    9.3522    9.5211   21.7395 H   0  0  0  0  0  0  0  0  0  0  0  0
   10.0887   10.4864   25.8628 H   0  0  0  0  0  0  0  0  0  0  0  0
    5.9325   12.7229   22.9125 H   0  0  0  0  0  0  0  0  0  0  0  0
    5.6791   11.4837   24.1715 H   0  0  0  0  0  0  0  0  0  0  0  0
    6.2046   15.3689   24.9676 H   0  0  0  0  0  0  0  0  0  0  0  0
  1  2  1  0  0  0  0
  1  3  2  0  0  0  0
  2  4  2  0  0  0  0
  3  5  1  0  0  0  0
  4  6  1  0  0  0  0
  5  6  2  0  0  0  0
  6 16  1  1  0  0  0
  7 18  1  0  0  0  0
  7 19  2  0  0  0  0
  7 20  1  0  0  0  0
  8 14  1  0  0  0  0
  8 15  1  6  0  0  0
  9 14  1  0  0  0  0
  9 16  1  0  0  0  0
 10 15  1  0  0  0  0
 10 16  1  0  0  0  0
 11 14  1  1  0  0  0
 11 17  1  0  0  0  0
 12 15  1  0  0  0  0
 12 17  1  0  0  0  0
 13 16  1  0  0  0  0
 13 17  1  0  0  0  0
 17 18  1  1  0  0  0
  1 21  1  0  0  0  0
  2 22  1  0  0  0  0
  3 23  1  0  0  0  0
  4 24  1  0  0  0  0
  5 25  1  0  0  0  0
  8 26  1  0  0  0  0
  8 27  1  0  0  0  0
  9 28  1  0  0  0  0
  9 29  1  0  0  0  0
 10 30  1  0  0  0  0
 10 31  1  0  0  0  0
 11 32  1  0  0  0  0
 11 33  1  0  0  0  0
 12 34  1  0  0  0  0
 12 35  1  0  0  0  0
 13 36  1  0  0  0  0
 13 37  1  0  0  0  0
 14 38  1  0  0  0  0
 15 39  1  0  0  0  0
 18 40  1  0  0  0  0
 18 41  1  0  0  0  0
 20 42  1  0  0  0  0
M  END
> <id>
EN300-237764

> <smiles>
OC(=O)C[C@@]1(C[C@@H]2C[C@@H]3C1)C[C@](C2)(C3)C=4C=CC=CC4

> <MDLNUMBER>
MFCD04971920

> <IUPAC Name>
2-[(1r,3s,5R,7S)-3-phenyladamantan-1-yl]acetic acid

> <CAS>
161036-56-2

> <URL>
https://www.enaminestore.com/catalog/EN300-237764

> <ROCS_ShapeQuery>
x0446_0A_x1080_0A_x0929_0A_x0812_0A_x0719_0A_x1140_0A_x0528_0A_x0310_0A

> <ROCS_TanimotoCombo>
0.419 

> <ROCS_ShapeTanimoto>
0.257 

> <ROCS_ColorTanimoto>
0.163 

> <ROCS_RefTversky>
0.230 

> <ROCS_RefColorTversky>
0.186 

> <ROCS_RefTverskyCombo>
0.416 

> <ROCS_FitTversky>
1.828 

> <ROCS_FitColorTversky>
0.565 

> <ROCS_FitTverskyCombo>
2.392 

> <ROCS_ColorScore>
-6.663

> <ROCS_Overlap>
2714.408

> <ROCS_Rank>
217                 

$$$$
untitled-dbase-65223_6
  -OEChem-02082415563D

 42 45  0     1  0  0  0  0  0999 V2000
   12.5335   16.0100   21.9053 C   0  0  0  0  0  0  0  0  0  0  0  0
   13.1209   14.7561   22.0740 C   0  0  0  0  0  0  0  0  0  0  0  0
   11.1646   16.1732   22.1177 C   0  0  0  0  0  0  0  0  0  0  0  0
   12.3393   13.6654   22.4549 C   0  0  0  0  0  0  0  0  0  0  0  0
   10.3830   15.0825   22.4986 C   0  0  0  0  0  0  0  0  0  0  0  0
   10.9703   13.8286   22.6672 C   0  0  0  0  0  0  0  0  0  0  0  0
    6.1907   13.4787   24.9334 C   0  0  0  0  0  0  0  0  0  0  0  0
    9.7748    9.7596   23.8678 C   0  0  0  0  0  0  0  0  0  0  0  0
   10.1177   11.4562   22.0572 C   0  0  0  0  0  0  0  0  0  0  0  0
   10.6171   12.0515   24.4408 C   0  0  0  0  0  0  0  0  0  0  0  0
    7.7974   10.7643   22.6994 C   0  0  0  0  0  0  0  0  0  0  0  0
    8.2907   11.3704   25.0860 C   0  0  0  0  0  0  0  0  0  0  0  0
    8.6254   13.0698   23.2645 C   0  0  0  0  0  0  0  0  0  0  0  0
    9.2442   10.2818   22.5266 C   0  0  2  0  0  0  0  0  0  0  0  0
    9.7378   10.8814   24.9132 C   0  0  1  0  0  0  0  0  0  0  0  0
   10.1082   12.6268   23.0868 C   0  0  0  0  0  0  0  0  0  0  0  0
    7.7344   11.8986   23.7441 C   0  0  0  0  0  0  0  0  0  0  0  0
    6.2884   12.3726   23.9212 C   0  0  0  0  0  0  0  0  0  0  0  0
    6.0145   13.3537   26.1359 O   0  0  0  0  0  0  0  0  0  0  0  0
    6.3297   14.6778   24.3117 O   0  0  0  0  0  0  0  0  0  0  0  0
   13.1425   16.8594   21.6100 H   0  0  0  0  0  0  0  0  0  0  0  0
   14.1870   14.6291   21.9098 H   0  0  0  0  0  0  0  0  0  0  0  0
   10.7072   17.1495   21.9875 H   0  0  0  0  0  0  0  0  0  0  0  0
   12.8055   12.6921   22.5838 H   0  0  0  0  0  0  0  0  0  0  0  0
    9.3172   15.2190   22.6617 H   0  0  0  0  0  0  0  0  0  0  0  0
    9.1689    8.9102   24.2066 H   0  0  0  0  0  0  0  0  0  0  0  0
   10.8008    9.3907   23.7485 H   0  0  0  0  0  0  0  0  0  0  0  0
   11.1470   11.1075   21.8963 H   0  0  0  0  0  0  0  0  0  0  0  0
    9.7617   11.8129   21.0809 H   0  0  0  0  0  0  0  0  0  0  0  0
   10.6207   12.8405   25.2048 H   0  0  0  0  0  0  0  0  0  0  0  0
   11.6580   11.7153   24.3413 H   0  0  0  0  0  0  0  0  0  0  0  0
    7.4064   11.1131   21.7348 H   0  0  0  0  0  0  0  0  0  0  0  0
    7.1630    9.9244   23.0108 H   0  0  0  0  0  0  0  0  0  0  0  0
    7.6668   10.5466   25.4564 H   0  0  0  0  0  0  0  0  0  0  0  0
    8.2557   12.1590   25.8487 H   0  0  0  0  0  0  0  0  0  0  0  0
    8.5731   13.8974   23.9859 H   0  0  0  0  0  0  0  0  0  0  0  0
    8.2405   13.4695   22.3157 H   0  0  0  0  0  0  0  0  0  0  0  0
    9.2768    9.4792   21.7811 H   0  0  0  0  0  0  0  0  0  0  0  0
   10.1142   10.5041   25.8708 H   0  0  0  0  0  0  0  0  0  0  0  0
    5.9190   12.7345   22.9609 H   0  0  0  0  0  0  0  0  0  0  0  0
    5.6827   11.5294   24.2557 H   0  0  0  0  0  0  0  0  0  0  0  0
    6.2716   15.4262   24.9433 H   0  0  0  0  0  0  0  0  0  0  0  0
  1  2  1  0  0  0  0
  1  3  2  0  0  0  0
  2  4  2  0  0  0  0
  3  5  1  0  0  0  0
  4  6  1  0  0  0  0
  5  6  2  0  0  0  0
  6 16  1  0  0  0  0
  7 18  1  0  0  0  0
  7 19  2  0  0  0  0
  7 20  1  0  0  0  0
  8 14  1  0  0  0  0
  8 15  1  0  0  0  0
  9 14  1  0  0  0  0
  9 16  1  0  0  0  0
 10 15  1  0  0  0  0
 10 16  1  0  0  0  0
 11 14  1  0  0  0  0
 11 17  1  0  0  0  0
 12 15  1  0  0  0  0
 12 17  1  0  0  0  0
 13 16  1  0  0  0  0
 13 17  1  0  0  0  0
 17 18  1  0  0  0  0
  1 21  1  0  0  0  0
  2 22  1  0  0  0  0
  3 23  1  0  0  0  0
  4 24  1  0  0  0  0
  5 25  1  0  0  0  0
  8 26  1  0  0  0  0
  8 27  1  0  0  0  0
  9 28  1  0  0  0  0
  9 29  1  0  0  0  0
 10 30  1  0  0  0  0
 10 31  1  0  0  0  0
 11 32  1  0  0  0  0
 11 33  1  0  0  0  0
 12 34  1  0  0  0  0
 12 35  1  0  0  0  0
 13 36  1  0  0  0  0
 13 37  1  0  0  0  0
 14 38  1  0  0  0  0
 15 39  1  0  0  0  0
 18 40  1  0  0  0  0
 18 41  1  0  0  0  0
 20 42  1  0  0  0  0
M  END
> <id>
EN300-297482

> <smiles>
OC(=O)CC1(CC2CC3C1)CC(C2)(C3)C=4C=CC=CC4

> <IUPAC Name>
2-(3-phenyladamantan-1-yl)acetic acid

> <CAS>
161036-56-2

> <URL>
https://www.enaminestore.com/catalog/EN300-297482

> <ROCS_ShapeQuery>
x0446_0A_x1080_0A_x0929_0A_x0812_0A_x0719_0A_x1140_0A_x0528_0A_x0310_0A

> <ROCS_TanimotoCombo>
0.419 

> <ROCS_ShapeTanimoto>
0.256 

> <ROCS_ColorTanimoto>
0.163 

> <ROCS_RefTversky>
0.229 

> <ROCS_RefColorTversky>
0.186 

> <ROCS_RefTverskyCombo>
0.416 

> <ROCS_FitTversky>
1.827 

> <ROCS_FitColorTversky>
0.566 

> <ROCS_FitTverskyCombo>
2.393 

> <ROCS_ColorScore>
-6.678

> <ROCS_Overlap>
2709.354

> <ROCS_Rank>
218                 

$$$$
untitled-dbase-555591_3
  -OEChem-02082415563D

 39 43  0     0  0  0  0  0  0999 V2000
    8.7553   20.2491   22.8755 C   0  0  0  0  0  0  0  0  0  0  0  0
    9.0658   20.3015   24.2508 C   0  0  0  0  0  0  0  0  0  0  0  0
    8.7566   19.0353   22.1818 C   0  0  0  0  0  0  0  0  0  0  0  0
    9.3844   19.1412   24.9625 C   0  0  0  0  0  0  0  0  0  0  0  0
    9.0703   17.9024   22.9026 C   0  0  0  0  0  0  0  0  0  0  0  0
    9.3770   17.9541   24.2608 C   0  0  0  0  0  0  0  0  0  0  0  0
    9.1653   16.5047   22.4691 C   0  0  0  0  0  0  0  0  0  0  0  0
    9.6720   16.5901   24.7114 C   0  0  0  0  0  0  0  0  0  0  0  0
    8.4004   13.8151   23.9244 C   0  0  0  0  0  0  0  0  0  0  0  0
    9.0880   11.5626   22.6368 C   0  0  0  0  0  0  0  0  0  0  0  0
    9.8985   11.6815   24.5646 C   0  0  0  0  0  0  0  0  0  0  0  0
    6.9129   11.6592   25.8056 C   0  0  0  0  0  0  0  0  0  0  0  0
    6.1138   11.5421   23.9037 C   0  0  0  0  0  0  0  0  0  0  0  0
    8.5867   12.3056   23.9397 C   0  0  0  0  0  0  0  0  0  0  0  0
    7.5107   11.2943   24.4544 C   0  0  0  0  0  0  0  0  0  0  0  0
    9.3763   10.4480   23.7222 C   0  0  0  0  0  0  0  0  0  0  0  0
   10.3053    9.3125   23.4018 C   0  0  0  0  0  0  0  0  0  0  0  0
    9.4766   15.8247   23.6047 N   0  0  0  0  0  0  0  0  0  0  0  0
    8.9767   16.1127   21.3344 O   0  0  0  0  0  0  0  0  0  0  0  0
    9.9956   16.2846   25.8422 O   0  0  0  0  0  0  0  0  0  0  0  0
    7.3341   14.3752   24.1418 O   0  0  0  0  0  0  0  0  0  0  0  0
    5.6451   12.0033   25.1946 O   0  0  0  0  0  0  0  0  0  0  0  0
    8.1052    9.9845   24.2852 O   0  0  0  0  0  0  0  0  0  0  0  0
    9.5893   14.4175   23.6328 O   0  0  0  0  0  0  0  0  0  0  0  0
    8.5128   21.1687   22.3489 H   0  0  0  0  0  0  0  0  0  0  0  0
    9.0577   21.2605   24.7624 H   0  0  0  0  0  0  0  0  0  0  0  0
    8.5205   18.9967   21.1250 H   0  0  0  0  0  0  0  0  0  0  0  0
    9.6254   19.1829   26.0180 H   0  0  0  0  0  0  0  0  0  0  0  0
    8.3238   11.3148   21.8942 H   0  0  0  0  0  0  0  0  0  0  0  0
    9.9565   11.9955   22.1272 H   0  0  0  0  0  0  0  0  0  0  0  0
   10.8507   12.1268   24.2540 H   0  0  0  0  0  0  0  0  0  0  0  0
    9.9031   11.5464   25.6503 H   0  0  0  0  0  0  0  0  0  0  0  0
    6.8001   10.8266   26.5070 H   0  0  0  0  0  0  0  0  0  0  0  0
    7.3531   12.5130   26.3282 H   0  0  0  0  0  0  0  0  0  0  0  0
    6.0133   12.3166   23.1379 H   0  0  0  0  0  0  0  0  0  0  0  0
    5.5713   10.6469   23.5836 H   0  0  0  0  0  0  0  0  0  0  0  0
   10.4000    8.6274   24.2543 H   0  0  0  0  0  0  0  0  0  0  0  0
   11.3090    9.6816   23.1545 H   0  0  0  0  0  0  0  0  0  0  0  0
    9.9394    8.7332   22.5442 H   0  0  0  0  0  0  0  0  0  0  0  0
  1  2  1  0  0  0  0
  1  3  2  0  0  0  0
  2  4  2  0  0  0  0
  3  5  1  0  0  0  0
  4  6  1  0  0  0  0
  5  6  2  0  0  0  0
  5  7  1  0  0  0  0
  6  8  1  0  0  0  0
  7 18  1  0  0  0  0
  7 19  2  0  0  0  0
  8 18  1  0  0  0  0
  8 20  2  0  0  0  0
  9 14  1  0  0  0  0
  9 21  2  0  0  0  0
  9 24  1  0  0  0  0
 10 14  1  0  0  0  0
 10 16  1  0  0  0  0
 11 14  1  0  0  0  0
 11 16  1  0  0  0  0
 12 15  1  0  0  0  0
 12 22  1  0  0  0  0
 13 15  1  0  0  0  0
 13 22  1  0  0  0  0
 14 15  1  0  0  0  0
 15 23  1  0  0  0  0
 16 17  1  0  0  0  0
 16 23  1  0  0  0  0
 18 24  1  0  0  0  0
  1 25  1  0  0  0  0
  2 26  1  0  0  0  0
  3 27  1  0  0  0  0
  4 28  1  0  0  0  0
 10 29  1  0  0  0  0
 10 30  1  0  0  0  0
 11 31  1  0  0  0  0
 11 32  1  0  0  0  0
 12 33  1  0  0  0  0
 12 34  1  0  0  0  0
 13 35  1  0  0  0  0
 13 36  1  0  0  0  0
 17 37  1  0  0  0  0
 17 38  1  0  0  0  0
 17 39  1  0  0  0  0
M  END
> <id>
EN300-6526443

> <smiles>
CC1(CC2(C1)C(=O)ON3C(=O)C=4C=CC=CC4C3=O)OC52COC5

> <IUPAC Name>
1,3-dioxo-2,3-dihydro-1H-isoindol-2-yl 4-methyl-3-oxaspiro[bicyclo[2.1.1]hexane-2,3'-oxetane]-1-carboxylate

> <CAS>
2490404-07-2

> <URL>
https://www.enaminestore.com/catalog/EN300-6526443

> <ROCS_ShapeQuery>
x0446_0A_x1080_0A_x0929_0A_x0812_0A_x0719_0A_x1140_0A_x0528_0A_x0310_0A

> <ROCS_TanimotoCombo>
0.419 

> <ROCS_ShapeTanimoto>
0.203 

> <ROCS_ColorTanimoto>
0.216 

> <ROCS_RefTversky>
0.193 

> <ROCS_RefColorTversky>
0.256 

> <ROCS_RefTverskyCombo>
0.449 

> <ROCS_FitTversky>
1.338 

> <ROCS_FitColorTversky>
0.580 

> <ROCS_FitTverskyCombo>
1.918 

> <ROCS_ColorScore>
-9.238

> <ROCS_Overlap>
2281.927

> <ROCS_Rank>
219                 

$$$$
untitled-dbase-48388_0
  -OEChem-02082415563D

 43 47  0     0  0  0  0  0  0999 V2000
   10.3628   14.3263   21.5712 C   0  0  0  0  0  0  0  0  0  0  0  0
   10.9566   16.3688   22.0007 C   0  0  0  0  0  0  0  0  0  0  0  0
   13.9694   15.1482   21.7870 C   0  0  0  0  0  0  0  0  0  0  0  0
   13.5429   13.7460   21.4840 C   0  0  0  0  0  0  0  0  0  0  0  0
    7.5535   10.3101   23.5240 C   0  0  0  0  0  0  0  0  0  0  0  0
    8.0901   12.2195   25.0582 C   0  0  0  0  0  0  0  0  0  0  0  0
    9.6636   10.2754   24.8782 C   0  0  0  0  0  0  0  0  0  0  0  0
    8.1970   12.5398   22.5732 C   0  0  0  0  0  0  0  0  0  0  0  0
    9.7740   10.5913   22.3927 C   0  0  0  0  0  0  0  0  0  0  0  0
   10.3120   12.5048   23.9305 C   0  0  0  0  0  0  0  0  0  0  0  0
    7.4479   11.8321   23.7158 C   0  0  0  0  0  0  0  0  0  0  0  0
    9.0293    9.8783   23.5349 C   0  0  0  0  0  0  0  0  0  0  0  0
    9.5686   11.7972   25.0769 C   0  0  0  0  0  0  0  0  0  0  0  0
   12.7090   14.5977   22.4123 C   0  0  0  0  0  0  0  0  0  0  0  0
    9.6878   12.1262   22.5664 C   0  0  0  0  0  0  0  0  0  0  0  0
   10.4298   12.8320   21.4284 C   0  0  0  0  0  0  0  0  0  0  0  0
    9.3364   15.1009   21.3011 N   0  0  0  0  0  0  0  0  0  0  0  0
    9.7142   16.4004   21.5744 N   0  0  0  0  0  0  0  0  0  0  0  0
   11.4048   15.0828   22.0146 N   0  0  0  0  0  0  0  0  0  0  0  0
   11.9149   17.7192   22.4810 S   0  0  0  0  0  0  0  0  0  0  0  0
   14.8304   15.2861   22.4300 H   0  0  0  0  0  0  0  0  0  0  0  0
   13.8765   15.8853   20.9989 H   0  0  0  0  0  0  0  0  0  0  0  0
   13.1615   13.5390   20.4915 H   0  0  0  0  0  0  0  0  0  0  0  0
   14.1152   12.9373   21.9219 H   0  0  0  0  0  0  0  0  0  0  0  0
    7.0064    9.7933   24.3221 H   0  0  0  0  0  0  0  0  0  0  0  0
    7.0846   10.0182   22.5762 H   0  0  0  0  0  0  0  0  0  0  0  0
    8.0074   13.3020   25.2147 H   0  0  0  0  0  0  0  0  0  0  0  0
    7.5524   11.7366   25.8836 H   0  0  0  0  0  0  0  0  0  0  0  0
    9.1537    9.7579   25.7003 H   0  0  0  0  0  0  0  0  0  0  0  0
   10.7135    9.9587   24.9053 H   0  0  0  0  0  0  0  0  0  0  0  0
    7.7286   12.2866   21.6133 H   0  0  0  0  0  0  0  0  0  0  0  0
    8.1055   13.6273   22.6908 H   0  0  0  0  0  0  0  0  0  0  0  0
   10.8233   10.2693   22.3797 H   0  0  0  0  0  0  0  0  0  0  0  0
    9.3415   10.2937   21.4287 H   0  0  0  0  0  0  0  0  0  0  0  0
   10.2689   13.5916   24.0790 H   0  0  0  0  0  0  0  0  0  0  0  0
   11.3734   12.2260   23.9525 H   0  0  0  0  0  0  0  0  0  0  0  0
    6.3945   12.1334   23.7092 H   0  0  0  0  0  0  0  0  0  0  0  0
    9.0982    8.7931   23.3999 H   0  0  0  0  0  0  0  0  0  0  0  0
   10.0200   12.0739   26.0362 H   0  0  0  0  0  0  0  0  0  0  0  0
   12.7527   14.3564   23.4685 H   0  0  0  0  0  0  0  0  0  0  0  0
    9.9977   12.5257   20.4718 H   0  0  0  0  0  0  0  0  0  0  0  0
   11.4720   12.5014   21.4180 H   0  0  0  0  0  0  0  0  0  0  0  0
   11.0241   18.7142   22.2825 H   0  0  0  0  0  0  0  0  0  0  0  0
  1 16  1  0  0  0  0
  1 17  2  0  0  0  0
  1 19  1  0  0  0  0
  2 18  2  0  0  0  0
  2 19  1  0  0  0  0
  2 20  1  0  0  0  0
  3  4  1  0  0  0  0
  3 14  1  0  0  0  0
  4 14  1  0  0  0  0
  5 11  1  0  0  0  0
  5 12  1  0  0  0  0
  6 11  1  0  0  0  0
  6 13  1  0  0  0  0
  7 12  1  0  0  0  0
  7 13  1  0  0  0  0
  8 11  1  0  0  0  0
  8 15  1  0  0  0  0
  9 12  1  0  0  0  0
  9 15  1  0  0  0  0
 10 13  1  0  0  0  0
 10 15  1  0  0  0  0
 14 19  1  0  0  0  0
 15 16  1  0  0  0  0
 17 18  1  0  0  0  0
  3 21  1  0  0  0  0
  3 22  1  0  0  0  0
  4 23  1  0  0  0  0
  4 24  1  0  0  0  0
  5 25  1  0  0  0  0
  5 26  1  0  0  0  0
  6 27  1  0  0  0  0
  6 28  1  0  0  0  0
  7 29  1  0  0  0  0
  7 30  1  0  0  0  0
  8 31  1  0  0  0  0
  8 32  1  0  0  0  0
  9 33  1  0  0  0  0
  9 34  1  0  0  0  0
 10 35  1  0  0  0  0
 10 36  1  0  0  0  0
 11 37  1  0  0  0  0
 12 38  1  0  0  0  0
 13 39  1  0  0  0  0
 14 40  1  0  0  0  0
 16 41  1  0  0  0  0
 16 42  1  0  0  0  0
 20 43  1  0  0  0  0
M  END
> <id>
EN300-229491

> <smiles>
SC1=NN=C(CC2(CC3CC4CC(C3)C2)C4)N1C5CC5

> <MDLNUMBER>
MFCD26955022

> <IUPAC Name>
5-[(adamantan-1-yl)methyl]-4-cyclopropyl-4H-1,2,4-triazole-3-thiol

> <CAS>
828274-06-2

> <URL>
https://www.enaminestore.com/catalog/EN300-229491

> <ROCS_ShapeQuery>
x0446_0A_x1080_0A_x0929_0A_x0812_0A_x0719_0A_x1140_0A_x0528_0A_x0310_0A

> <ROCS_TanimotoCombo>
0.419 

> <ROCS_ShapeTanimoto>
0.230 

> <ROCS_ColorTanimoto>
0.189 

> <ROCS_RefTversky>
0.210 

> <ROCS_RefColorTversky>
0.213 

> <ROCS_RefTverskyCombo>
0.423 

> <ROCS_FitTversky>
1.670 

> <ROCS_FitColorTversky>
0.631 

> <ROCS_FitTverskyCombo>
2.301 

> <ROCS_ColorScore>
-7.625

> <ROCS_Overlap>
2485.197

> <ROCS_Rank>
220                 

$$$$
untitled-dbase-494639_0
  -OEChem-02082415563D

 41 44  0     1  0  0  0  0  0999 V2000
   12.7060   15.1536   21.8172 C   0  0  0  0  0  0  0  0  0  0  0  0
   12.5680   14.3517   22.9501 C   0  0  0  0  0  0  0  0  0  0  0  0
   11.5797   15.5181   21.0793 C   0  0  0  0  0  0  0  0  0  0  0  0
   11.3038   13.9142   23.3451 C   0  0  0  0  0  0  0  0  0  0  0  0
   10.3155   15.0805   21.4743 C   0  0  0  0  0  0  0  0  0  0  0  0
   10.1775   14.2786   22.6072 C   0  0  0  0  0  0  0  0  0  0  0  0
    7.6754   11.9009   24.9743 C   0  0  0  0  0  0  0  0  0  0  0  0
    9.5758   11.2510   22.1588 C   0  0  0  0  0  0  0  0  0  0  0  0
    7.4668   10.7913   23.9230 C   0  0  2  0  0  0  0  0  0  0  0  0
    9.7820   10.7092   23.5858 C   0  0  2  0  0  0  0  0  0  0  0  0
    8.9635   12.7083   24.6492 C   0  0  1  0  0  0  0  0  0  0  0  0
    8.3088   12.1325   22.1052 C   0  0  1  0  0  0  0  0  0  0  0  0
    6.2636    9.9290   24.2879 C   0  0  0  0  0  0  0  0  0  0  0  0
   10.9791    9.7658   23.6306 C   0  0  0  0  0  0  0  0  0  0  0  0
    9.3055   13.6447   25.8108 C   0  0  0  0  0  0  0  0  0  0  0  0
    7.9610   12.4991   20.6608 C   0  0  0  0  0  0  0  0  0  0  0  0
    8.6227    9.9442   23.9393 O   0  0  0  0  0  0  0  0  0  0  0  0
    7.2111   11.3299   22.6117 O   0  0  0  0  0  0  0  0  0  0  0  0
   10.0430   11.7589   24.5333 O   0  0  0  0  0  0  0  0  0  0  0  0
    8.5595   13.7187   23.1129 P   0  0  0  0  0  0  0  0  0  0  0  0
   13.6902   15.4944   21.5095 H   0  0  0  0  0  0  0  0  0  0  0  0
   13.4450   14.0690   23.5250 H   0  0  0  0  0  0  0  0  0  0  0  0
   11.6876   16.1417   20.1966 H   0  0  0  0  0  0  0  0  0  0  0  0
   11.2197   13.2908   24.2322 H   0  0  0  0  0  0  0  0  0  0  0  0
    9.4515   15.3759   20.8836 H   0  0  0  0  0  0  0  0  0  0  0  0
    6.7964   12.5556   25.0329 H   0  0  0  0  0  0  0  0  0  0  0  0
    7.8071   11.4238   25.9554 H   0  0  0  0  0  0  0  0  0  0  0  0
   10.4645   11.7873   21.8088 H   0  0  0  0  0  0  0  0  0  0  0  0
    9.4254   10.3940   21.4872 H   0  0  0  0  0  0  0  0  0  0  0  0
    6.1246    9.1489   23.5400 H   0  0  0  0  0  0  0  0  0  0  0  0
    5.3648   10.5437   24.3301 H   0  0  0  0  0  0  0  0  0  0  0  0
    6.4210    9.4637   25.2607 H   0  0  0  0  0  0  0  0  0  0  0  0
   11.1168    9.3880   24.6433 H   0  0  0  0  0  0  0  0  0  0  0  0
   11.8808   10.2950   23.3239 H   0  0  0  0  0  0  0  0  0  0  0  0
   10.8148    8.9249   22.9575 H   0  0  0  0  0  0  0  0  0  0  0  0
   10.2072   14.2053   25.5752 H   0  0  0  0  0  0  0  0  0  0  0  0
    9.4705   13.0617   26.7139 H   0  0  0  0  0  0  0  0  0  0  0  0
    8.4839   14.3381   25.9755 H   0  0  0  0  0  0  0  0  0  0  0  0
    7.0673   13.1190   20.6454 H   0  0  0  0  0  0  0  0  0  0  0  0
    7.7793   11.5932   20.0868 H   0  0  0  0  0  0  0  0  0  0  0  0
    8.7866   13.0482   20.2135 H   0  0  0  0  0  0  0  0  0  0  0  0
  1  2  1  0  0  0  0
  1  3  2  0  0  0  0
  2  4  2  0  0  0  0
  3  5  1  0  0  0  0
  4  6  1  0  0  0  0
  5  6  2  0  0  0  0
  6 20  1  0  0  0  0
  7  9  1  0  0  0  0
  7 11  1  0  0  0  0
  8 10  1  0  0  0  0
  8 12  1  0  0  0  0
  9 13  1  1  0  0  0
  9 17  1  0  0  0  0
  9 18  1  0  0  0  0
 10 14  1  1  0  0  0
 10 17  1  0  0  0  0
 10 19  1  0  0  0  0
 11 15  1  6  0  0  0
 11 19  1  0  0  0  0
 11 20  1  0  0  0  0
 12 16  1  6  0  0  0
 12 18  1  0  0  0  0
 12 20  1  0  0  0  0
  1 21  1  0  0  0  0
  2 22  1  0  0  0  0
  3 23  1  0  0  0  0
  4 24  1  0  0  0  0
  5 25  1  0  0  0  0
  7 26  1  0  0  0  0
  7 27  1  0  0  0  0
  8 28  1  0  0  0  0
  8 29  1  0  0  0  0
 13 30  1  0  0  0  0
 13 31  1  0  0  0  0
 13 32  1  0  0  0  0
 14 33  1  0  0  0  0
 14 34  1  0  0  0  0
 14 35  1  0  0  0  0
 15 36  1  0  0  0  0
 15 37  1  0  0  0  0
 15 38  1  0  0  0  0
 16 39  1  0  0  0  0
 16 40  1  0  0  0  0
 16 41  1  0  0  0  0
M  END
> <id>
EN300-27113082

> <smiles>
C[C@@]1(C[C@@]2(C)O[C@]3(C)C[C@@](C)(O1)P2C=4C=CC=CC4)O3.CS(=O)(=O)O[Pd]C=1C=CC=CC1C=2C=CC=CC2N

> <MDLNUMBER>
MFCD33550654

> <IUPAC Name>
(1S,3R,5R,7S)-1,3,5,7-tetramethyl-8-phenyl-2,4,6-trioxa-8-phosphatricyclo[3.3.1.1,3,7]decane; {2'-amino-[1,1'-biphenyl]-2-yl}palladio methanesulfonate

> <URL>
https://www.enaminestore.com/catalog/EN300-27113082

> <ROCS_ShapeQuery>
x0446_0A_x1080_0A_x0929_0A_x0812_0A_x0719_0A_x1140_0A_x0528_0A_x0310_0A

> <ROCS_TanimotoCombo>
0.419 

> <ROCS_ShapeTanimoto>
0.247 

> <ROCS_ColorTanimoto>
0.172 

> <ROCS_RefTversky>
0.223 

> <ROCS_RefColorTversky>
0.195 

> <ROCS_RefTverskyCombo>
0.418 

> <ROCS_FitTversky>
1.782 

> <ROCS_FitColorTversky>
0.592 

> <ROCS_FitTverskyCombo>
2.373 

> <ROCS_ColorScore>
-6.983

> <ROCS_Overlap>
2632.806

> <ROCS_Rank>
221                 

$$$$
untitled-dbase-59481_0
  -OEChem-02082415563D

 30 32  0     0  0  0  0  0  0999 V2000
   12.8743   16.4635   21.7801 C   0  0  0  0  0  0  0  0  0  0  0  0
   13.5649   15.3333   22.2174 C   0  0  0  0  0  0  0  0  0  0  0  0
   11.4804   16.4519   21.7268 C   0  0  0  0  0  0  0  0  0  0  0  0
   12.8618   14.1914   22.6013 C   0  0  0  0  0  0  0  0  0  0  0  0
   10.7773   15.3101   22.1107 C   0  0  0  0  0  0  0  0  0  0  0  0
    7.5240   10.3711   24.5213 C   0  0  0  0  0  0  0  0  0  0  0  0
   11.4679   14.1798   22.5479 C   0  0  0  0  0  0  0  0  0  0  0  0
    7.6260   11.7588   24.3696 C   0  0  0  0  0  0  0  0  0  0  0  0
    8.8702   11.9632   23.8183 C   0  0  0  0  0  0  0  0  0  0  0  0
   11.4122   11.6526   22.7455 C   0  0  0  0  0  0  0  0  0  0  0  0
   10.7184   12.9625   22.9571 C   0  0  0  0  0  0  0  0  0  0  0  0
   10.7323   10.5571   23.1207 C   0  0  0  0  0  0  0  0  0  0  0  0
    6.6739   12.7754   24.7016 C   0  0  0  0  0  0  0  0  0  0  0  0
   11.2960    9.1762   22.9685 C   0  0  0  0  0  0  0  0  0  0  0  0
    8.6104    9.7238   24.1038 N   0  0  0  0  0  0  0  0  0  0  0  0
    9.5217   13.1000   23.4515 N   0  0  0  0  0  0  0  0  0  0  0  0
    9.4498   10.7034   23.6668 N   0  0  0  0  0  0  0  0  0  0  0  0
    6.8209   14.0051   24.5427 O   0  0  0  0  0  0  0  0  0  0  0  0
    5.5152   12.2796   25.2387 O   0  0  0  0  0  0  0  0  0  0  0  0
   12.5282    9.2173   22.4234 F   0  0  0  0  0  0  0  0  0  0  0  0
   11.3913    8.5595   24.1634 F   0  0  0  0  0  0  0  0  0  0  0  0
   10.5152    8.4186   22.1723 F   0  0  0  0  0  0  0  0  0  0  0  0
   13.4218   17.3525   21.4812 H   0  0  0  0  0  0  0  0  0  0  0  0
   14.6502   15.3424   22.2587 H   0  0  0  0  0  0  0  0  0  0  0  0
   10.9427   17.3320   21.3866 H   0  0  0  0  0  0  0  0  0  0  0  0
   13.4100   13.3163   22.9405 H   0  0  0  0  0  0  0  0  0  0  0  0
    9.6913   15.3123   22.0649 H   0  0  0  0  0  0  0  0  0  0  0  0
    6.7009    9.7953   24.9202 H   0  0  0  0  0  0  0  0  0  0  0  0
   12.4060   11.6241   22.3168 H   0  0  0  0  0  0  0  0  0  0  0  0
    4.8557   12.9684   25.4688 H   0  0  0  0  0  0  0  0  0  0  0  0
  1  2  1  0  0  0  0
  1  3  2  0  0  0  0
  2  4  2  0  0  0  0
  3  5  1  0  0  0  0
  4  7  1  0  0  0  0
  5  7  2  0  0  0  0
  6  8  1  0  0  0  0
  6 15  2  0  0  0  0
  7 11  1  0  0  0  0
  8  9  2  0  0  0  0
  8 13  1  0  0  0  0
  9 16  1  0  0  0  0
  9 17  1  0  0  0  0
 10 11  1  0  0  0  0
 10 12  2  0  0  0  0
 11 16  2  0  0  0  0
 12 14  1  0  0  0  0
 12 17  1  0  0  0  0
 13 18  2  0  0  0  0
 13 19  1  0  0  0  0
 14 20  1  0  0  0  0
 14 21  1  0  0  0  0
 14 22  1  0  0  0  0
 15 17  1  0  0  0  0
  1 23  1  0  0  0  0
  2 24  1  0  0  0  0
  3 25  1  0  0  0  0
  4 26  1  0  0  0  0
  5 27  1  0  0  0  0
  6 28  1  0  0  0  0
 10 29  1  0  0  0  0
 19 30  1  0  0  0  0
M  END
> <id>
EN300-256223

> <smiles>
OC(=O)C=1C=NN2C(=CC(=NC12)C=3C=CC=CC3)C(F)(F)F

> <MDLNUMBER>
MFCD01080839

> <IUPAC Name>
5-phenyl-7-(trifluoromethyl)pyrazolo[1,5-a]pyrimidine-3-carboxylic acid

> <CAS>
312635-16-8

> <URL>
https://www.enaminestore.com/catalog/EN300-256223

> <ROCS_ShapeQuery>
x0446_0A_x1080_0A_x0929_0A_x0812_0A_x0719_0A_x1140_0A_x0528_0A_x0310_0A

> <ROCS_TanimotoCombo>
0.419 

> <ROCS_ShapeTanimoto>
0.262 

> <ROCS_ColorTanimoto>
0.156 

> <ROCS_RefTversky>
0.236 

> <ROCS_RefColorTversky>
0.171 

> <ROCS_RefTverskyCombo>
0.407 

> <ROCS_FitTversky>
1.735 

> <ROCS_FitColorTversky>
0.644 

> <ROCS_FitTverskyCombo>
2.379 

> <ROCS_ColorScore>
-6.118

> <ROCS_Overlap>
2790.190

> <ROCS_Rank>
222                 

$$$$
untitled-dbase-46126_8
  -OEChem-02082415563D

 36 38  0     0  0  0  0  0  0999 V2000
   10.5940   13.5738   23.3440 C   0  0  0  0  0  0  0  0  0  0  0  0
   10.4343   15.4964   21.6361 C   0  0  0  0  0  0  0  0  0  0  0  0
    9.0980    9.6775   24.4385 C   0  0  0  0  0  0  0  0  0  0  0  0
    7.1613   11.2632   24.6009 C   0  0  0  0  0  0  0  0  0  0  0  0
    7.8633   10.3665   22.3665 C   0  0  0  0  0  0  0  0  0  0  0  0
    9.4945   12.0882   25.0052 C   0  0  0  0  0  0  0  0  0  0  0  0
   10.1977   11.1899   22.7670 C   0  0  0  0  0  0  0  0  0  0  0  0
    8.2591   12.7785   22.9302 C   0  0  0  0  0  0  0  0  0  0  0  0
    8.5362   10.8983   25.1874 C   0  0  0  0  0  0  0  0  0  0  0  0
    9.2422    9.9963   22.9403 C   0  0  0  0  0  0  0  0  0  0  0  0
    7.2949   11.5917   23.1037 C   0  0  0  0  0  0  0  0  0  0  0  0
    9.6432   12.4231   23.5076 C   0  0  0  0  0  0  0  0  0  0  0  0
   10.8145   14.0598   21.9266 C   0  0  0  0  0  0  0  0  0  0  0  0
   11.5236   16.5174   21.8060 C   0  0  0  0  0  0  0  0  0  0  0  0
   11.1213   14.0994   24.3228 O   0  0  0  0  0  0  0  0  0  0  0  0
    9.2971   15.8363   21.3147 O   0  0  0  0  0  0  0  0  0  0  0  0
   12.6902   15.9495   22.2022 F   0  0  0  0  0  0  0  0  0  0  0  0
   11.1994   17.4487   22.7377 F   0  0  0  0  0  0  0  0  0  0  0  0
   11.7830   17.1863   20.6543 F   0  0  0  0  0  0  0  0  0  0  0  0
   10.0725    9.3974   24.8571 H   0  0  0  0  0  0  0  0  0  0  0  0
    8.4327    8.8164   24.5752 H   0  0  0  0  0  0  0  0  0  0  0  0
    6.4620   10.4295   24.7402 H   0  0  0  0  0  0  0  0  0  0  0  0
    6.7420   12.1235   25.1369 H   0  0  0  0  0  0  0  0  0  0  0  0
    7.9492   10.5812   21.2942 H   0  0  0  0  0  0  0  0  0  0  0  0
    7.1762    9.5173   22.4667 H   0  0  0  0  0  0  0  0  0  0  0  0
    9.1177   12.9603   25.5557 H   0  0  0  0  0  0  0  0  0  0  0  0
   10.4727   11.8487   25.4430 H   0  0  0  0  0  0  0  0  0  0  0  0
   11.1932   10.9286   23.1495 H   0  0  0  0  0  0  0  0  0  0  0  0
   10.3285   11.4127   21.6999 H   0  0  0  0  0  0  0  0  0  0  0  0
    8.3433   13.0385   21.8668 H   0  0  0  0  0  0  0  0  0  0  0  0
    7.8519   13.6662   23.4320 H   0  0  0  0  0  0  0  0  0  0  0  0
    8.4342   10.6646   26.2528 H   0  0  0  0  0  0  0  0  0  0  0  0
    9.6408    9.1230   22.4124 H   0  0  0  0  0  0  0  0  0  0  0  0
    6.3130   11.8492   22.6918 H   0  0  0  0  0  0  0  0  0  0  0  0
   11.8779   13.9541   21.6872 H   0  0  0  0  0  0  0  0  0  0  0  0
   10.2305   13.4074   21.2688 H   0  0  0  0  0  0  0  0  0  0  0  0
  1 12  1  0  0  0  0
  1 13  1  0  0  0  0
  1 15  2  0  0  0  0
  2 13  1  0  0  0  0
  2 14  1  0  0  0  0
  2 16  2  0  0  0  0
  3  9  1  0  0  0  0
  3 10  1  0  0  0  0
  4  9  1  0  0  0  0
  4 11  1  0  0  0  0
  5 10  1  0  0  0  0
  5 11  1  0  0  0  0
  6  9  1  0  0  0  0
  6 12  1  0  0  0  0
  7 10  1  0  0  0  0
  7 12  1  0  0  0  0
  8 11  1  0  0  0  0
  8 12  1  0  0  0  0
 14 17  1  0  0  0  0
 14 18  1  0  0  0  0
 14 19  1  0  0  0  0
  3 20  1  0  0  0  0
  3 21  1  0  0  0  0
  4 22  1  0  0  0  0
  4 23  1  0  0  0  0
  5 24  1  0  0  0  0
  5 25  1  0  0  0  0
  6 26  1  0  0  0  0
  6 27  1  0  0  0  0
  7 28  1  0  0  0  0
  7 29  1  0  0  0  0
  8 30  1  0  0  0  0
  8 31  1  0  0  0  0
  9 32  1  0  0  0  0
 10 33  1  0  0  0  0
 11 34  1  0  0  0  0
 13 35  1  0  0  0  0
 13 36  1  0  0  0  0
M  END
> <id>
EN300-228351

> <smiles>
FC(F)(F)C(=O)CC(=O)C1(CC2CC3CC(C2)C1)C3

> <MDLNUMBER>
MFCD03419461

> <IUPAC Name>
1-(adamantan-1-yl)-4,4,4-trifluorobutane-1,3-dione

> <CAS>
758709-48-7

> <URL>
https://www.enaminestore.com/catalog/EN300-228351

> <ROCS_ShapeQuery>
x0446_0A_x1080_0A_x0929_0A_x0812_0A_x0719_0A_x1140_0A_x0528_0A_x0310_0A

> <ROCS_TanimotoCombo>
0.419 

> <ROCS_ShapeTanimoto>
0.231 

> <ROCS_ColorTanimoto>
0.188 

> <ROCS_RefTversky>
0.211 

> <ROCS_RefColorTversky>
0.206 

> <ROCS_RefTverskyCombo>
0.417 

> <ROCS_FitTversky>
1.729 

> <ROCS_FitColorTversky>
0.679 

> <ROCS_FitTverskyCombo>
2.408 

> <ROCS_ColorScore>
-7.375

> <ROCS_Overlap>
2486.276

> <ROCS_Rank>
223                 

$$$$
untitled-dbase-269998_4
  -OEChem-02082415563D

 44 47  0     0  0  0  0  0  0999 V2000
   13.4633   18.4658   18.9851 C   0  0  0  0  0  0  0  0  0  0  0  0
   12.5111   18.8785   19.9172 C   0  0  0  0  0  0  0  0  0  0  0  0
   13.5640   17.1178   18.6411 C   0  0  0  0  0  0  0  0  0  0  0  0
   11.6598   17.9431   20.5053 C   0  0  0  0  0  0  0  0  0  0  0  0
   12.7127   16.1824   19.2292 C   0  0  0  0  0  0  0  0  0  0  0  0
   11.7605   16.5950   20.1614 C   0  0  0  0  0  0  0  0  0  0  0  0
   10.8535   15.5985   20.7880 C   0  0  0  0  0  0  0  0  0  0  0  0
   10.1773   13.5009   22.7703 C   0  0  0  0  0  0  0  0  0  0  0  0
    9.0120   10.0994   25.1556 C   0  0  0  0  0  0  0  0  0  0  0  0
    6.8939   11.2458   24.4547 C   0  0  0  0  0  0  0  0  0  0  0  0
    8.0811    9.7196   22.8575 C   0  0  0  0  0  0  0  0  0  0  0  0
    8.9994   12.5748   24.7529 C   0  0  0  0  0  0  0  0  0  0  0  0
   10.1885   11.0459   23.1530 C   0  0  0  0  0  0  0  0  0  0  0  0
    8.0681   12.1950   22.4514 C   0  0  0  0  0  0  0  0  0  0  0  0
    8.1803   11.3869   25.2872 C   0  0  0  0  0  0  0  0  0  0  0  0
    9.3741    9.8519   23.6809 C   0  0  0  0  0  0  0  0  0  0  0  0
    7.2444   11.0055   22.9758 C   0  0  0  0  0  0  0  0  0  0  0  0
    9.3638   12.3430   23.2729 C   0  0  0  0  0  0  0  0  0  0  0  0
   11.3457   14.3101   20.8711 N   0  0  0  0  0  0  0  0  0  0  0  0
   10.5665   13.3416   21.4559 N   0  0  0  0  0  0  0  0  0  0  0  0
    9.7547   15.9606   21.2012 O   0  0  0  0  0  0  0  0  0  0  0  0
   10.4654   14.4507   23.4949 O   0  0  0  0  0  0  0  0  0  0  0  0
   14.1261   19.1941   18.5272 H   0  0  0  0  0  0  0  0  0  0  0  0
   12.4330   19.9281   20.1851 H   0  0  0  0  0  0  0  0  0  0  0  0
   14.3052   16.7965   17.9151 H   0  0  0  0  0  0  0  0  0  0  0  0
   10.9214   18.2756   21.2305 H   0  0  0  0  0  0  0  0  0  0  0  0
   12.8002   15.1346   18.9537 H   0  0  0  0  0  0  0  0  0  0  0  0
    9.9259   10.1810   25.7568 H   0  0  0  0  0  0  0  0  0  0  0  0
    8.4459    9.2467   25.5497 H   0  0  0  0  0  0  0  0  0  0  0  0
    6.2908   10.4129   24.8365 H   0  0  0  0  0  0  0  0  0  0  0  0
    6.2836   12.1519   24.5523 H   0  0  0  0  0  0  0  0  0  0  0  0
    8.3250    9.5271   21.8054 H   0  0  0  0  0  0  0  0  0  0  0  0
    7.4985    8.8601   23.2112 H   0  0  0  0  0  0  0  0  0  0  0  0
    8.4265   13.5048   24.8637 H   0  0  0  0  0  0  0  0  0  0  0  0
    9.9085   12.7011   25.3558 H   0  0  0  0  0  0  0  0  0  0  0  0
   11.1268   11.1349   23.7162 H   0  0  0  0  0  0  0  0  0  0  0  0
   10.4744   10.8710   22.1075 H   0  0  0  0  0  0  0  0  0  0  0  0
    8.3032   12.0467   21.3892 H   0  0  0  0  0  0  0  0  0  0  0  0
    7.4721   13.1153   22.5083 H   0  0  0  0  0  0  0  0  0  0  0  0
    7.9242   11.5566   26.3387 H   0  0  0  0  0  0  0  0  0  0  0  0
    9.9645    8.9332   23.5936 H   0  0  0  0  0  0  0  0  0  0  0  0
    6.3249   10.9046   22.3889 H   0  0  0  0  0  0  0  0  0  0  0  0
   12.2648   14.0837   20.5073 H   0  0  0  0  0  0  0  0  0  0  0  0
   10.2817   12.5222   20.9298 H   0  0  0  0  0  0  0  0  0  0  0  0
  1  2  1  0  0  0  0
  1  3  2  0  0  0  0
  2  4  2  0  0  0  0
  3  5  1  0  0  0  0
  4  6  1  0  0  0  0
  5  6  2  0  0  0  0
  6  7  1  0  0  0  0
  7 19  1  0  0  0  0
  7 21  2  0  0  0  0
  8 18  1  0  0  0  0
  8 20  1  0  0  0  0
  8 22  2  0  0  0  0
  9 15  1  0  0  0  0
  9 16  1  0  0  0  0
 10 15  1  0  0  0  0
 10 17  1  0  0  0  0
 11 16  1  0  0  0  0
 11 17  1  0  0  0  0
 12 15  1  0  0  0  0
 12 18  1  0  0  0  0
 13 16  1  0  0  0  0
 13 18  1  0  0  0  0
 14 17  1  0  0  0  0
 14 18  1  0  0  0  0
 19 20  1  0  0  0  0
  1 23  1  0  0  0  0
  2 24  1  0  0  0  0
  3 25  1  0  0  0  0
  4 26  1  0  0  0  0
  5 27  1  0  0  0  0
  9 28  1  0  0  0  0
  9 29  1  0  0  0  0
 10 30  1  0  0  0  0
 10 31  1  0  0  0  0
 11 32  1  0  0  0  0
 11 33  1  0  0  0  0
 12 34  1  0  0  0  0
 12 35  1  0  0  0  0
 13 36  1  0  0  0  0
 13 37  1  0  0  0  0
 14 38  1  0  0  0  0
 14 39  1  0  0  0  0
 15 40  1  0  0  0  0
 16 41  1  0  0  0  0
 17 42  1  0  0  0  0
 19 43  1  0  0  0  0
 20 44  1  0  0  0  0
M  END
> <id>
EN300-18122027

> <smiles>
O=C(NNC(=O)C1(CC2CC3CC(C2)C1)C3)C=4C=CC=CC4

> <IUPAC Name>
N'-(adamantane-1-carbonyl)benzohydrazide

> <CAS>
94527-38-5

> <URL>
https://www.enaminestore.com/catalog/EN300-18122027

> <ROCS_ShapeQuery>
x0446_0A_x1080_0A_x0929_0A_x0812_0A_x0719_0A_x1140_0A_x0528_0A_x0310_0A

> <ROCS_TanimotoCombo>
0.419 

> <ROCS_ShapeTanimoto>
0.215 

> <ROCS_ColorTanimoto>
0.203 

> <ROCS_RefTversky>
0.201 

> <ROCS_RefColorTversky>
0.230 

> <ROCS_RefTverskyCombo>
0.431 

> <ROCS_FitTversky>
1.505 

> <ROCS_FitColorTversky>
0.634 

> <ROCS_FitTverskyCombo>
2.139 

> <ROCS_ColorScore>
-8.277

> <ROCS_Overlap>
2372.812

> <ROCS_Rank>
224                 

$$$$
untitled-dbase-356653_6
  -OEChem-02082415563D

 44 47  0     1  0  0  0  0  0999 V2000
   11.0502   17.2222   22.7494 C   0  0  0  0  0  0  0  0  0  0  0  0
    9.4897   14.3470   22.6284 C   0  0  0  0  0  0  0  0  0  0  0  0
   13.0416   14.5996   21.8117 C   0  0  0  0  0  0  0  0  0  0  0  0
   11.8223   15.3333   21.2130 C   0  0  0  0  0  0  0  0  0  0  0  0
   12.9386   15.5312   23.0385 C   0  0  0  0  0  0  0  0  0  0  0  0
    8.6220   10.1144   22.5700 C   0  0  0  0  0  0  0  0  0  0  0  0
    7.8645   12.4867   22.2685 C   0  0  0  0  0  0  0  0  0  0  0  0
   10.2410   11.9988   22.9230 C   0  0  0  0  0  0  0  0  0  0  0  0
    7.0522   11.1507   24.2285 C   0  0  0  0  0  0  0  0  0  0  0  0
    9.4238   10.6628   24.8815 C   0  0  0  0  0  0  0  0  0  0  0  0
    8.6682   13.0345   24.5841 C   0  0  0  0  0  0  0  0  0  0  0  0
    7.4388   11.0848   22.7418 C   0  0  2  0  0  0  0  0  0  0  0  0
    9.8276   10.5940   23.3992 C   0  0  1  0  0  0  0  0  0  0  0  0
   11.4879   15.8588   22.6251 C   0  0  0  0  0  0  0  0  0  0  0  0
    9.0673   12.9844   23.0968 C   0  0  0  0  0  0  0  0  0  0  0  0
    8.2503   11.6356   25.0545 C   0  0  0  0  0  0  0  0  0  0  0  0
   10.8723   14.6506   24.6917 C   0  0  0  0  0  0  0  0  0  0  0  0
   10.6969   18.3228   22.8496 N   0  0  0  0  0  0  0  0  0  0  0  0
   10.5726   14.9281   23.2893 N   0  0  0  0  0  0  0  0  0  0  0  0
    8.8757   14.8819   21.7013 O   0  0  0  0  0  0  0  0  0  0  0  0
    7.9007   11.6885   26.3636 F   0  0  0  0  0  0  0  0  0  0  0  0
   12.8478   13.5465   22.0444 H   0  0  0  0  0  0  0  0  0  0  0  0
   13.9682   14.6740   21.2370 H   0  0  0  0  0  0  0  0  0  0  0  0
   12.1026   16.1095   20.4898 H   0  0  0  0  0  0  0  0  0  0  0  0
   11.0785   14.6823   20.7428 H   0  0  0  0  0  0  0  0  0  0  0  0
   13.0735   15.0360   24.0053 H   0  0  0  0  0  0  0  0  0  0  0  0
   13.6317   16.3806   22.9902 H   0  0  0  0  0  0  0  0  0  0  0  0
    8.3275    9.1065   22.8873 H   0  0  0  0  0  0  0  0  0  0  0  0
    8.8997   10.0468   21.5109 H   0  0  0  0  0  0  0  0  0  0  0  0
    8.1204   12.4567   21.2012 H   0  0  0  0  0  0  0  0  0  0  0  0
    7.0225   13.1850   22.3626 H   0  0  0  0  0  0  0  0  0  0  0  0
   11.1155   12.3430   23.4907 H   0  0  0  0  0  0  0  0  0  0  0  0
   10.5541   11.9595   21.8713 H   0  0  0  0  0  0  0  0  0  0  0  0
    6.1988   11.8244   24.3747 H   0  0  0  0  0  0  0  0  0  0  0  0
    6.7255   10.1659   24.5847 H   0  0  0  0  0  0  0  0  0  0  0  0
    9.1435    9.6683   25.2502 H   0  0  0  0  0  0  0  0  0  0  0  0
   10.2727   10.9860   25.4967 H   0  0  0  0  0  0  0  0  0  0  0  0
    9.4976   13.4031   25.2020 H   0  0  0  0  0  0  0  0  0  0  0  0
    7.8472   13.7457   24.7451 H   0  0  0  0  0  0  0  0  0  0  0  0
    6.5846   10.7370   22.1506 H   0  0  0  0  0  0  0  0  0  0  0  0
   10.6646    9.8983   23.2740 H   0  0  0  0  0  0  0  0  0  0  0  0
   11.5487   13.7857   24.7584 H   0  0  0  0  0  0  0  0  0  0  0  0
   11.3551   15.5294   25.1441 H   0  0  0  0  0  0  0  0  0  0  0  0
    9.9386   14.4280   25.2290 H   0  0  0  0  0  0  0  0  0  0  0  0
  1 14  1  0  0  0  0
  1 18  3  0  0  0  0
  2 15  1  0  0  0  0
  2 19  1  0  0  0  0
  2 20  2  0  0  0  0
  3  4  1  0  0  0  0
  3  5  1  0  0  0  0
  4 14  1  0  0  0  0
  5 14  1  0  0  0  0
  6 12  1  0  0  0  0
  6 13  1  0  0  0  0
  7 12  1  0  0  0  0
  7 15  1  0  0  0  0
  8 13  1  0  0  0  0
  8 15  1  0  0  0  0
  9 12  1  0  0  0  0
  9 16  1  0  0  0  0
 10 13  1  0  0  0  0
 10 16  1  0  0  0  0
 11 15  1  0  0  0  0
 11 16  1  0  0  0  0
 14 19  1  0  0  0  0
 16 21  1  0  0  0  0
 17 19  1  0  0  0  0
  3 22  1  0  0  0  0
  3 23  1  0  0  0  0
  4 24  1  0  0  0  0
  4 25  1  0  0  0  0
  5 26  1  0  0  0  0
  5 27  1  0  0  0  0
  6 28  1  0  0  0  0
  6 29  1  0  0  0  0
  7 30  1  0  0  0  0
  7 31  1  0  0  0  0
  8 32  1  0  0  0  0
  8 33  1  0  0  0  0
  9 34  1  0  0  0  0
  9 35  1  0  0  0  0
 10 36  1  0  0  0  0
 10 37  1  0  0  0  0
 11 38  1  0  0  0  0
 11 39  1  0  0  0  0
 12 40  1  0  0  0  0
 13 41  1  0  0  0  0
 17 42  1  0  0  0  0
 17 43  1  0  0  0  0
 17 44  1  0  0  0  0
M  END
> <id>
EN300-26679530

> <smiles>
CN(C(=O)C1(CC2CC3CC(F)(C2)C1)C3)C4(CCC4)C#N

> <IUPAC Name>
N-(1-cyanocyclobutyl)-3-fluoro-N-methyladamantane-1-carboxamide

> <CAS>
2191664-03-4

> <URL>
https://www.enaminestore.com/catalog/EN300-26679530

> <ROCS_ShapeQuery>
x0446_0A_x1080_0A_x0929_0A_x0812_0A_x0719_0A_x1140_0A_x0528_0A_x0310_0A

> <ROCS_TanimotoCombo>
0.419 

> <ROCS_ShapeTanimoto>
0.236 

> <ROCS_ColorTanimoto>
0.183 

> <ROCS_RefTversky>
0.216 

> <ROCS_RefColorTversky>
0.201 

> <ROCS_RefTverskyCombo>
0.417 

> <ROCS_FitTversky>
1.661 

> <ROCS_FitColorTversky>
0.664 

> <ROCS_FitTverskyCombo>
2.325 

> <ROCS_ColorScore>
-7.211

> <ROCS_Overlap>
2548.096

> <ROCS_Rank>
225                 

$$$$
untitled-dbase-292326_2
  -OEChem-02082415563D

 42 45  0     1  0  0  0  0  0999 V2000
    7.8442   12.5620   24.0321 C   0  0  0  0  0  0  0  0  0  0  0  0
    6.1463   11.2280   25.9037 C   0  0  0  0  0  0  0  0  0  0  0  0
    8.1582   11.3175   24.3894 C   0  0  0  0  0  0  0  0  0  0  0  0
    5.8066   12.4819   25.5333 C   0  0  0  0  0  0  0  0  0  0  0  0
    6.6429   13.2313   24.5350 C   0  0  0  0  0  0  0  0  0  0  0  0
    7.3535   10.5404   25.3354 C   0  0  0  0  0  0  0  0  0  0  0  0
    8.8360   16.1695   22.2349 C   0  0  0  0  0  0  0  0  0  0  0  0
   10.3734   10.0585   24.3301 C   0  0  0  0  0  0  0  0  0  0  0  0
    8.8718   13.1385   23.0786 C   0  0  2  0  0  0  0  0  0  0  0  0
   11.6210   10.8316   24.0112 C   0  0  1  0  0  0  0  0  0  0  0  0
   11.2734   12.0142   23.1630 C   0  0  1  0  0  0  0  0  0  0  0  0
    9.8137   11.9143   22.8366 C   0  0  1  0  0  0  0  0  0  0  0  0
    5.3770   10.3939   26.8935 C   0  0  0  0  0  0  0  0  0  0  0  0
    8.4937   10.6673   21.3448 C   0  0  0  0  0  0  0  0  0  0  0  0
    9.5435   14.3913   23.6295 C   0  0  0  0  0  0  0  0  0  0  0  0
   11.7697   12.1819   24.5266 N   0  0  0  0  0  0  0  0  0  0  0  0
    9.3073   10.8829   23.7721 N   0  0  2  0  0  0  0  0  0  0  0  0
    4.7258   13.1880   25.9862 N   0  0  0  0  0  0  0  0  0  0  0  0
    7.9500   17.2145   22.1450 N   0  0  0  0  0  0  0  0  0  0  0  0
    6.3396   14.3566   24.1509 O   0  0  0  0  0  0  0  0  0  0  0  0
    7.6449    9.3877   25.6349 O   0  0  0  0  0  0  0  0  0  0  0  0
    9.6546   15.8810   21.3683 O   0  0  0  0  0  0  0  0  0  0  0  0
    8.6819   15.4955   23.4190 O   0  0  0  0  0  0  0  0  0  0  0  0
    9.6558   11.4687   21.4902 O   0  0  0  0  0  0  0  0  0  0  0  0
   10.3866    9.0831   23.8341 H   0  0  0  0  0  0  0  0  0  0  0  0
   10.2729    9.9138   25.4106 H   0  0  0  0  0  0  0  0  0  0  0  0
    8.3597   13.3976   22.1424 H   0  0  0  0  0  0  0  0  0  0  0  0
   12.5132   10.2584   23.8227 H   0  0  0  0  0  0  0  0  0  0  0  0
   11.9271   12.3189   22.3606 H   0  0  0  0  0  0  0  0  0  0  0  0
    4.6247    9.8163   26.3651 H   0  0  0  0  0  0  0  0  0  0  0  0
    4.8995   11.0477   27.6173 H   0  0  0  0  0  0  0  0  0  0  0  0
    6.0624    9.7260   27.4068 H   0  0  0  0  0  0  0  0  0  0  0  0
    8.4016   10.3429   20.3054 H   0  0  0  0  0  0  0  0  0  0  0  0
    7.6129   11.2446   21.6369 H   0  0  0  0  0  0  0  0  0  0  0  0
    8.5832    9.7909   21.9911 H   0  0  0  0  0  0  0  0  0  0  0  0
   10.4867   14.5673   23.1115 H   0  0  0  0  0  0  0  0  0  0  0  0
    9.7273   14.2771   24.6981 H   0  0  0  0  0  0  0  0  0  0  0  0
   11.0093   12.4008   25.1683 H   0  0  0  0  0  0  0  0  0  0  0  0
    4.1227   12.7564   26.6493 H   0  0  0  0  0  0  0  0  0  0  0  0
    4.5811   14.1081   25.6366 H   0  0  0  0  0  0  0  0  0  0  0  0
    7.9550   17.7999   21.3166 H   0  0  0  0  0  0  0  0  0  0  0  0
    7.2906   17.4136   22.8898 H   0  0  0  0  0  0  0  0  0  0  0  0
  1  3  2  0  0  0  0
  1  5  1  0  0  0  0
  1  9  1  0  0  0  0
  2  4  2  0  0  0  0
  2  6  1  0  0  0  0
  2 13  1  0  0  0  0
  3  6  1  0  0  0  0
  3 17  1  0  0  0  0
  4  5  1  0  0  0  0
  4 18  1  0  0  0  0
  5 20  2  0  0  0  0
  6 21  2  0  0  0  0
  7 19  1  0  0  0  0
  7 22  2  0  0  0  0
  7 23  1  0  0  0  0
  8 10  1  0  0  0  0
  8 17  1  0  0  0  0
  9 12  1  0  0  0  0
  9 15  1  6  0  0  0
 10 11  1  0  0  0  0
 10 16  1  6  0  0  0
 11 12  1  0  0  0  0
 11 16  1  6  0  0  0
 12 17  1  0  0  0  0
 12 24  1  1  0  0  0
 14 24  1  0  0  0  0
 15 23  1  0  0  0  0
  8 25  1  0  0  0  0
  8 26  1  0  0  0  0
  9 27  1  0  0  0  0
 10 28  1  0  0  0  0
 11 29  1  0  0  0  0
 13 30  1  0  0  0  0
 13 31  1  0  0  0  0
 13 32  1  0  0  0  0
 14 33  1  0  0  0  0
 14 34  1  0  0  0  0
 14 35  1  0  0  0  0
 15 36  1  0  0  0  0
 15 37  1  0  0  0  0
 16 38  1  0  0  0  0
 18 39  1  0  0  0  0
 18 40  1  0  0  0  0
 19 41  1  0  0  0  0
 19 42  1  0  0  0  0
M  END
> <id>
EN300-7405455

> <smiles>
CO[C@@]12[C@H]3N[C@H]3CN2C4=C([C@H]1COC(=O)N)C(=O)C(=C(C)C4=O)N

> <MDLNUMBER>
MFCD00078109

> <IUPAC Name>
[(4S,6S,7R,8S)-11-amino-7-methoxy-12-methyl-10,13-dioxo-2,5-diazatetracyclo[7.4.0.0^{2,7}.0^{4,6}]trideca-1(9),11-dien-8-yl]methyl carbamate

> <CAS>
50-07-7

> <URL>
https://www.enaminestore.com/catalog/EN300-7405455

> <ROCS_ShapeQuery>
x0446_0A_x1080_0A_x0929_0A_x0812_0A_x0719_0A_x1140_0A_x0528_0A_x0310_0A

> <ROCS_TanimotoCombo>
0.419 

> <ROCS_ShapeTanimoto>
0.250 

> <ROCS_ColorTanimoto>
0.168 

> <ROCS_RefTversky>
0.229 

> <ROCS_RefColorTversky>
0.212 

> <ROCS_RefTverskyCombo>
0.441 

> <ROCS_FitTversky>
1.607 

> <ROCS_FitColorTversky>
0.450 

> <ROCS_FitTverskyCombo>
2.057 

> <ROCS_ColorScore>
-7.649

> <ROCS_Overlap>
2704.729

> <ROCS_Rank>
226                 

$$$$
untitled-dbase-264830_3
  -OEChem-02082415563D

 47 49  0     1  0  0  0  0  0999 V2000
   10.3887   14.8577   22.1705 C   0  0  0  0  0  0  0  0  0  0  0  0
    9.0823    9.8527   23.2828 C   0  0  0  0  0  0  0  0  0  0  0  0
    7.1413   11.4034   22.9417 C   0  0  0  0  0  0  0  0  0  0  0  0
    8.1619   11.1466   25.2239 C   0  0  0  0  0  0  0  0  0  0  0  0
    9.3919   11.9853   22.0009 C   0  0  0  0  0  0  0  0  0  0  0  0
   10.4113   11.7293   24.2817 C   0  0  0  0  0  0  0  0  0  0  0  0
    8.4713   13.2858   23.9423 C   0  0  0  0  0  0  0  0  0  0  0  0
    8.4191   10.8336   22.3027 C   0  0  1  0  0  0  0  0  0  0  0  0
    9.4420   10.5766   24.5903 C   0  0  2  0  0  0  0  0  0  0  0  0
    7.4786   12.1422   24.2579 C   0  0  0  0  0  0  0  0  0  0  0  0
    9.7619   12.7294   23.3010 C   0  0  0  0  0  0  0  0  0  0  0  0
   10.1108   17.6712   21.7747 C   0  0  0  0  0  0  0  0  0  0  0  0
   12.5844   17.6668   21.3385 C   0  0  0  0  0  0  0  0  0  0  0  0
   11.0468   16.3711   19.8335 C   0  0  0  0  0  0  0  0  0  0  0  0
    6.2034   12.7053   24.8915 C   0  0  0  0  0  0  0  0  0  0  0  0
   11.2948   16.8524   21.2623 C   0  0  0  0  0  0  0  0  0  0  0  0
   10.6820   13.8083   23.0139 N   0  0  0  0  0  0  0  0  0  0  0  0
    9.3351   15.0173   21.5630 O   0  0  0  0  0  0  0  0  0  0  0  0
    5.5390   11.6537   25.5641 O   0  0  0  0  0  0  0  0  0  0  0  0
   11.4569   15.7077   22.1073 O   0  0  0  0  0  0  0  0  0  0  0  0
    8.4043    9.0162   23.4920 H   0  0  0  0  0  0  0  0  0  0  0  0
    9.9855    9.4246   22.8308 H   0  0  0  0  0  0  0  0  0  0  0  0
    6.6504   12.0874   22.2374 H   0  0  0  0  0  0  0  0  0  0  0  0
    6.4317   10.5886   23.1352 H   0  0  0  0  0  0  0  0  0  0  0  0
    7.4761   10.3257   25.4703 H   0  0  0  0  0  0  0  0  0  0  0  0
    8.4092   11.6447   26.1702 H   0  0  0  0  0  0  0  0  0  0  0  0
   10.2939   11.5840   21.5207 H   0  0  0  0  0  0  0  0  0  0  0  0
    8.9301   12.6768   21.2841 H   0  0  0  0  0  0  0  0  0  0  0  0
   10.6873   12.2359   25.2157 H   0  0  0  0  0  0  0  0  0  0  0  0
   11.3373   11.3235   23.8537 H   0  0  0  0  0  0  0  0  0  0  0  0
    7.9994   14.0106   23.2650 H   0  0  0  0  0  0  0  0  0  0  0  0
    8.7148   13.8293   24.8656 H   0  0  0  0  0  0  0  0  0  0  0  0
    8.1653   10.3116   21.3733 H   0  0  0  0  0  0  0  0  0  0  0  0
    9.9148    9.8724   25.2840 H   0  0  0  0  0  0  0  0  0  0  0  0
    9.1831   17.0902   21.7216 H   0  0  0  0  0  0  0  0  0  0  0  0
   10.2609   17.9930   22.8104 H   0  0  0  0  0  0  0  0  0  0  0  0
    9.9537   18.5615   21.1550 H   0  0  0  0  0  0  0  0  0  0  0  0
   13.4366   17.0832   20.9719 H   0  0  0  0  0  0  0  0  0  0  0  0
   12.8167   17.9339   22.3758 H   0  0  0  0  0  0  0  0  0  0  0  0
   12.5161   18.5876   20.7503 H   0  0  0  0  0  0  0  0  0  0  0  0
   11.8959   15.7838   19.4657 H   0  0  0  0  0  0  0  0  0  0  0  0
   10.1449   15.7540   19.7666 H   0  0  0  0  0  0  0  0  0  0  0  0
   10.9390   17.2206   19.1493 H   0  0  0  0  0  0  0  0  0  0  0  0
    5.5556   13.1077   24.1154 H   0  0  0  0  0  0  0  0  0  0  0  0
    6.4619   13.4867   25.6031 H   0  0  0  0  0  0  0  0  0  0  0  0
   11.5937   13.7914   23.4583 H   0  0  0  0  0  0  0  0  0  0  0  0
    4.7332   12.0294   25.9595 H   0  0  0  0  0  0  0  0  0  0  0  0
  1 17  1  0  0  0  0
  1 18  2  0  0  0  0
  1 20  1  0  0  0  0
  2  8  1  0  0  0  0
  2  9  1  0  0  0  0
  3  8  1  0  0  0  0
  3 10  1  0  0  0  0
  4  9  1  0  0  0  0
  4 10  1  0  0  0  0
  5  8  1  0  0  0  0
  5 11  1  0  0  0  0
  6  9  1  0  0  0  0
  6 11  1  0  0  0  0
  7 10  1  0  0  0  0
  7 11  1  0  0  0  0
 10 15  1  0  0  0  0
 11 17  1  0  0  0  0
 12 16  1  0  0  0  0
 13 16  1  0  0  0  0
 14 16  1  0  0  0  0
 15 19  1  0  0  0  0
 16 20  1  0  0  0  0
  2 21  1  0  0  0  0
  2 22  1  0  0  0  0
  3 23  1  0  0  0  0
  3 24  1  0  0  0  0
  4 25  1  0  0  0  0
  4 26  1  0  0  0  0
  5 27  1  0  0  0  0
  5 28  1  0  0  0  0
  6 29  1  0  0  0  0
  6 30  1  0  0  0  0
  7 31  1  0  0  0  0
  7 32  1  0  0  0  0
  8 33  1  0  0  0  0
  9 34  1  0  0  0  0
 12 35  1  0  0  0  0
 12 36  1  0  0  0  0
 12 37  1  0  0  0  0
 13 38  1  0  0  0  0
 13 39  1  0  0  0  0
 13 40  1  0  0  0  0
 14 41  1  0  0  0  0
 14 42  1  0  0  0  0
 14 43  1  0  0  0  0
 15 44  1  0  0  0  0
 15 45  1  0  0  0  0
 17 46  1  0  0  0  0
 19 47  1  0  0  0  0
M  END
> <id>
EN300-7548556

> <smiles>
CC(C)(C)OC(=O)NC1(CC2CC3CC(CO)(C2)C1)C3

> <IUPAC Name>
tert-butyl N-[3-(hydroxymethyl)adamantan-1-yl]carbamate

> <CAS>
1334415-66-5

> <URL>
https://www.enaminestore.com/catalog/EN300-7548556

> <ROCS_ShapeQuery>
x0446_0A_x1080_0A_x0929_0A_x0812_0A_x0719_0A_x1140_0A_x0528_0A_x0310_0A

> <ROCS_TanimotoCombo>
0.419 

> <ROCS_ShapeTanimoto>
0.240 

> <ROCS_ColorTanimoto>
0.179 

> <ROCS_RefTversky>
0.218 

> <ROCS_RefColorTversky>
0.205 

> <ROCS_RefTverskyCombo>
0.423 

> <ROCS_FitTversky>
1.750 

> <ROCS_FitColorTversky>
0.578 

> <ROCS_FitTverskyCombo>
2.328 

> <ROCS_ColorScore>
-7.373

> <ROCS_Overlap>
2570.201

> <ROCS_Rank>
227                 

$$$$
untitled-dbase-523213_1
  -OEChem-02082415563D

 34 36  0     1  0  0  0  0  0999 V2000
    5.6598   11.2928   24.4713 C   0  0  0  0  0  0  0  0  0  0  0  0
    8.6134   13.7555   21.7984 C   0  0  0  0  0  0  0  0  0  0  0  0
    9.6113   10.2358   23.1121 C   0  0  0  0  0  0  0  0  0  0  0  0
    9.8923   11.9157   24.9745 C   0  0  0  0  0  0  0  0  0  0  0  0
    7.9147   10.3803   24.9496 C   0  0  0  0  0  0  0  0  0  0  0  0
    7.3396   11.1519   22.6335 C   0  0  0  0  0  0  0  0  0  0  0  0
    7.6239   12.8298   24.4885 C   0  0  0  0  0  0  0  0  0  0  0  0
    9.4118   10.4969   24.6169 C   0  0  0  0  0  0  0  0  0  0  0  0
    8.8395   11.2857   22.2797 C   0  0  1  0  0  0  0  0  0  0  0  0
    9.1250   12.9665   24.1386 C   0  0  2  0  0  0  0  0  0  0  0  0
    7.1185   11.4169   24.1355 C   0  0  0  0  0  0  0  0  0  0  0  0
    9.3384   12.7167   22.6201 C   0  0  0  0  0  0  0  0  0  0  0  0
   10.7392   12.9147   22.2331 N   0  0  0  0  0  0  0  0  0  0  0  0
    4.7753   11.0287   23.6705 O   0  0  0  0  0  0  0  0  0  0  0  0
    7.4677   13.6501   21.3865 O   0  0  0  0  0  0  0  0  0  0  0  0
    5.4518   11.5171   25.7918 O   0  0  0  0  0  0  0  0  0  0  0  0
    9.4096   14.8292   21.5736 O   0  0  0  0  0  0  0  0  0  0  0  0
   10.6787   10.2487   22.8652 H   0  0  0  0  0  0  0  0  0  0  0  0
    9.2524    9.2295   22.8609 H   0  0  0  0  0  0  0  0  0  0  0  0
    9.7279   12.1030   26.0434 H   0  0  0  0  0  0  0  0  0  0  0  0
   10.9729   11.9994   24.8160 H   0  0  0  0  0  0  0  0  0  0  0  0
    7.5596    9.3647   24.7300 H   0  0  0  0  0  0  0  0  0  0  0  0
    7.7563   10.5333   26.0253 H   0  0  0  0  0  0  0  0  0  0  0  0
    6.7371   11.8428   22.0306 H   0  0  0  0  0  0  0  0  0  0  0  0
    6.9886   10.1450   22.3695 H   0  0  0  0  0  0  0  0  0  0  0  0
    7.4765   13.0296   25.5586 H   0  0  0  0  0  0  0  0  0  0  0  0
    7.0332   13.5897   23.9618 H   0  0  0  0  0  0  0  0  0  0  0  0
    9.9752    9.7585   25.1981 H   0  0  0  0  0  0  0  0  0  0  0  0
    8.9698   11.0739   21.2109 H   0  0  0  0  0  0  0  0  0  0  0  0
    9.4624   13.9731   24.4165 H   0  0  0  0  0  0  0  0  0  0  0  0
   11.2500   13.1495   23.0487 H   0  0  0  0  0  0  0  0  0  0  0  0
   11.0682   12.0674   21.8393 H   0  0  0  0  0  0  0  0  0  0  0  0
    4.5034   11.4425   26.0312 H   0  0  0  0  0  0  0  0  0  0  0  0
    8.9566   15.5156   21.0389 H   0  0  0  0  0  0  0  0  0  0  0  0
  1 11  1  1  0  0  0
  1 14  2  0  0  0  0
  1 16  1  0  0  0  0
  2 12  1  0  0  0  0
  2 15  2  0  0  0  0
  2 17  1  0  0  0  0
  3  8  1  0  0  0  0
  3  9  1  0  0  0  0
  4  8  1  0  0  0  0
  4 10  1  0  0  0  0
  5  8  1  0  0  0  0
  5 11  1  0  0  0  0
  6  9  1  0  0  0  0
  6 11  1  0  0  0  0
  7 10  1  0  0  0  0
  7 11  1  0  0  0  0
  9 12  1  0  0  0  0
 10 12  1  0  0  0  0
 12 13  1  6  0  0  0
  3 18  1  0  0  0  0
  3 19  1  0  0  0  0
  4 20  1  0  0  0  0
  4 21  1  0  0  0  0
  5 22  1  0  0  0  0
  5 23  1  0  0  0  0
  6 24  1  0  0  0  0
  6 25  1  0  0  0  0
  7 26  1  0  0  0  0
  7 27  1  0  0  0  0
  8 28  1  0  0  0  0
  9 29  1  0  0  0  0
 10 30  1  0  0  0  0
 13 31  1  0  0  0  0
 13 32  1  0  0  0  0
 16 33  1  0  0  0  0
 17 34  1  0  0  0  0
M  END
> <id>
EN300-146951

> <smiles>
N[C@]1(C2CC3CC1C[C@](C3)(C2)C(=O)O)C(=O)O

> <IUPAC Name>
(1r,4s)-4-aminoadamantane-1,4-dicarboxylic acid

> <CAS>
1955523-10-0

> <URL>
https://www.enaminestore.com/catalog/EN300-146951

> <ROCS_ShapeQuery>
x0446_0A_x1080_0A_x0929_0A_x0812_0A_x0719_0A_x1140_0A_x0528_0A_x0310_0A

> <ROCS_TanimotoCombo>
0.419 

> <ROCS_ShapeTanimoto>
0.221 

> <ROCS_ColorTanimoto>
0.197 

> <ROCS_RefTversky>
0.202 

> <ROCS_RefColorTversky>
0.236 

> <ROCS_RefTverskyCombo>
0.438 

> <ROCS_FitTversky>
1.755 

> <ROCS_FitColorTversky>
0.546 

> <ROCS_FitTverskyCombo>
2.301 

> <ROCS_ColorScore>
-8.518

> <ROCS_Overlap>
2384.114

> <ROCS_Rank>
228                 

$$$$
untitled-dbase-14891_1
  -OEChem-02082415563D

 34 36  0     1  0  0  0  0  0999 V2000
    5.6598   11.2928   24.4713 C   0  0  0  0  0  0  0  0  0  0  0  0
    8.6134   13.7555   21.7984 C   0  0  0  0  0  0  0  0  0  0  0  0
    9.6113   10.2358   23.1121 C   0  0  0  0  0  0  0  0  0  0  0  0
    9.8923   11.9157   24.9745 C   0  0  0  0  0  0  0  0  0  0  0  0
    7.9147   10.3803   24.9496 C   0  0  0  0  0  0  0  0  0  0  0  0
    7.3396   11.1519   22.6335 C   0  0  0  0  0  0  0  0  0  0  0  0
    7.6239   12.8298   24.4885 C   0  0  0  0  0  0  0  0  0  0  0  0
    9.4118   10.4969   24.6169 C   0  0  0  0  0  0  0  0  0  0  0  0
    8.8395   11.2857   22.2797 C   0  0  1  0  0  0  0  0  0  0  0  0
    9.1250   12.9665   24.1386 C   0  0  2  0  0  0  0  0  0  0  0  0
    7.1185   11.4169   24.1355 C   0  0  0  0  0  0  0  0  0  0  0  0
    9.3384   12.7167   22.6201 C   0  0  0  0  0  0  0  0  0  0  0  0
   10.7392   12.9147   22.2331 N   0  0  0  0  0  0  0  0  0  0  0  0
    4.7753   11.0287   23.6705 O   0  0  0  0  0  0  0  0  0  0  0  0
    7.4677   13.6501   21.3865 O   0  0  0  0  0  0  0  0  0  0  0  0
    5.4518   11.5171   25.7918 O   0  0  0  0  0  0  0  0  0  0  0  0
    9.4096   14.8292   21.5736 O   0  0  0  0  0  0  0  0  0  0  0  0
   10.6787   10.2487   22.8652 H   0  0  0  0  0  0  0  0  0  0  0  0
    9.2524    9.2295   22.8609 H   0  0  0  0  0  0  0  0  0  0  0  0
    9.7279   12.1030   26.0434 H   0  0  0  0  0  0  0  0  0  0  0  0
   10.9729   11.9994   24.8160 H   0  0  0  0  0  0  0  0  0  0  0  0
    7.5596    9.3647   24.7300 H   0  0  0  0  0  0  0  0  0  0  0  0
    7.7563   10.5333   26.0253 H   0  0  0  0  0  0  0  0  0  0  0  0
    6.7371   11.8428   22.0306 H   0  0  0  0  0  0  0  0  0  0  0  0
    6.9886   10.1450   22.3695 H   0  0  0  0  0  0  0  0  0  0  0  0
    7.4765   13.0296   25.5586 H   0  0  0  0  0  0  0  0  0  0  0  0
    7.0332   13.5897   23.9618 H   0  0  0  0  0  0  0  0  0  0  0  0
    9.9752    9.7585   25.1981 H   0  0  0  0  0  0  0  0  0  0  0  0
    8.9698   11.0739   21.2109 H   0  0  0  0  0  0  0  0  0  0  0  0
    9.4624   13.9731   24.4165 H   0  0  0  0  0  0  0  0  0  0  0  0
   11.2500   13.1495   23.0487 H   0  0  0  0  0  0  0  0  0  0  0  0
   11.0682   12.0674   21.8393 H   0  0  0  0  0  0  0  0  0  0  0  0
    4.5034   11.4425   26.0312 H   0  0  0  0  0  0  0  0  0  0  0  0
    8.9566   15.5156   21.0389 H   0  0  0  0  0  0  0  0  0  0  0  0
  1 11  1  1  0  0  0
  1 14  2  0  0  0  0
  1 16  1  0  0  0  0
  2 12  1  0  0  0  0
  2 15  2  0  0  0  0
  2 17  1  0  0  0  0
  3  8  1  0  0  0  0
  3  9  1  0  0  0  0
  4  8  1  0  0  0  0
  4 10  1  0  0  0  0
  5  8  1  0  0  0  0
  5 11  1  0  0  0  0
  6  9  1  0  0  0  0
  6 11  1  0  0  0  0
  7 10  1  0  0  0  0
  7 11  1  0  0  0  0
  9 12  1  0  0  0  0
 10 12  1  0  0  0  0
 12 13  1  6  0  0  0
  3 18  1  0  0  0  0
  3 19  1  0  0  0  0
  4 20  1  0  0  0  0
  4 21  1  0  0  0  0
  5 22  1  0  0  0  0
  5 23  1  0  0  0  0
  6 24  1  0  0  0  0
  6 25  1  0  0  0  0
  7 26  1  0  0  0  0
  7 27  1  0  0  0  0
  8 28  1  0  0  0  0
  9 29  1  0  0  0  0
 10 30  1  0  0  0  0
 13 31  1  0  0  0  0
 13 32  1  0  0  0  0
 16 33  1  0  0  0  0
 17 34  1  0  0  0  0
M  END
> <id>
EN300-88781

> <smiles>
Cl.N[C@]1(C2CC3CC1C[C@](C3)(C2)C(=O)O)C(=O)O

> <IUPAC Name>
(1r,4s)-4-aminoadamantane-1,4-dicarboxylic acid hydrochloride

> <URL>
https://www.enaminestore.com/catalog/EN300-88781

> <Saltdate>
Cl

> <ROCS_ShapeQuery>
x0446_0A_x1080_0A_x0929_0A_x0812_0A_x0719_0A_x1140_0A_x0528_0A_x0310_0A

> <ROCS_TanimotoCombo>
0.419 

> <ROCS_ShapeTanimoto>
0.221 

> <ROCS_ColorTanimoto>
0.197 

> <ROCS_RefTversky>
0.202 

> <ROCS_RefColorTversky>
0.236 

> <ROCS_RefTverskyCombo>
0.438 

> <ROCS_FitTversky>
1.755 

> <ROCS_FitColorTversky>
0.546 

> <ROCS_FitTverskyCombo>
2.301 

> <ROCS_ColorScore>
-8.518

> <ROCS_Overlap>
2384.114

> <ROCS_Rank>
229                 

$$$$
untitled-dbase-271455_1
  -OEChem-02082415563D

 29 31  0     0  0  0  0  0  0999 V2000
   11.0609   14.8346   20.9087 C   0  0  0  0  0  0  0  0  0  0  0  0
   12.9241   15.3011   22.3743 C   0  0  0  0  0  0  0  0  0  0  0  0
   10.3409   14.3211   21.9873 C   0  0  0  0  0  0  0  0  0  0  0  0
   12.2040   14.7877   23.4530 C   0  0  0  0  0  0  0  0  0  0  0  0
    9.5213   10.4429   23.3095 C   0  0  0  0  0  0  0  0  0  0  0  0
    8.2257   12.3956   24.5584 C   0  0  0  0  0  0  0  0  0  0  0  0
   12.3526   15.3245   21.1021 C   0  0  0  0  0  0  0  0  0  0  0  0
   10.9125   14.2977   23.2595 C   0  0  0  0  0  0  0  0  0  0  0  0
    7.6725   11.1540   24.2988 C   0  0  0  0  0  0  0  0  0  0  0  0
    9.5324   12.6074   24.1316 C   0  0  0  0  0  0  0  0  0  0  0  0
    7.2034   13.0978   25.2236 C   0  0  0  0  0  0  0  0  0  0  0  0
   13.1034   15.8601   19.9777 C   0  0  0  0  0  0  0  0  0  0  0  0
    5.4300   10.1304   24.7764 C   0  0  0  0  0  0  0  0  0  0  0  0
    8.2617   10.1213   23.6755 N   0  0  0  0  0  0  0  0  0  0  0  0
   10.1879   11.6071   23.4953 N   0  0  0  0  0  0  0  0  0  0  0  0
    6.0921   12.3694   25.3769 N   0  0  0  0  0  0  0  0  0  0  0  0
    6.4073   11.1926   24.8047 N   0  0  0  0  0  0  0  0  0  0  0  0
   14.2484   16.3081   20.0840 O   0  0  0  0  0  0  0  0  0  0  0  0
   10.2005   13.7897   24.3267 O   0  0  0  0  0  0  0  0  0  0  0  0
    7.3440   14.8682   25.8431 Br  0  0  0  0  0  0  0  0  0  0  0  0
   10.6052   14.8480   19.9219 H   0  0  0  0  0  0  0  0  0  0  0  0
   13.9298   15.6807   22.5356 H   0  0  0  0  0  0  0  0  0  0  0  0
    9.3353   13.9408   21.8302 H   0  0  0  0  0  0  0  0  0  0  0  0
   12.6546   14.7717   24.4417 H   0  0  0  0  0  0  0  0  0  0  0  0
   10.0756    9.6631   22.7981 H   0  0  0  0  0  0  0  0  0  0  0  0
   12.6062   15.8580   18.9832 H   0  0  0  0  0  0  0  0  0  0  0  0
    5.5559    9.5319   25.6825 H   0  0  0  0  0  0  0  0  0  0  0  0
    4.4254   10.5608   24.7390 H   0  0  0  0  0  0  0  0  0  0  0  0
    5.5897    9.5160   23.8859 H   0  0  0  0  0  0  0  0  0  0  0  0
  1  3  2  0  0  0  0
  1  7  1  0  0  0  0
  2  4  1  0  0  0  0
  2  7  2  0  0  0  0
  3  8  1  0  0  0  0
  4  8  2  0  0  0  0
  5 14  2  0  0  0  0
  5 15  1  0  0  0  0
  6  9  2  0  0  0  0
  6 10  1  0  0  0  0
  6 11  1  0  0  0  0
  7 12  1  0  0  0  0
  8 19  1  0  0  0  0
  9 14  1  0  0  0  0
  9 17  1  0  0  0  0
 10 15  2  0  0  0  0
 10 19  1  0  0  0  0
 11 16  2  0  0  0  0
 11 20  1  0  0  0  0
 12 18  2  0  0  0  0
 13 17  1  0  0  0  0
 16 17  1  0  0  0  0
  1 21  1  0  0  0  0
  2 22  1  0  0  0  0
  3 23  1  0  0  0  0
  4 24  1  0  0  0  0
  5 25  1  0  0  0  0
 12 26  1  0  0  0  0
 13 27  1  0  0  0  0
 13 28  1  0  0  0  0
 13 29  1  0  0  0  0
M  END
> <id>
EN300-1180194

> <smiles>
CN1N=C(Br)C=2C(OC=3C=CC(C=O)=CC3)=NC=NC12

> <IUPAC Name>
4-({3-bromo-1-methyl-1H-pyrazolo[3,4-d]pyrimidin-4-yl}oxy)benzaldehyde

> <CAS>
1376362-20-7

> <URL>
https://www.enaminestore.com/catalog/EN300-1180194

> <ROCS_ShapeQuery>
x0446_0A_x1080_0A_x0929_0A_x0812_0A_x0719_0A_x1140_0A_x0528_0A_x0310_0A

> <ROCS_TanimotoCombo>
0.419 

> <ROCS_ShapeTanimoto>
0.235 

> <ROCS_ColorTanimoto>
0.184 

> <ROCS_RefTversky>
0.214 

> <ROCS_RefColorTversky>
0.201 

> <ROCS_RefTverskyCombo>
0.415 

> <ROCS_FitTversky>
1.685 

> <ROCS_FitColorTversky>
0.688 

> <ROCS_FitTverskyCombo>
2.373 

> <ROCS_ColorScore>
-7.184

> <ROCS_Overlap>
2529.989

> <ROCS_Rank>
230                 

$$$$
untitled-dbase-507576_8
  -OEChem-02082415563D

 39 42  0     1  0  0  0  0  0999 V2000
   13.0162   15.9166   22.7125 C   0  0  0  0  0  0  0  0  0  0  0  0
   11.6858   16.2994   22.8834 C   0  0  0  0  0  0  0  0  0  0  0  0
   13.3525   14.9808   21.7343 C   0  0  0  0  0  0  0  0  0  0  0  0
   10.6917   15.7462   22.0763 C   0  0  0  0  0  0  0  0  0  0  0  0
   12.3585   14.4277   20.9272 C   0  0  0  0  0  0  0  0  0  0  0  0
    6.6114   11.3942   25.8960 C   0  0  0  0  0  0  0  0  0  0  0  0
    5.5879   12.3309   25.8796 C   0  0  0  0  0  0  0  0  0  0  0  0
   11.0281   14.8104   21.0981 C   0  0  0  0  0  0  0  0  0  0  0  0
    7.5273   11.3551   24.8425 C   0  0  0  0  0  0  0  0  0  0  0  0
    7.3973   12.2901   23.7934 C   0  0  0  0  0  0  0  0  0  0  0  0
    5.5263   13.2036   24.8075 C   0  0  0  0  0  0  0  0  0  0  0  0
    8.3907   13.1991   21.7063 C   0  0  0  0  0  0  0  0  0  0  0  0
   10.4735   11.5821   23.9217 C   0  0  0  0  0  0  0  0  0  0  0  0
    9.8581   11.1006   25.2517 C   0  0  0  0  0  0  0  0  0  0  0  0
    8.8159    9.9388   23.4833 C   0  0  0  0  0  0  0  0  0  0  0  0
    9.4288   11.1903   22.8577 C   0  0  1  0  0  0  0  0  0  0  0  0
    9.9592   14.2148   20.2296 C   0  0  0  0  0  0  0  0  0  0  0  0
    6.4006   13.2069   23.7750 N   0  0  0  0  0  0  0  0  0  0  0  0
    8.6034   10.4229   24.8528 N   0  0  2  0  0  0  0  0  0  0  0  0
    8.3865   12.2501   22.7390 N   0  0  0  0  0  0  0  0  0  0  0  0
    7.5616   14.0939   21.5559 O   0  0  0  0  0  0  0  0  0  0  0  0
    9.4539   13.0299   20.8562 O   0  0  0  0  0  0  0  0  0  0  0  0
    4.2960   14.3961   24.7064 Cl  0  0  0  0  0  0  0  0  0  0  0  0
   13.7902   16.3484   23.3402 H   0  0  0  0  0  0  0  0  0  0  0  0
   11.4239   17.0288   23.6443 H   0  0  0  0  0  0  0  0  0  0  0  0
   14.3883   14.6834   21.6003 H   0  0  0  0  0  0  0  0  0  0  0  0
    9.6578   16.0503   22.2167 H   0  0  0  0  0  0  0  0  0  0  0  0
   12.6298   13.6991   20.1677 H   0  0  0  0  0  0  0  0  0  0  0  0
    6.6924   10.6979   26.7263 H   0  0  0  0  0  0  0  0  0  0  0  0
    4.8675   12.3685   26.6898 H   0  0  0  0  0  0  0  0  0  0  0  0
   10.6862   12.6560   23.9254 H   0  0  0  0  0  0  0  0  0  0  0  0
   11.4148   11.0518   23.7363 H   0  0  0  0  0  0  0  0  0  0  0  0
   10.5245   10.3745   25.7310 H   0  0  0  0  0  0  0  0  0  0  0  0
    9.7023   11.9247   25.9585 H   0  0  0  0  0  0  0  0  0  0  0  0
    7.8992    9.5954   22.9878 H   0  0  0  0  0  0  0  0  0  0  0  0
    9.5281    9.1043   23.4875 H   0  0  0  0  0  0  0  0  0  0  0  0
    9.8896   10.9836   21.8882 H   0  0  0  0  0  0  0  0  0  0  0  0
    9.1346   14.9208   20.0833 H   0  0  0  0  0  0  0  0  0  0  0  0
   10.3600   13.9567   19.2435 H   0  0  0  0  0  0  0  0  0  0  0  0
  1  2  1  0  0  0  0
  1  3  2  0  0  0  0
  2  4  2  0  0  0  0
  3  5  1  0  0  0  0
  4  8  1  0  0  0  0
  5  8  2  0  0  0  0
  6  7  2  0  0  0  0
  6  9  1  0  0  0  0
  7 11  1  0  0  0  0
  8 17  1  0  0  0  0
  9 10  2  0  0  0  0
  9 19  1  0  0  0  0
 10 18  1  0  0  0  0
 10 20  1  0  0  0  0
 11 18  2  0  0  0  0
 11 23  1  0  0  0  0
 12 20  1  0  0  0  0
 12 21  2  0  0  0  0
 12 22  1  0  0  0  0
 13 14  1  0  0  0  0
 13 16  1  1  0  0  0
 14 19  1  0  0  0  0
 15 16  1  0  0  0  0
 15 19  1  0  0  0  0
 16 20  1  0  0  0  0
 17 22  1  0  0  0  0
  1 24  1  0  0  0  0
  2 25  1  0  0  0  0
  3 26  1  0  0  0  0
  4 27  1  0  0  0  0
  5 28  1  0  0  0  0
  6 29  1  0  0  0  0
  7 30  1  0  0  0  0
 13 31  1  0  0  0  0
 13 32  1  0  0  0  0
 14 33  1  0  0  0  0
 14 34  1  0  0  0  0
 15 35  1  0  0  0  0
 15 36  1  0  0  0  0
 16 37  1  0  0  0  0
 17 38  1  0  0  0  0
 17 39  1  0  0  0  0
M  END
> <id>
EN300-28295448

> <smiles>
ClC=1C=CC=2N3CC[C@@H](C3)N(C(=O)OCC=4C=CC=CC4)C2N1

> <IUPAC Name>
benzyl (9S)-5-chloro-1,6,8-triazatricyclo[7.2.1.0,2,7]dodeca-2,4,6-triene-8-carboxylate

> <CAS>
2679809-27-7

> <URL>
https://www.enaminestore.com/catalog/EN300-28295448

> <ROCS_ShapeQuery>
x0446_0A_x1080_0A_x0929_0A_x0812_0A_x0719_0A_x1140_0A_x0528_0A_x0310_0A

> <ROCS_TanimotoCombo>
0.419 

> <ROCS_ShapeTanimoto>
0.239 

> <ROCS_ColorTanimoto>
0.179 

> <ROCS_RefTversky>
0.220 

> <ROCS_RefColorTversky>
0.200 

> <ROCS_RefTverskyCombo>
0.419 

> <ROCS_FitTversky>
1.592 

> <ROCS_FitColorTversky>
0.636 

> <ROCS_FitTverskyCombo>
2.228 

> <ROCS_ColorScore>
-7.150

> <ROCS_Overlap>
2597.764

> <ROCS_Rank>
231                 

$$$$
untitled-dbase-508369_8
  -OEChem-02082415563D

 39 42  0     1  0  0  0  0  0999 V2000
   13.0156   15.9182   22.7123 C   0  0  0  0  0  0  0  0  0  0  0  0
   11.6851   16.3005   22.8831 C   0  0  0  0  0  0  0  0  0  0  0  0
   13.3523   14.9824   21.7342 C   0  0  0  0  0  0  0  0  0  0  0  0
   10.6913   15.7468   22.0760 C   0  0  0  0  0  0  0  0  0  0  0  0
   12.3585   14.4287   20.9272 C   0  0  0  0  0  0  0  0  0  0  0  0
    6.6122   11.3937   25.8962 C   0  0  0  0  0  0  0  0  0  0  0  0
    5.5881   12.3300   25.8795 C   0  0  0  0  0  0  0  0  0  0  0  0
   11.0279   14.8109   21.0980 C   0  0  0  0  0  0  0  0  0  0  0  0
    7.5282   11.3548   24.8429 C   0  0  0  0  0  0  0  0  0  0  0  0
    7.3980   12.2896   23.7936 C   0  0  0  0  0  0  0  0  0  0  0  0
    5.5263   13.2024   24.8072 C   0  0  0  0  0  0  0  0  0  0  0  0
    8.3912   13.1987   21.7066 C   0  0  0  0  0  0  0  0  0  0  0  0
   10.4744   11.5828   23.9224 C   0  0  0  0  0  0  0  0  0  0  0  0
    9.8590   11.1013   25.2524 C   0  0  0  0  0  0  0  0  0  0  0  0
    8.8174    9.9389   23.4841 C   0  0  0  0  0  0  0  0  0  0  0  0
    9.4299   11.1904   22.8584 C   0  0  1  0  0  0  0  0  0  0  0  0
    9.9593   14.2148   20.2296 C   0  0  0  0  0  0  0  0  0  0  0  0
    6.4008   13.2060   23.7749 N   0  0  0  0  0  0  0  0  0  0  0  0
    8.6046   10.4231   24.8535 N   0  0  2  0  0  0  0  0  0  0  0  0
    8.3873   12.2499   22.7394 N   0  0  0  0  0  0  0  0  0  0  0  0
    7.5618   14.0932   21.5560 O   0  0  0  0  0  0  0  0  0  0  0  0
    9.4545   13.0298   20.8564 O   0  0  0  0  0  0  0  0  0  0  0  0
    4.2947   14.3935   24.7050 Cl  0  0  0  0  0  0  0  0  0  0  0  0
   13.7895   16.3504   23.3399 H   0  0  0  0  0  0  0  0  0  0  0  0
   11.4229   17.0300   23.6438 H   0  0  0  0  0  0  0  0  0  0  0  0
   14.3883   14.6854   21.6002 H   0  0  0  0  0  0  0  0  0  0  0  0
    9.6572   16.0505   22.2164 H   0  0  0  0  0  0  0  0  0  0  0  0
   12.6302   13.7002   20.1678 H   0  0  0  0  0  0  0  0  0  0  0  0
    6.6934   10.6974   26.7263 H   0  0  0  0  0  0  0  0  0  0  0  0
    4.8673   12.3670   26.6892 H   0  0  0  0  0  0  0  0  0  0  0  0
   10.6867   12.6568   23.9258 H   0  0  0  0  0  0  0  0  0  0  0  0
   11.4158   11.0525   23.7372 H   0  0  0  0  0  0  0  0  0  0  0  0
   10.5259   10.3758   25.7320 H   0  0  0  0  0  0  0  0  0  0  0  0
    9.7028   11.9256   25.9589 H   0  0  0  0  0  0  0  0  0  0  0  0
    7.9007    9.5950   22.9890 H   0  0  0  0  0  0  0  0  0  0  0  0
    9.5299    9.1046   23.4887 H   0  0  0  0  0  0  0  0  0  0  0  0
    9.8911   10.9838   21.8890 H   0  0  0  0  0  0  0  0  0  0  0  0
    9.1345   14.9204   20.0833 H   0  0  0  0  0  0  0  0  0  0  0  0
   10.3602   13.9566   19.2435 H   0  0  0  0  0  0  0  0  0  0  0  0
  1  2  1  0  0  0  0
  1  3  2  0  0  0  0
  2  4  2  0  0  0  0
  3  5  1  0  0  0  0
  4  8  1  0  0  0  0
  5  8  2  0  0  0  0
  6  7  2  0  0  0  0
  6  9  1  0  0  0  0
  7 11  1  0  0  0  0
  8 17  1  0  0  0  0
  9 10  2  0  0  0  0
  9 19  1  0  0  0  0
 10 18  1  0  0  0  0
 10 20  1  0  0  0  0
 11 18  2  0  0  0  0
 11 23  1  0  0  0  0
 12 20  1  0  0  0  0
 12 21  2  0  0  0  0
 12 22  1  0  0  0  0
 13 14  1  0  0  0  0
 13 16  1  0  0  0  0
 14 19  1  0  0  0  0
 15 16  1  0  0  0  0
 15 19  1  0  0  0  0
 16 20  1  0  0  0  0
 17 22  1  0  0  0  0
  1 24  1  0  0  0  0
  2 25  1  0  0  0  0
  3 26  1  0  0  0  0
  4 27  1  0  0  0  0
  5 28  1  0  0  0  0
  6 29  1  0  0  0  0
  7 30  1  0  0  0  0
 13 31  1  0  0  0  0
 13 32  1  0  0  0  0
 14 33  1  0  0  0  0
 14 34  1  0  0  0  0
 15 35  1  0  0  0  0
 15 36  1  0  0  0  0
 16 37  1  0  0  0  0
 17 38  1  0  0  0  0
 17 39  1  0  0  0  0
M  END
> <id>
EN300-28295444

> <smiles>
ClC=1C=CC=2N3CCC(C3)N(C(=O)OCC=4C=CC=CC4)C2N1

> <IUPAC Name>
benzyl 5-chloro-1,6,8-triazatricyclo[7.2.1.0,2,7]dodeca-2,4,6-triene-8-carboxylate

> <CAS>
2680798-12-1

> <URL>
https://www.enaminestore.com/catalog/EN300-28295444

> <ROCS_ShapeQuery>
x0446_0A_x1080_0A_x0929_0A_x0812_0A_x0719_0A_x1140_0A_x0528_0A_x0310_0A

> <ROCS_TanimotoCombo>
0.419 

> <ROCS_ShapeTanimoto>
0.239 

> <ROCS_ColorTanimoto>
0.179 

> <ROCS_RefTversky>
0.220 

> <ROCS_RefColorTversky>
0.200 

> <ROCS_RefTverskyCombo>
0.419 

> <ROCS_FitTversky>
1.592 

> <ROCS_FitColorTversky>
0.636 

> <ROCS_FitTverskyCombo>
2.228 

> <ROCS_ColorScore>
-7.149

> <ROCS_Overlap>
2597.740

> <ROCS_Rank>
232                 

$$$$
untitled-dbase-587031_7
  -OEChem-02082415563D

 39 42  0     0  0  0  0  0  0999 V2000
   11.7043    7.5153   22.2088 C   0  0  0  0  0  0  0  0  0  0  0  0
   12.8344   15.1424   22.7702 C   0  0  0  0  0  0  0  0  0  0  0  0
   11.4672   14.4244   20.9123 C   0  0  0  0  0  0  0  0  0  0  0  0
   13.6333   15.8807   21.8971 C   0  0  0  0  0  0  0  0  0  0  0  0
   12.2660   15.1627   20.0391 C   0  0  0  0  0  0  0  0  0  0  0  0
   10.4563    8.0866   22.5913 C   0  0  0  0  0  0  0  0  0  0  0  0
   12.7378    8.4216   22.2996 C   0  0  0  0  0  0  0  0  0  0  0  0
   11.7514   14.4142   22.2778 C   0  0  0  0  0  0  0  0  0  0  0  0
   13.3490   15.8909   20.5316 C   0  0  0  0  0  0  0  0  0  0  0  0
    9.4671   10.2577   23.4020 C   0  0  0  0  0  0  0  0  0  0  0  0
   10.5836    9.4079   22.9602 C   0  0  0  0  0  0  0  0  0  0  0  0
    9.3855   11.6189   23.2257 C   0  0  0  0  0  0  0  0  0  0  0  0
    7.6008   10.8230   24.2762 C   0  0  0  0  0  0  0  0  0  0  0  0
    6.3326   10.9584   24.9104 C   0  0  0  0  0  0  0  0  0  0  0  0
    5.7622   12.1743   25.0116 C   0  0  0  0  0  0  0  0  0  0  0  0
    7.6071   13.2460   23.8856 C   0  0  0  0  0  0  0  0  0  0  0  0
    6.4085   13.3756   24.4856 C   0  0  0  0  0  0  0  0  0  0  0  0
   10.9074   13.6347   23.1996 C   0  0  0  0  0  0  0  0  0  0  0  0
    5.6970   14.6804   24.6462 C   0  0  0  0  0  0  0  0  0  0  0  0
    8.3613    9.7710   24.0518 N   0  0  0  0  0  0  0  0  0  0  0  0
    8.1885   11.9849   23.7862 N   0  0  0  0  0  0  0  0  0  0  0  0
   10.2498   12.5038   22.6349 N   0  0  0  0  0  0  0  0  0  0  0  0
   10.7675   13.9770   24.3719 O   0  0  0  0  0  0  0  0  0  0  0  0
    4.5185   14.5154   25.2828 F   0  0  0  0  0  0  0  0  0  0  0  0
    6.4346   15.5519   25.3660 F   0  0  0  0  0  0  0  0  0  0  0  0
    5.4416   15.2493   23.4492 F   0  0  0  0  0  0  0  0  0  0  0  0
   12.2023    9.9542   22.8443 S   0  0  0  0  0  0  0  0  0  0  0  0
   14.3336   16.8028   19.4547 Cl  0  0  0  0  0  0  0  0  0  0  0  0
   11.8371    6.4914   21.8843 H   0  0  0  0  0  0  0  0  0  0  0  0
   13.0652   15.1410   23.8324 H   0  0  0  0  0  0  0  0  0  0  0  0
   10.6256   13.8609   20.5176 H   0  0  0  0  0  0  0  0  0  0  0  0
   14.4737   16.4440   22.2946 H   0  0  0  0  0  0  0  0  0  0  0  0
   12.0325   15.1610   18.9775 H   0  0  0  0  0  0  0  0  0  0  0  0
    9.5166    7.5479   22.5930 H   0  0  0  0  0  0  0  0  0  0  0  0
   13.7817    8.2572   22.0728 H   0  0  0  0  0  0  0  0  0  0  0  0
    5.8392   10.0779   25.3062 H   0  0  0  0  0  0  0  0  0  0  0  0
    4.7960   12.2824   25.4943 H   0  0  0  0  0  0  0  0  0  0  0  0
    8.1482   14.0889   23.4710 H   0  0  0  0  0  0  0  0  0  0  0  0
   10.4542   12.3246   21.6339 H   0  0  0  0  0  0  0  0  0  0  0  0
  1  6  1  0  0  0  0
  1  7  2  0  0  0  0
  2  4  2  0  0  0  0
  2  8  1  0  0  0  0
  3  5  1  0  0  0  0
  3  8  2  0  0  0  0
  4  9  1  0  0  0  0
  5  9  2  0  0  0  0
  6 11  2  0  0  0  0
  7 27  1  0  0  0  0
  8 18  1  0  0  0  0
  9 28  1  0  0  0  0
 10 11  1  0  0  0  0
 10 12  2  0  0  0  0
 10 20  1  0  0  0  0
 11 27  1  0  0  0  0
 12 21  1  0  0  0  0
 12 22  1  0  0  0  0
 13 14  1  0  0  0  0
 13 20  2  0  0  0  0
 13 21  1  0  0  0  0
 14 15  2  0  0  0  0
 15 17  1  0  0  0  0
 16 17  2  0  0  0  0
 16 21  1  0  0  0  0
 17 19  1  0  0  0  0
 18 22  1  0  0  0  0
 18 23  2  0  0  0  0
 19 24  1  0  0  0  0
 19 25  1  0  0  0  0
 19 26  1  0  0  0  0
  1 29  1  0  0  0  0
  2 30  1  0  0  0  0
  3 31  1  0  0  0  0
  4 32  1  0  0  0  0
  5 33  1  0  0  0  0
  6 34  1  0  0  0  0
  7 35  1  0  0  0  0
 14 36  1  0  0  0  0
 15 37  1  0  0  0  0
 16 38  1  0  0  0  0
 22 39  1  0  0  0  0
M  END
> <id>
EN300-28320320

> <smiles>
FC(F)(F)C=1C=CC2=NC(=C(NC(=O)C=3C=CC(Cl)=CC3)N2C1)C4=CC=CS4

> <IUPAC Name>
4-chloro-N-[2-(thiophen-2-yl)-6-(trifluoromethyl)imidazo[1,2-a]pyridin-3-yl]benzamide

> <CAS>
1072089-45-2

> <Purity>
95

> <URL>
https://www.enaminestore.com/catalog/EN300-28320320

> <ROCS_ShapeQuery>
x0446_0A_x1080_0A_x0929_0A_x0812_0A_x0719_0A_x1140_0A_x0528_0A_x0310_0A

> <ROCS_TanimotoCombo>
0.418 

> <ROCS_ShapeTanimoto>
0.266 

> <ROCS_ColorTanimoto>
0.152 

> <ROCS_RefTversky>
0.243 

> <ROCS_RefColorTversky>
0.167 

> <ROCS_RefTverskyCombo>
0.410 

> <ROCS_FitTversky>
1.554 

> <ROCS_FitColorTversky>
0.630 

> <ROCS_FitTverskyCombo>
2.184 

> <ROCS_ColorScore>
-5.976

> <ROCS_Overlap>
2875.418

> <ROCS_Rank>
233                 

$$$$
untitled-dbase-497623_4
  -OEChem-02082415563D

 27 28  0     1  0  0  0  0  0999 V2000
    9.8729   10.9878   24.7560 C   0  0  0  0  0  0  0  0  0  0  0  0
   10.1385   10.9424   23.4421 C   0  0  0  0  0  0  0  0  0  0  0  0
    6.6614   13.0048   24.7905 C   0  0  0  0  0  0  0  0  0  0  0  0
   10.3091   13.9858   23.0883 C   0  0  0  0  0  0  0  0  0  0  0  0
    7.9241   10.3523   23.6970 C   0  0  0  0  0  0  0  0  0  0  0  0
    8.3823   11.1868   24.9025 C   0  0  2  0  0  0  0  0  0  0  0  0
    8.8233   11.1044   22.7102 C   0  0  1  0  0  0  0  0  0  0  0  0
    8.0700   12.6335   24.4396 C   0  0  1  0  0  0  0  0  0  0  0  0
    8.2847   12.5497   22.8950 C   0  0  1  0  0  0  0  0  0  0  0  0
   11.0626   15.0465   22.3411 C   0  0  0  0  0  0  0  0  0  0  0  0
    9.1835   13.5566   22.3991 N   0  0  0  0  0  0  0  0  0  0  0  0
    5.8752   12.2873   25.3908 O   0  0  0  0  0  0  0  0  0  0  0  0
   10.6792   13.5751   24.1846 O   0  0  0  0  0  0  0  0  0  0  0  0
    6.3708   14.2525   24.3475 O   0  0  0  0  0  0  0  0  0  0  0  0
   10.4722   15.3480   21.1566 F   0  0  0  0  0  0  0  0  0  0  0  0
   12.3355   14.6662   22.0623 F   0  0  0  0  0  0  0  0  0  0  0  0
   11.1446   16.2046   23.0442 F   0  0  0  0  0  0  0  0  0  0  0  0
   10.5927   10.9505   25.5579 H   0  0  0  0  0  0  0  0  0  0  0  0
   11.1132   10.8591   22.9884 H   0  0  0  0  0  0  0  0  0  0  0  0
    8.1687    9.2857   23.7868 H   0  0  0  0  0  0  0  0  0  0  0  0
    6.8562   10.4508   23.4742 H   0  0  0  0  0  0  0  0  0  0  0  0
    7.9626   10.8709   25.8587 H   0  0  0  0  0  0  0  0  0  0  0  0
    8.8101   10.7149   21.6915 H   0  0  0  0  0  0  0  0  0  0  0  0
    8.7326   13.3628   24.9221 H   0  0  0  0  0  0  0  0  0  0  0  0
    7.3398   12.6738   22.3525 H   0  0  0  0  0  0  0  0  0  0  0  0
    8.9833   13.9776   21.4928 H   0  0  0  0  0  0  0  0  0  0  0  0
    5.4509   14.5139   24.5661 H   0  0  0  0  0  0  0  0  0  0  0  0
  1  2  2  0  0  0  0
  1  6  1  0  0  0  0
  2  7  1  0  0  0  0
  3  8  1  1  0  0  0
  3 12  2  0  0  0  0
  3 14  1  0  0  0  0
  4 10  1  0  0  0  0
  4 11  1  0  0  0  0
  4 13  2  0  0  0  0
  5  6  1  0  0  0  0
  5  7  1  0  0  0  0
  6  8  1  0  0  0  0
  7  9  1  0  0  0  0
  8  9  1  0  0  0  0
  9 11  1  6  0  0  0
 10 15  1  0  0  0  0
 10 16  1  0  0  0  0
 10 17  1  0  0  0  0
  1 18  1  0  0  0  0
  2 19  1  0  0  0  0
  5 20  1  0  0  0  0
  5 21  1  0  0  0  0
  6 22  1  0  0  0  0
  7 23  1  0  0  0  0
  8 24  1  0  0  0  0
  9 25  1  0  0  0  0
 11 26  1  0  0  0  0
 14 27  1  0  0  0  0
M  END
> <id>
EN300-28278330

> <smiles>
OC(=O)[C@@H]1[C@@H](NC(=O)C(F)(F)F)C2CC1C=C2 |&1:3,4,r|

> <IUPAC Name>
rac-(2R,3R)-3-(2,2,2-trifluoroacetamido)bicyclo[2.2.1]hept-5-ene-2-carboxylic acid

> <CAS>
2680521-34-8

> <URL>
https://www.enaminestore.com/catalog/EN300-28278330

> <ROCS_ShapeQuery>
x0446_0A_x1080_0A_x0929_0A_x0812_0A_x0719_0A_x1140_0A_x0528_0A_x0310_0A

> <ROCS_TanimotoCombo>
0.418 

> <ROCS_ShapeTanimoto>
0.238 

> <ROCS_ColorTanimoto>
0.180 

> <ROCS_RefTversky>
0.214 

> <ROCS_RefColorTversky>
0.207 

> <ROCS_RefTverskyCombo>
0.421 

> <ROCS_FitTversky>
1.866 

> <ROCS_FitColorTversky>
0.586 

> <ROCS_FitTverskyCombo>
2.452 

> <ROCS_ColorScore>
-7.423

> <ROCS_Overlap>
2529.135

> <ROCS_Rank>
234                 

$$$$
untitled-dbase-46972_2
  -OEChem-02082415563D

 30 32  0     0  0  0  0  0  0999 V2000
   12.8740   16.4624   21.7791 C   0  0  0  0  0  0  0  0  0  0  0  0
   13.4017   15.6123   22.7509 C   0  0  0  0  0  0  0  0  0  0  0  0
   11.6430   16.1707   21.1913 C   0  0  0  0  0  0  0  0  0  0  0  0
   12.6985   14.4705   23.1350 C   0  0  0  0  0  0  0  0  0  0  0  0
   10.9398   15.0289   21.5754 C   0  0  0  0  0  0  0  0  0  0  0  0
    7.5239   10.3705   24.5219 C   0  0  0  0  0  0  0  0  0  0  0  0
   11.4676   14.1788   22.5473 C   0  0  0  0  0  0  0  0  0  0  0  0
    7.6260   11.7582   24.3701 C   0  0  0  0  0  0  0  0  0  0  0  0
    8.8701   11.9625   23.8184 C   0  0  0  0  0  0  0  0  0  0  0  0
   11.4117   11.6516   22.7449 C   0  0  0  0  0  0  0  0  0  0  0  0
   10.7181   12.9616   22.9567 C   0  0  0  0  0  0  0  0  0  0  0  0
   10.7318   10.5562   23.1203 C   0  0  0  0  0  0  0  0  0  0  0  0
    6.6740   12.7749   24.7023 C   0  0  0  0  0  0  0  0  0  0  0  0
   11.2953    9.1753   22.9680 C   0  0  0  0  0  0  0  0  0  0  0  0
    8.6101    9.7231   24.1041 N   0  0  0  0  0  0  0  0  0  0  0  0
    9.5215   13.0992   23.4514 N   0  0  0  0  0  0  0  0  0  0  0  0
    9.4495   10.7026   23.6668 N   0  0  0  0  0  0  0  0  0  0  0  0
    6.8211   14.0045   24.5433 O   0  0  0  0  0  0  0  0  0  0  0  0
    5.5154   12.2792   25.2397 O   0  0  0  0  0  0  0  0  0  0  0  0
   10.5115    8.4362   22.1510 F   0  0  0  0  0  0  0  0  0  0  0  0
   12.5217    9.2293   22.4019 F   0  0  0  0  0  0  0  0  0  0  0  0
   13.4215   17.3513   21.4800 H   0  0  0  0  0  0  0  0  0  0  0  0
   14.3602   15.8395   23.2083 H   0  0  0  0  0  0  0  0  0  0  0  0
   11.2320   16.8327   20.4349 H   0  0  0  0  0  0  0  0  0  0  0  0
   13.1190   13.8150   23.8933 H   0  0  0  0  0  0  0  0  0  0  0  0
    9.9816   14.8115   21.1106 H   0  0  0  0  0  0  0  0  0  0  0  0
    6.7008    9.7947   24.9210 H   0  0  0  0  0  0  0  0  0  0  0  0
   12.4053   11.6230   22.3159 H   0  0  0  0  0  0  0  0  0  0  0  0
   11.3668    8.6879   23.9361 H   0  0  0  0  0  0  0  0  0  0  0  0
    4.8561   12.9681   25.4701 H   0  0  0  0  0  0  0  0  0  0  0  0
  1  2  1  0  0  0  0
  1  3  2  0  0  0  0
  2  4  2  0  0  0  0
  3  5  1  0  0  0  0
  4  7  1  0  0  0  0
  5  7  2  0  0  0  0
  6  8  1  0  0  0  0
  6 15  2  0  0  0  0
  7 11  1  0  0  0  0
  8  9  2  0  0  0  0
  8 13  1  0  0  0  0
  9 16  1  0  0  0  0
  9 17  1  0  0  0  0
 10 11  1  0  0  0  0
 10 12  2  0  0  0  0
 11 16  2  0  0  0  0
 12 14  1  0  0  0  0
 12 17  1  0  0  0  0
 13 18  2  0  0  0  0
 13 19  1  0  0  0  0
 14 20  1  0  0  0  0
 14 21  1  0  0  0  0
 15 17  1  0  0  0  0
  1 22  1  0  0  0  0
  2 23  1  0  0  0  0
  3 24  1  0  0  0  0
  4 25  1  0  0  0  0
  5 26  1  0  0  0  0
  6 27  1  0  0  0  0
 10 28  1  0  0  0  0
 14 29  1  0  0  0  0
 19 30  1  0  0  0  0
M  END
> <id>
EN300-227867

> <smiles>
OC(=O)C=1C=NN2C(=CC(=NC12)C=3C=CC=CC3)C(F)F

> <MDLNUMBER>
MFCD02253717

> <IUPAC Name>
7-(difluoromethyl)-5-phenylpyrazolo[1,5-a]pyrimidine-3-carboxylic acid

> <CAS>
438220-85-0

> <Purity>
95

> <URL>
https://www.enaminestore.com/catalog/EN300-227867

> <MP>
225-230

> <ROCS_ShapeQuery>
x0446_0A_x1080_0A_x0929_0A_x0812_0A_x0719_0A_x1140_0A_x0528_0A_x0310_0A

> <ROCS_TanimotoCombo>
0.418 

> <ROCS_ShapeTanimoto>
0.262 

> <ROCS_ColorTanimoto>
0.156 

> <ROCS_RefTversky>
0.235 

> <ROCS_RefColorTversky>
0.171 

> <ROCS_RefTverskyCombo>
0.406 

> <ROCS_FitTversky>
1.785 

> <ROCS_FitColorTversky>
0.644 

> <ROCS_FitTverskyCombo>
2.429 

> <ROCS_ColorScore>
-6.118

> <ROCS_Overlap>
2774.724

> <ROCS_Rank>
235                 

$$$$
untitled-dbase-500056_1
  -OEChem-02082415563D

 39 41  0     0  0  0  0  0  0999 V2000
   11.5412   13.6762   23.1138 C   0  0  0  0  0  0  0  0  0  0  0  0
    8.4762   15.0072   22.2944 C   0  0  0  0  0  0  0  0  0  0  0  0
    7.7143    9.6657   24.1673 C   0  0  0  0  0  0  0  0  0  0  0  0
    8.7654   10.6118   22.0998 C   0  0  0  0  0  0  0  0  0  0  0  0
   10.0259   10.6239   24.2758 C   0  0  0  0  0  0  0  0  0  0  0  0
    6.8682   11.8091   23.1891 C   0  0  0  0  0  0  0  0  0  0  0  0
    8.1317   11.8212   25.3701 C   0  0  0  0  0  0  0  0  0  0  0  0
    9.0362    9.8357   23.4005 C   0  0  0  0  0  0  0  0  0  0  0  0
    7.1249   11.0467   24.5010 C   0  0  0  0  0  0  0  0  0  0  0  0
    8.1928   12.0134   22.4213 C   0  0  0  0  0  0  0  0  0  0  0  0
    9.4557   12.0254   24.6011 C   0  0  0  0  0  0  0  0  0  0  0  0
    9.2123   12.8217   23.2819 C   0  0  0  0  0  0  0  0  0  0  0  0
   12.7311   13.7321   22.2141 C   0  0  0  0  0  0  0  0  0  0  0  0
    8.6987   14.2483   23.5672 C   0  0  0  0  0  0  0  0  0  0  0  0
   10.4771   12.9982   22.5719 N   0  0  0  0  0  0  0  0  0  0  0  0
   11.5918   14.2089   24.2163 O   0  0  0  0  0  0  0  0  0  0  0  0
    9.3107   15.2810   21.4450 O   0  0  0  0  0  0  0  0  0  0  0  0
    7.1685   15.3630   22.2099 O   0  0  0  0  0  0  0  0  0  0  0  0
    7.0018    9.0882   23.5655 H   0  0  0  0  0  0  0  0  0  0  0  0
    7.8851    9.0969   25.0895 H   0  0  0  0  0  0  0  0  0  0  0  0
    9.6780   10.6768   21.4991 H   0  0  0  0  0  0  0  0  0  0  0  0
    8.0448   10.0564   21.4854 H   0  0  0  0  0  0  0  0  0  0  0  0
   10.2145   10.0761   25.2076 H   0  0  0  0  0  0  0  0  0  0  0  0
   10.9938   10.7071   23.7682 H   0  0  0  0  0  0  0  0  0  0  0  0
    6.1649   11.2422   22.5654 H   0  0  0  0  0  0  0  0  0  0  0  0
    6.3792   12.7664   23.3959 H   0  0  0  0  0  0  0  0  0  0  0  0
    7.7051   12.7806   25.6811 H   0  0  0  0  0  0  0  0  0  0  0  0
    8.3255   11.2635   26.2956 H   0  0  0  0  0  0  0  0  0  0  0  0
    9.4532    8.8504   23.1645 H   0  0  0  0  0  0  0  0  0  0  0  0
    6.1834   10.9215   25.0474 H   0  0  0  0  0  0  0  0  0  0  0  0
    7.9860   12.5437   21.4835 H   0  0  0  0  0  0  0  0  0  0  0  0
   10.1628   12.5646   25.2437 H   0  0  0  0  0  0  0  0  0  0  0  0
   12.7194   14.6157   21.5559 H   0  0  0  0  0  0  0  0  0  0  0  0
   13.6782   13.7981   22.7732 H   0  0  0  0  0  0  0  0  0  0  0  0
   12.8526   12.8697   21.5393 H   0  0  0  0  0  0  0  0  0  0  0  0
    7.7611   14.1681   24.1117 H   0  0  0  0  0  0  0  0  0  0  0  0
    9.4430   14.7616   24.1711 H   0  0  0  0  0  0  0  0  0  0  0  0
   10.5723   12.6067   21.6476 H   0  0  0  0  0  0  0  0  0  0  0  0
    6.9781   15.8637   21.3880 H   0  0  0  0  0  0  0  0  0  0  0  0
  1 13  1  0  0  0  0
  1 15  1  0  0  0  0
  1 16  2  0  0  0  0
  2 14  1  0  0  0  0
  2 17  2  0  0  0  0
  2 18  1  0  0  0  0
  3  8  1  0  0  0  0
  3  9  1  0  0  0  0
  4  8  1  0  0  0  0
  4 10  1  0  0  0  0
  5  8  1  0  0  0  0
  5 11  1  0  0  0  0
  6  9  1  0  0  0  0
  6 10  1  0  0  0  0
  7  9  1  0  0  0  0
  7 11  1  0  0  0  0
 10 12  1  0  0  0  0
 11 12  1  0  0  0  0
 12 14  1  0  0  0  0
 12 15  1  0  0  0  0
  3 19  1  0  0  0  0
  3 20  1  0  0  0  0
  4 21  1  0  0  0  0
  4 22  1  0  0  0  0
  5 23  1  0  0  0  0
  5 24  1  0  0  0  0
  6 25  1  0  0  0  0
  6 26  1  0  0  0  0
  7 27  1  0  0  0  0
  7 28  1  0  0  0  0
  8 29  1  0  0  0  0
  9 30  1  0  0  0  0
 10 31  1  0  0  0  0
 11 32  1  0  0  0  0
 13 33  1  0  0  0  0
 13 34  1  0  0  0  0
 13 35  1  0  0  0  0
 14 36  1  0  0  0  0
 14 37  1  0  0  0  0
 15 38  1  0  0  0  0
 18 39  1  0  0  0  0
M  END
> <id>
EN300-28278983

> <smiles>
CC(=O)NC1(CC(=O)O)C2CC3CC(C2)CC1C3

> <IUPAC Name>
2-(2-acetamidoadamantan-2-yl)acetic acid

> <CAS>
2680673-80-5

> <URL>
https://www.enaminestore.com/catalog/EN300-28278983

> <ROCS_ShapeQuery>
x0446_0A_x1080_0A_x0929_0A_x0812_0A_x0719_0A_x1140_0A_x0528_0A_x0310_0A

> <ROCS_TanimotoCombo>
0.418 

> <ROCS_ShapeTanimoto>
0.238 

> <ROCS_ColorTanimoto>
0.180 

> <ROCS_RefTversky>
0.215 

> <ROCS_RefColorTversky>
0.207 

> <ROCS_RefTverskyCombo>
0.422 

> <ROCS_FitTversky>
1.828 

> <ROCS_FitColorTversky>
0.583 

> <ROCS_FitTverskyCombo>
2.411 

> <ROCS_ColorScore>
-7.428

> <ROCS_Overlap>
2536.419

> <ROCS_Rank>
236                 

$$$$
untitled-dbase-46143_0
  -OEChem-02082415563D

 38 41  0     1  0  0  0  0  0999 V2000
   10.5214   15.0400   22.0648 C   0  0  0  0  0  0  0  0  0  0  0  0
    9.1049   16.2027   21.0655 C   0  0  0  0  0  0  0  0  0  0  0  0
    6.5831   12.1380   25.7046 C   0  0  0  0  0  0  0  0  0  0  0  0
    9.3860   10.0564   23.1718 C   0  0  0  0  0  0  0  0  0  0  0  0
    7.0804   10.9481   23.5879 C   0  0  0  0  0  0  0  0  0  0  0  0
    8.8828   11.2736   25.3042 C   0  0  0  0  0  0  0  0  0  0  0  0
    8.5382   12.0054   21.8404 C   0  0  0  0  0  0  0  0  0  0  0  0
   10.3286   12.3451   23.5616 C   0  0  0  0  0  0  0  0  0  0  0  0
    8.0268   13.2397   23.9945 C   0  0  0  0  0  0  0  0  0  0  0  0
    8.1472   10.6783   22.5137 C   0  0  1  0  0  0  0  0  0  0  0  0
    9.9486   11.0136   24.2310 C   0  0  2  0  0  0  0  0  0  0  0  0
    7.6371   11.9041   24.6596 C   0  0  0  0  0  0  0  0  0  0  0  0
    9.0955   13.0238   22.8806 C   0  0  0  0  0  0  0  0  0  0  0  0
   10.3827   16.2052   21.3664 N   0  0  0  0  0  0  0  0  0  0  0  0
    8.5188   15.0824   21.5667 N   0  0  0  0  0  0  0  0  0  0  0  0
    9.4097   14.3167   22.2148 N   0  0  0  0  0  0  0  0  0  0  0  0
    6.1326   13.3509   27.7018 N   0  0  0  0  0  0  0  0  0  0  0  0
    7.0043   13.0139   26.6867 N   0  0  0  0  0  0  0  0  0  0  0  0
    5.4767   11.6077   25.6347 O   0  0  0  0  0  0  0  0  0  0  0  0
    8.2559   17.3717   20.2008 Cl  0  0  0  0  0  0  0  0  0  0  0  0
   11.4740   14.7260   22.4723 H   0  0  0  0  0  0  0  0  0  0  0  0
    9.1240    9.0963   23.6335 H   0  0  0  0  0  0  0  0  0  0  0  0
   10.1491    9.8459   22.4125 H   0  0  0  0  0  0  0  0  0  0  0  0
    6.1815   11.3751   23.1238 H   0  0  0  0  0  0  0  0  0  0  0  0
    6.7665   10.0013   24.0470 H   0  0  0  0  0  0  0  0  0  0  0  0
    8.6226   10.3324   25.8064 H   0  0  0  0  0  0  0  0  0  0  0  0
    9.2864   11.9338   26.0831 H   0  0  0  0  0  0  0  0  0  0  0  0
    9.2851   11.8207   21.0570 H   0  0  0  0  0  0  0  0  0  0  0  0
    7.6625   12.4343   21.3351 H   0  0  0  0  0  0  0  0  0  0  0  0
   10.7613   13.0247   24.3082 H   0  0  0  0  0  0  0  0  0  0  0  0
   11.1162   12.1724   22.8157 H   0  0  0  0  0  0  0  0  0  0  0  0
    7.1382   13.7213   23.5623 H   0  0  0  0  0  0  0  0  0  0  0  0
    8.4060   13.9433   24.7491 H   0  0  0  0  0  0  0  0  0  0  0  0
    7.7459    9.9904   21.7611 H   0  0  0  0  0  0  0  0  0  0  0  0
   10.8362   10.5684   24.6943 H   0  0  0  0  0  0  0  0  0  0  0  0
    6.6947   13.4893   28.5405 H   0  0  0  0  0  0  0  0  0  0  0  0
    5.5566   12.5298   27.8819 H   0  0  0  0  0  0  0  0  0  0  0  0
    7.9413   13.4037   26.6618 H   0  0  0  0  0  0  0  0  0  0  0  0
  1 14  2  0  0  0  0
  1 16  1  0  0  0  0
  2 14  1  0  0  0  0
  2 15  2  0  0  0  0
  2 20  1  0  0  0  0
  3 12  1  0  0  0  0
  3 18  1  0  0  0  0
  3 19  2  0  0  0  0
  4 10  1  0  0  0  0
  4 11  1  0  0  0  0
  5 10  1  0  0  0  0
  5 12  1  0  0  0  0
  6 11  1  0  0  0  0
  6 12  1  0  0  0  0
  7 10  1  0  0  0  0
  7 13  1  0  0  0  0
  8 11  1  0  0  0  0
  8 13  1  0  0  0  0
  9 12  1  0  0  0  0
  9 13  1  0  0  0  0
 13 16  1  0  0  0  0
 15 16  1  0  0  0  0
 17 18  1  0  0  0  0
  1 21  1  0  0  0  0
  4 22  1  0  0  0  0
  4 23  1  0  0  0  0
  5 24  1  0  0  0  0
  5 25  1  0  0  0  0
  6 26  1  0  0  0  0
  6 27  1  0  0  0  0
  7 28  1  0  0  0  0
  7 29  1  0  0  0  0
  8 30  1  0  0  0  0
  8 31  1  0  0  0  0
  9 32  1  0  0  0  0
  9 33  1  0  0  0  0
 10 34  1  0  0  0  0
 11 35  1  0  0  0  0
 17 36  1  0  0  0  0
 17 37  1  0  0  0  0
 18 38  1  0  0  0  0
M  END
> <id>
EN300-228835

> <smiles>
NNC(=O)C1(CC2CC3C1)CC(C2)(C3)N4C=NC(Cl)=N4

> <MDLNUMBER>
MFCD03423231

> <IUPAC Name>
3-(3-chloro-1H-1,2,4-triazol-1-yl)adamantane-1-carbohydrazide

> <CAS>
438220-66-7

> <Purity>
93

> <URL>
https://www.enaminestore.com/catalog/EN300-228835

> <ROCS_ShapeQuery>
x0446_0A_x1080_0A_x0929_0A_x0812_0A_x0719_0A_x1140_0A_x0528_0A_x0310_0A

> <ROCS_TanimotoCombo>
0.418 

> <ROCS_ShapeTanimoto>
0.229 

> <ROCS_ColorTanimoto>
0.189 

> <ROCS_RefTversky>
0.210 

> <ROCS_RefColorTversky>
0.221 

> <ROCS_RefTverskyCombo>
0.431 

> <ROCS_FitTversky>
1.660 

> <ROCS_FitColorTversky>
0.567 

> <ROCS_FitTverskyCombo>
2.227 

> <ROCS_ColorScore>
-7.936

> <ROCS_Overlap>
2482.419

> <ROCS_Rank>
237                 

$$$$
untitled-dbase-510904_3
  -OEChem-02082415563D

 47 50  0     1  0  0  0  0  0999 V2000
    3.2146   11.2741   18.1847 C   0  0  0  0  0  0  0  0  0  0  0  0
    4.0207   12.4108   18.2443 C   0  0  0  0  0  0  0  0  0  0  0  0
    2.8481   10.6166   19.3590 C   0  0  0  0  0  0  0  0  0  0  0  0
   11.8700   15.1798   20.6877 C   0  0  0  0  0  0  0  0  0  0  0  0
   11.2107   14.0663   21.1963 C   0  0  0  0  0  0  0  0  0  0  0  0
    4.4605   12.8900   19.4782 C   0  0  0  0  0  0  0  0  0  0  0  0
    3.2879   11.0957   20.5930 C   0  0  0  0  0  0  0  0  0  0  0  0
   12.3126   16.1377   21.5856 C   0  0  0  0  0  0  0  0  0  0  0  0
   11.4978   14.9594   23.3817 C   0  0  0  0  0  0  0  0  0  0  0  0
   11.0169   13.9464   22.5679 C   0  0  0  0  0  0  0  0  0  0  0  0
    4.0941   12.2324   20.6526 C   0  0  0  0  0  0  0  0  0  0  0  0
    6.3810   12.5008   23.4934 C   0  0  0  0  0  0  0  0  0  0  0  0
    9.0402   10.5795   25.0013 C   0  0  0  0  0  0  0  0  0  0  0  0
    8.9339    9.9765   23.5872 C   0  0  0  0  0  0  0  0  0  0  0  0
    9.5200   13.0424   24.4876 C   0  0  0  0  0  0  0  0  0  0  0  0
    9.3580   12.0286   22.1177 C   0  0  0  0  0  0  0  0  0  0  0  0
    8.4577   11.9902   24.8702 C   0  0  1  0  0  0  0  0  0  0  0  0
    8.3048   11.0840   22.7366 C   0  0  2  0  0  0  0  0  0  0  0  0
   10.2937   12.7295   23.1609 C   0  0  0  0  0  0  0  0  0  0  0  0
    4.5671   12.7472   21.9803 C   0  0  0  0  0  0  0  0  0  0  0  0
   12.1429   16.0559   22.9243 N   0  0  0  0  0  0  0  0  0  0  0  0
    7.5802   11.8559   23.7227 N   0  0  0  0  0  0  0  0  0  0  0  0
    5.8739   13.3112   24.2655 O   0  0  0  0  0  0  0  0  0  0  0  0
   11.3375   11.7928   23.4795 O   0  0  0  0  0  0  0  0  0  0  0  0
    5.8181   12.1296   22.3023 O   0  0  0  0  0  0  0  0  0  0  0  0
    2.8711   10.9019   17.2239 H   0  0  0  0  0  0  0  0  0  0  0  0
    4.3053   12.9236   17.3301 H   0  0  0  0  0  0  0  0  0  0  0  0
    2.2196    9.7322   19.3130 H   0  0  0  0  0  0  0  0  0  0  0  0
   12.0325   15.2941   19.6220 H   0  0  0  0  0  0  0  0  0  0  0  0
   10.8519   13.2976   20.5172 H   0  0  0  0  0  0  0  0  0  0  0  0
    5.0885   13.7763   19.5151 H   0  0  0  0  0  0  0  0  0  0  0  0
    2.9975   10.5769   21.5027 H   0  0  0  0  0  0  0  0  0  0  0  0
   12.8321   17.0250   21.2389 H   0  0  0  0  0  0  0  0  0  0  0  0
   11.3761   14.9208   24.4598 H   0  0  0  0  0  0  0  0  0  0  0  0
    8.4327    9.9829   25.6923 H   0  0  0  0  0  0  0  0  0  0  0  0
   10.0676   10.5726   25.3773 H   0  0  0  0  0  0  0  0  0  0  0  0
    9.9039    9.6425   23.2067 H   0  0  0  0  0  0  0  0  0  0  0  0
    8.2736    9.1017   23.6192 H   0  0  0  0  0  0  0  0  0  0  0  0
    9.0110   14.0119   24.3932 H   0  0  0  0  0  0  0  0  0  0  0  0
   10.2354   13.1419   25.3144 H   0  0  0  0  0  0  0  0  0  0  0  0
    9.9639   11.4626   21.3983 H   0  0  0  0  0  0  0  0  0  0  0  0
    8.8192   12.7940   21.5416 H   0  0  0  0  0  0  0  0  0  0  0  0
    7.9184   12.3007   25.7700 H   0  0  0  0  0  0  0  0  0  0  0  0
    7.6412   10.6903   21.9604 H   0  0  0  0  0  0  0  0  0  0  0  0
    4.7017   13.8339   21.9538 H   0  0  0  0  0  0  0  0  0  0  0  0
    3.8400   12.5173   22.7666 H   0  0  0  0  0  0  0  0  0  0  0  0
   11.9173   12.2354   24.1176 H   0  0  0  0  0  0  0  0  0  0  0  0
  1  2  1  0  0  0  0
  1  3  2  0  0  0  0
  2  6  2  0  0  0  0
  3  7  1  0  0  0  0
  4  5  2  0  0  0  0
  4  8  1  0  0  0  0
  5 10  1  0  0  0  0
  6 11  1  0  0  0  0
  7 11  2  0  0  0  0
  8 21  2  0  0  0  0
  9 10  2  0  0  0  0
  9 21  1  0  0  0  0
 10 19  1  6  0  0  0
 11 20  1  0  0  0  0
 12 22  1  0  0  0  0
 12 23  2  0  0  0  0
 12 25  1  0  0  0  0
 13 14  1  0  0  0  0
 13 17  1  0  0  0  0
 14 18  1  0  0  0  0
 15 17  1  0  0  0  0
 15 19  1  0  0  0  0
 16 18  1  0  0  0  0
 16 19  1  0  0  0  0
 17 22  1  6  0  0  0
 18 22  1  6  0  0  0
 19 24  1  1  0  0  0
 20 25  1  0  0  0  0
  1 26  1  0  0  0  0
  2 27  1  0  0  0  0
  3 28  1  0  0  0  0
  4 29  1  0  0  0  0
  5 30  1  0  0  0  0
  6 31  1  0  0  0  0
  7 32  1  0  0  0  0
  8 33  1  0  0  0  0
  9 34  1  0  0  0  0
 13 35  1  0  0  0  0
 13 36  1  0  0  0  0
 14 37  1  0  0  0  0
 14 38  1  0  0  0  0
 15 39  1  0  0  0  0
 15 40  1  0  0  0  0
 16 41  1  0  0  0  0
 16 42  1  0  0  0  0
 17 43  1  0  0  0  0
 18 44  1  0  0  0  0
 20 45  1  0  0  0  0
 20 46  1  0  0  0  0
 24 47  1  0  0  0  0
M  END
> <id>
EN300-28296762

> <smiles>
O[C@@]1(C[C@@H]2CC[C@H](C1)N2C(=O)OCC=3C=CC=CC3)C=4C=CC=NC4

> <IUPAC Name>
benzyl (1R,3S,5S)-3-hydroxy-3-(pyridin-3-yl)-8-azabicyclo[3.2.1]octane-8-carboxylate

> <CAS>
2679816-68-1

> <URL>
https://www.enaminestore.com/catalog/EN300-28296762

> <ROCS_ShapeQuery>
x0446_0A_x1080_0A_x0929_0A_x0812_0A_x0719_0A_x1140_0A_x0528_0A_x0310_0A

> <ROCS_TanimotoCombo>
0.418 

> <ROCS_ShapeTanimoto>
0.243 

> <ROCS_ColorTanimoto>
0.175 

> <ROCS_RefTversky>
0.224 

> <ROCS_RefColorTversky>
0.203 

> <ROCS_RefTverskyCombo>
0.427 

> <ROCS_FitTversky>
1.550 

> <ROCS_FitColorTversky>
0.559 

> <ROCS_FitTverskyCombo>
2.108 

> <ROCS_ColorScore>
-7.302

> <ROCS_Overlap>
2645.030

> <ROCS_Rank>
238                 

$$$$
untitled-dbase-391749_9
  -OEChem-02082415563D

 42 43  0     1  0  0  0  0  0999 V2000
    6.4583   12.7420   24.7195 C   0  0  0  0  0  0  0  0  0  0  0  0
   11.4589   13.3992   23.1433 C   0  0  0  0  0  0  0  0  0  0  0  0
    8.0460    9.6906   22.9615 C   0  0  0  0  0  0  0  0  0  0  0  0
    6.9673   10.6555   23.4629 C   0  0  0  0  0  0  0  0  0  0  0  0
    8.5030   11.4222   25.3483 C   0  0  0  0  0  0  0  0  0  0  0  0
    9.2730   10.4135   22.3929 C   0  0  0  0  0  0  0  0  0  0  0  0
    9.8955   11.3142   24.7024 C   0  0  0  0  0  0  0  0  0  0  0  0
    8.5014   12.6255   23.2790 C   0  0  0  0  0  0  0  0  0  0  0  0
    7.5601   11.8613   24.2135 C   0  0  2  0  0  0  0  0  0  0  0  0
    9.6837   11.6555   23.2150 C   0  0  2  0  0  0  0  0  0  0  0  0
   12.4019   16.0796   22.8679 C   0  0  0  0  0  0  0  0  0  0  0  0
   13.7824   15.2014   20.9621 C   0  0  0  0  0  0  0  0  0  0  0  0
   11.2759   15.0929   20.8448 C   0  0  0  0  0  0  0  0  0  0  0  0
   12.4946   15.0271   21.7642 C   0  0  0  0  0  0  0  0  0  0  0  0
   10.8510   12.2687   22.6344 N   0  0  0  0  0  0  0  0  0  0  0  0
    6.3014   13.9150   24.4148 O   0  0  0  0  0  0  0  0  0  0  0  0
   11.0952   14.0203   24.1366 O   0  0  0  0  0  0  0  0  0  0  0  0
    5.6527   12.0599   25.5698 O   0  0  0  0  0  0  0  0  0  0  0  0
   12.5373   13.7314   22.3725 O   0  0  0  0  0  0  0  0  0  0  0  0
    8.3650    9.0482   23.7916 H   0  0  0  0  0  0  0  0  0  0  0  0
    7.6247    9.0173   22.2061 H   0  0  0  0  0  0  0  0  0  0  0  0
    6.3812   11.0124   22.6055 H   0  0  0  0  0  0  0  0  0  0  0  0
    6.2633   10.1101   24.1041 H   0  0  0  0  0  0  0  0  0  0  0  0
    8.1961   10.4729   25.8010 H   0  0  0  0  0  0  0  0  0  0  0  0
    8.5326   12.1626   26.1576 H   0  0  0  0  0  0  0  0  0  0  0  0
   10.1047    9.7002   22.3339 H   0  0  0  0  0  0  0  0  0  0  0  0
    9.0475   10.7213   21.3631 H   0  0  0  0  0  0  0  0  0  0  0  0
   10.5618   12.0418   25.1835 H   0  0  0  0  0  0  0  0  0  0  0  0
   10.3373   10.3227   24.8481 H   0  0  0  0  0  0  0  0  0  0  0  0
    8.0566   12.8256   22.2970 H   0  0  0  0  0  0  0  0  0  0  0  0
    8.7900   13.5911   23.7163 H   0  0  0  0  0  0  0  0  0  0  0  0
   11.4789   15.9579   23.4460 H   0  0  0  0  0  0  0  0  0  0  0  0
   13.2527   16.0201   23.5546 H   0  0  0  0  0  0  0  0  0  0  0  0
   12.3699   17.0896   22.4434 H   0  0  0  0  0  0  0  0  0  0  0  0
   13.8531   14.4482   20.1690 H   0  0  0  0  0  0  0  0  0  0  0  0
   14.6620   15.0607   21.6006 H   0  0  0  0  0  0  0  0  0  0  0  0
   13.8418   16.1939   20.5039 H   0  0  0  0  0  0  0  0  0  0  0  0
   11.3421   14.3379   20.0530 H   0  0  0  0  0  0  0  0  0  0  0  0
   10.3445   14.9330   21.3977 H   0  0  0  0  0  0  0  0  0  0  0  0
   11.2196   16.0648   20.3414 H   0  0  0  0  0  0  0  0  0  0  0  0
   11.2505   11.8443   21.8013 H   0  0  0  0  0  0  0  0  0  0  0  0
    4.9250   12.6206   25.9141 H   0  0  0  0  0  0  0  0  0  0  0  0
  1  9  1  0  0  0  0
  1 16  2  0  0  0  0
  1 18  1  0  0  0  0
  2 15  1  0  0  0  0
  2 17  2  0  0  0  0
  2 19  1  0  0  0  0
  3  4  1  0  0  0  0
  3  6  1  0  0  0  0
  4  9  1  0  0  0  0
  5  7  1  0  0  0  0
  5  9  1  0  0  0  0
  6 10  1  0  0  0  0
  7 10  1  0  0  0  0
  8  9  1  0  0  0  0
  8 10  1  0  0  0  0
 10 15  1  0  0  0  0
 11 14  1  0  0  0  0
 12 14  1  0  0  0  0
 13 14  1  0  0  0  0
 14 19  1  0  0  0  0
  3 20  1  0  0  0  0
  3 21  1  0  0  0  0
  4 22  1  0  0  0  0
  4 23  1  0  0  0  0
  5 24  1  0  0  0  0
  5 25  1  0  0  0  0
  6 26  1  0  0  0  0
  6 27  1  0  0  0  0
  7 28  1  0  0  0  0
  7 29  1  0  0  0  0
  8 30  1  0  0  0  0
  8 31  1  0  0  0  0
 11 32  1  0  0  0  0
 11 33  1  0  0  0  0
 11 34  1  0  0  0  0
 12 35  1  0  0  0  0
 12 36  1  0  0  0  0
 12 37  1  0  0  0  0
 13 38  1  0  0  0  0
 13 39  1  0  0  0  0
 13 40  1  0  0  0  0
 15 41  1  0  0  0  0
 18 42  1  0  0  0  0
M  END
> <id>
EN300-88110

> <smiles>
CC(C)(C)OC(=O)NC1(CCC2(C1)C(=O)O)CCC2

> <MDLNUMBER>
MFCD13806408

> <IUPAC Name>
5-{[(tert-butoxy)carbonyl]amino}bicyclo[3.2.1]octane-1-carboxylic acid

> <CAS>
1049874-51-2

> <Purity>
95

> <URL>
https://www.enaminestore.com/catalog/EN300-88110

> <ROCS_ShapeQuery>
x0446_0A_x1080_0A_x0929_0A_x0812_0A_x0719_0A_x1140_0A_x0528_0A_x0310_0A

> <ROCS_TanimotoCombo>
0.418 

> <ROCS_ShapeTanimoto>
0.235 

> <ROCS_ColorTanimoto>
0.183 

> <ROCS_RefTversky>
0.213 

> <ROCS_RefColorTversky>
0.211 

> <ROCS_RefTverskyCombo>
0.424 

> <ROCS_FitTversky>
1.775 

> <ROCS_FitColorTversky>
0.579 

> <ROCS_FitTverskyCombo>
2.355 

> <ROCS_ColorScore>
-7.574

> <ROCS_Overlap>
2519.369

> <ROCS_Rank>
239                 

$$$$
untitled-dbase-45173_0
  -OEChem-02082415563D

 40 42  0     0  0  0  0  0  0999 V2000
   13.5829   15.3154   21.6219 C   0  0  0  0  0  0  0  0  0  0  0  0
   12.9452   16.5102   21.2881 C   0  0  0  0  0  0  0  0  0  0  0  0
   12.8281   14.1979   21.9784 C   0  0  0  0  0  0  0  0  0  0  0  0
   11.5527   16.5876   21.3111 C   0  0  0  0  0  0  0  0  0  0  0  0
   10.7824   11.9366   21.6282 C   0  0  0  0  0  0  0  0  0  0  0  0
    9.2134   10.9528   23.1333 C   0  0  0  0  0  0  0  0  0  0  0  0
   11.4355   14.2753   22.0013 C   0  0  0  0  0  0  0  0  0  0  0  0
   10.0370   10.8205   22.0084 C   0  0  0  0  0  0  0  0  0  0  0  0
   10.7978   15.4701   21.6676 C   0  0  0  0  0  0  0  0  0  0  0  0
   10.6715   13.1056   22.3738 C   0  0  0  0  0  0  0  0  0  0  0  0
    8.3164   10.1567   23.8730 C   0  0  0  0  0  0  0  0  0  0  0  0
    9.1966   12.1756   23.7858 C   0  0  0  0  0  0  0  0  0  0  0  0
    7.0268   14.0657   25.2503 C   0  0  0  0  0  0  0  0  0  0  0  0
    7.9405    8.7524   23.6311 C   0  0  0  0  0  0  0  0  0  0  0  0
    8.7517   15.2619   20.4736 C   0  0  0  0  0  0  0  0  0  0  0  0
    7.9755   13.0378   25.8034 C   0  0  0  0  0  0  0  0  0  0  0  0
   10.1492    9.5620   21.2137 C   0  0  0  0  0  0  0  0  0  0  0  0
    9.8903   13.2822   23.4669 N   0  0  0  0  0  0  0  0  0  0  0  0
    7.7741   10.8103   24.9058 N   0  0  0  0  0  0  0  0  0  0  0  0
    8.3277   12.0340   24.8272 N   0  0  0  0  0  0  0  0  0  0  0  0
    6.5739   14.0979   24.1159 O   0  0  0  0  0  0  0  0  0  0  0  0
    6.7317   14.9845   26.2056 O   0  0  0  0  0  0  0  0  0  0  0  0
    9.4382   15.5746   21.6832 O   0  0  0  0  0  0  0  0  0  0  0  0
   11.0099    9.6575   20.1579 F   0  0  0  0  0  0  0  0  0  0  0  0
   10.5935    8.4953   21.9411 F   0  0  0  0  0  0  0  0  0  0  0  0
    8.9558    9.1712   20.6802 F   0  0  0  0  0  0  0  0  0  0  0  0
   14.6671   15.2554   21.6037 H   0  0  0  0  0  0  0  0  0  0  0  0
   13.5330   17.3803   21.0106 H   0  0  0  0  0  0  0  0  0  0  0  0
   13.3408   13.2741   22.2360 H   0  0  0  0  0  0  0  0  0  0  0  0
   11.0629   17.5219   21.0499 H   0  0  0  0  0  0  0  0  0  0  0  0
   11.4388   11.8865   20.7633 H   0  0  0  0  0  0  0  0  0  0  0  0
    8.6115    8.0610   24.1684 H   0  0  0  0  0  0  0  0  0  0  0  0
    6.9081    8.5358   23.9575 H   0  0  0  0  0  0  0  0  0  0  0  0
    7.9804    8.4898   22.5591 H   0  0  0  0  0  0  0  0  0  0  0  0
    7.6761   15.3854   20.6218 H   0  0  0  0  0  0  0  0  0  0  0  0
    8.9744   14.2322   20.1828 H   0  0  0  0  0  0  0  0  0  0  0  0
    9.0892   15.9415   19.6875 H   0  0  0  0  0  0  0  0  0  0  0  0
    8.8993   13.5256   26.1317 H   0  0  0  0  0  0  0  0  0  0  0  0
    7.5145   12.5284   26.6560 H   0  0  0  0  0  0  0  0  0  0  0  0
    6.1148   15.6714   25.8742 H   0  0  0  0  0  0  0  0  0  0  0  0
  1  2  1  0  0  0  0
  1  3  2  0  0  0  0
  2  4  2  0  0  0  0
  3  7  1  0  0  0  0
  4  9  1  0  0  0  0
  5  8  2  0  0  0  0
  5 10  1  0  0  0  0
  6  8  1  0  0  0  0
  6 11  1  0  0  0  0
  6 12  2  0  0  0  0
  7  9  2  0  0  0  0
  7 10  1  0  0  0  0
  8 17  1  0  0  0  0
  9 23  1  0  0  0  0
 10 18  2  0  0  0  0
 11 14  1  0  0  0  0
 11 19  2  0  0  0  0
 12 18  1  0  0  0  0
 12 20  1  0  0  0  0
 13 16  1  0  0  0  0
 13 21  2  0  0  0  0
 13 22  1  0  0  0  0
 15 23  1  0  0  0  0
 16 20  1  0  0  0  0
 17 24  1  0  0  0  0
 17 25  1  0  0  0  0
 17 26  1  0  0  0  0
 19 20  1  0  0  0  0
  1 27  1  0  0  0  0
  2 28  1  0  0  0  0
  3 29  1  0  0  0  0
  4 30  1  0  0  0  0
  5 31  1  0  0  0  0
 14 32  1  0  0  0  0
 14 33  1  0  0  0  0
 14 34  1  0  0  0  0
 15 35  1  0  0  0  0
 15 36  1  0  0  0  0
 15 37  1  0  0  0  0
 16 38  1  0  0  0  0
 16 39  1  0  0  0  0
 22 40  1  0  0  0  0
M  END
> <id>
EN300-231050

> <smiles>
COC=1C=CC=CC1C=2C=C(C=3C(C)=NN(CC(=O)O)C3N2)C(F)(F)F

> <MDLNUMBER>
MFCD08697656

> <IUPAC Name>
2-[6-(2-methoxyphenyl)-3-methyl-4-(trifluoromethyl)-1H-pyrazolo[3,4-b]pyridin-1-yl]acetic acid

> <CAS>
937605-90-8

> <Purity>
95

> <URL>
https://www.enaminestore.com/catalog/EN300-231050

> <ROCS_ShapeQuery>
x0446_0A_x1080_0A_x0929_0A_x0812_0A_x0719_0A_x1140_0A_x0528_0A_x0310_0A

> <ROCS_TanimotoCombo>
0.418 

> <ROCS_ShapeTanimoto>
0.264 

> <ROCS_ColorTanimoto>
0.154 

> <ROCS_RefTversky>
0.240 

> <ROCS_RefColorTversky>
0.172 

> <ROCS_RefTverskyCombo>
0.413 

> <ROCS_FitTversky>
1.601 

> <ROCS_FitColorTversky>
0.590 

> <ROCS_FitTverskyCombo>
2.191 

> <ROCS_ColorScore>
-6.164

> <ROCS_Overlap>
2842.512

> <ROCS_Rank>
240                 

$$$$
untitled-dbase-442431_4
  -OEChem-02082415563D

 49 54  0     1  0  0  0  0  0999 V2000
    9.0070    8.3721   22.0147 C   0  0  0  0  0  0  0  0  0  0  0  0
    3.0249   13.6276   19.2432 C   0  0  0  0  0  0  0  0  0  0  0  0
    3.1985   14.6575   20.1677 C   0  0  0  0  0  0  0  0  0  0  0  0
    4.1074   12.8260   18.8807 C   0  0  0  0  0  0  0  0  0  0  0  0
   12.8990   16.1373   22.3658 C   0  0  0  0  0  0  0  0  0  0  0  0
    7.3176   12.7946   26.3053 C   0  0  0  0  0  0  0  0  0  0  0  0
   13.4649   15.1080   23.1102 C   0  0  0  0  0  0  0  0  0  0  0  0
    6.7929   11.4909   26.2926 C   0  0  0  0  0  0  0  0  0  0  0  0
    4.4545   14.8859   20.7297 C   0  0  0  0  0  0  0  0  0  0  0  0
    5.3634   13.0543   19.4427 C   0  0  0  0  0  0  0  0  0  0  0  0
   11.5746   16.0421   21.9425 C   0  0  0  0  0  0  0  0  0  0  0  0
    8.1361   13.2447   25.2671 C   0  0  0  0  0  0  0  0  0  0  0  0
   12.7048   13.9830   23.4327 C   0  0  0  0  0  0  0  0  0  0  0  0
    7.0776   10.6155   25.2421 C   0  0  0  0  0  0  0  0  0  0  0  0
    5.5370   14.0843   20.3672 C   0  0  0  0  0  0  0  0  0  0  0  0
   10.8128   14.9101   22.2675 C   0  0  0  0  0  0  0  0  0  0  0  0
    8.4140   12.3711   24.2288 C   0  0  0  0  0  0  0  0  0  0  0  0
   11.3684   13.8667   23.0194 C   0  0  0  0  0  0  0  0  0  0  0  0
    7.8901   11.0770   24.2213 C   0  0  0  0  0  0  0  0  0  0  0  0
    6.8689   14.3265   20.9632 C   0  0  0  0  0  0  0  0  0  0  0  0
    9.3958   14.7941   21.8153 C   0  0  0  0  0  0  0  0  0  0  0  0
    7.5712   15.6571   20.7855 C   0  0  0  0  0  0  0  0  0  0  0  0
    9.1321   11.2262   22.2686 C   0  0  0  0  0  0  0  0  0  0  0  0
    9.2515   12.5894   22.9927 C   0  0  2  0  0  0  0  0  0  0  0  0
    7.9436    9.0479   22.7556 C   0  0  0  0  0  0  0  0  0  0  0  0
    9.8494    7.8324   21.4268 N   0  0  0  0  0  0  0  0  0  0  0  0
    7.4327   13.3890   21.6583 N   0  0  0  0  0  0  0  0  0  0  0  0
    8.8913   15.7859   21.1395 N   0  0  0  0  0  0  0  0  0  0  0  0
   10.6452   12.7397   23.3590 N   0  0  0  0  0  0  0  0  0  0  0  0
    8.3169   10.4074   23.0661 N   0  0  0  0  0  0  0  0  0  0  0  0
    8.6911   13.6399   22.1360 N   0  0  0  0  0  0  0  0  0  0  0  0
    6.8983   16.5919   20.3681 O   0  0  0  0  0  0  0  0  0  0  0  0
    9.6617   10.9473   21.2020 O   0  0  0  0  0  0  0  0  0  0  0  0
    2.0469   13.4499   18.8056 H   0  0  0  0  0  0  0  0  0  0  0  0
    2.3556   15.2817   20.4497 H   0  0  0  0  0  0  0  0  0  0  0  0
    3.9722   12.0239   18.1611 H   0  0  0  0  0  0  0  0  0  0  0  0
   13.4883   17.0139   22.1138 H   0  0  0  0  0  0  0  0  0  0  0  0
    7.0819   13.4587   27.1324 H   0  0  0  0  0  0  0  0  0  0  0  0
   14.4968   15.1791   23.4411 H   0  0  0  0  0  0  0  0  0  0  0  0
    6.1574   11.1618   27.1105 H   0  0  0  0  0  0  0  0  0  0  0  0
    4.5785   15.6912   21.4492 H   0  0  0  0  0  0  0  0  0  0  0  0
    6.1998   12.4235   19.1528 H   0  0  0  0  0  0  0  0  0  0  0  0
   11.1599   16.8601   21.3601 H   0  0  0  0  0  0  0  0  0  0  0  0
    8.5387   14.2517   25.2790 H   0  0  0  0  0  0  0  0  0  0  0  0
   13.1666   13.1895   24.0169 H   0  0  0  0  0  0  0  0  0  0  0  0
    6.6672    9.6120   25.2418 H   0  0  0  0  0  0  0  0  0  0  0  0
    7.0186    9.0838   22.1730 H   0  0  0  0  0  0  0  0  0  0  0  0
    7.7363    8.5379   23.7007 H   0  0  0  0  0  0  0  0  0  0  0  0
   11.0955   12.0156   23.9079 H   0  0  0  0  0  0  0  0  0  0  0  0
  1 25  1  0  0  0  0
  1 26  3  0  0  0  0
  2  3  1  0  0  0  0
  2  4  2  0  0  0  0
  3  9  2  0  0  0  0
  4 10  1  0  0  0  0
  5  7  1  0  0  0  0
  5 11  2  0  0  0  0
  6  8  1  0  0  0  0
  6 12  2  0  0  0  0
  7 13  2  0  0  0  0
  8 14  2  0  0  0  0
  9 15  1  0  0  0  0
 10 15  2  0  0  0  0
 11 16  1  0  0  0  0
 12 17  1  0  0  0  0
 13 18  1  0  0  0  0
 14 19  1  0  0  0  0
 15 20  1  0  0  0  0
 16 18  2  0  0  0  0
 16 21  1  0  0  0  0
 17 19  2  0  0  0  0
 17 24  1  0  0  0  0
 18 29  1  0  0  0  0
 19 30  1  0  0  0  0
 20 22  1  0  0  0  0
 20 27  2  0  0  0  0
 21 28  2  0  0  0  0
 21 31  1  0  0  0  0
 22 28  1  0  0  0  0
 22 32  2  0  0  0  0
 23 24  1  0  0  0  0
 23 30  1  0  0  0  0
 23 33  2  0  0  0  0
 24 29  1  0  0  0  0
 24 31  1  0  0  0  0
 25 30  1  0  0  0  0
 27 31  1  0  0  0  0
  2 34  1  0  0  0  0
  3 35  1  0  0  0  0
  4 36  1  0  0  0  0
  5 37  1  0  0  0  0
  6 38  1  0  0  0  0
  7 39  1  0  0  0  0
  8 40  1  0  0  0  0
  9 41  1  0  0  0  0
 10 42  1  0  0  0  0
 11 43  1  0  0  0  0
 12 44  1  0  0  0  0
 13 45  1  0  0  0  0
 14 46  1  0  0  0  0
 25 47  1  0  0  0  0
 25 48  1  0  0  0  0
 29 49  1  0  0  0  0
M  END
> <id>
EN300-6711737

> <smiles>
O=C1N(CC#N)C=2C=CC=CC2C31NC=4C=CC=CC4C5=NC(=O)C(=NN53)C=6C=CC=CC6

> <IUPAC Name>
2-{2,2'-dioxo-3-phenyl-1',2,2',7-tetrahydrospiro[[1,2,4]triazino[2,3-c]quinazoline-6,3'-indol]-1'-yl}acetonitrile

> <CAS>
2189366-39-8

> <URL>
https://www.enaminestore.com/catalog/EN300-6711737

> <ROCS_ShapeQuery>
x0446_0A_x1080_0A_x0929_0A_x0812_0A_x0719_0A_x1140_0A_x0528_0A_x0310_0A

> <ROCS_TanimotoCombo>
0.418 

> <ROCS_ShapeTanimoto>
0.285 

> <ROCS_ColorTanimoto>
0.133 

> <ROCS_RefTversky>
0.262 

> <ROCS_RefColorTversky>
0.167 

> <ROCS_RefTverskyCombo>
0.429 

> <ROCS_FitTversky>
1.458 

> <ROCS_FitColorTversky>
0.395 

> <ROCS_FitTverskyCombo>
1.854 

> <ROCS_ColorScore>
-6.010

> <ROCS_Overlap>
3099.588

> <ROCS_Rank>
241                 

$$$$
untitled-dbase-384255_7
  -OEChem-02082415563D

 51 55  0     1  0  0  0  0  0999 V2000
    3.7442   17.0692   20.9101 C   0  0  0  0  0  0  0  0  0  0  0  0
    4.8616   16.4322   21.4368 C   0  0  0  0  0  0  0  0  0  0  0  0
    4.7337   15.1001   21.8167 C   0  0  0  0  0  0  0  0  0  0  0  0
    2.5685   16.3541   20.8170 C   0  0  0  0  0  0  0  0  0  0  0  0
    8.4211   14.4226   22.2800 C   0  0  0  0  0  0  0  0  0  0  0  0
    6.1786   17.1461   21.5373 C   0  0  0  0  0  0  0  0  0  0  0  0
    5.8921   14.3264   22.3848 C   0  0  0  0  0  0  0  0  0  0  0  0
    7.5352   12.0886   22.2369 C   0  0  0  0  0  0  0  0  0  0  0  0
    9.0815   10.1683   22.6911 C   0  0  0  0  0  0  0  0  0  0  0  0
    7.3270   10.7904   24.3720 C   0  0  0  0  0  0  0  0  0  0  0  0
    9.9585   12.5233   22.7317 C   0  0  0  0  0  0  0  0  0  0  0  0
    8.2019   13.1455   24.4156 C   0  0  0  0  0  0  0  0  0  0  0  0
    9.7522   11.2213   24.8720 C   0  0  0  0  0  0  0  0  0  0  0  0
    7.0989   16.4908   22.5614 C   0  0  0  0  0  0  0  0  0  0  0  0
    7.6480   10.6940   22.8718 C   0  0  0  0  0  0  0  0  0  0  0  0
    8.5246   13.0563   22.9117 C   0  0  0  0  0  0  0  0  0  0  0  0
   10.0952   11.1201   23.3669 C   0  0  1  0  0  0  0  0  0  0  0  0
    8.3130   11.7514   25.0747 C   0  0  2  0  0  0  0  0  0  0  0  0
   11.5210   10.5921   23.1828 C   0  0  0  0  0  0  0  0  0  0  0  0
    7.9881   11.8443   26.5683 C   0  0  0  0  0  0  0  0  0  0  0  0
    3.5582   14.4361   21.7113 N   0  0  0  0  0  0  0  0  0  0  0  0
    2.4628   15.0692   21.2068 N   0  0  0  0  0  0  0  0  0  0  0  0
    7.1727   15.0452   22.3488 N   0  0  0  0  0  0  0  0  0  0  0  0
    9.4142   14.9162   21.7401 O   0  0  0  0  0  0  0  0  0  0  0  0
    1.1346   17.0510   20.1934 Cl  0  0  0  0  0  0  0  0  0  0  0  0
    3.8005   18.1022   20.5801 H   0  0  0  0  0  0  0  0  0  0  0  0
    6.6802   17.1475   20.5623 H   0  0  0  0  0  0  0  0  0  0  0  0
    5.9918   18.1894   21.8195 H   0  0  0  0  0  0  0  0  0  0  0  0
    5.6483   14.0410   23.4114 H   0  0  0  0  0  0  0  0  0  0  0  0
    6.0286   13.4094   21.7998 H   0  0  0  0  0  0  0  0  0  0  0  0
    7.7356   12.0241   21.1592 H   0  0  0  0  0  0  0  0  0  0  0  0
    6.5078   12.4634   22.3352 H   0  0  0  0  0  0  0  0  0  0  0  0
    9.1617    9.1614   23.1206 H   0  0  0  0  0  0  0  0  0  0  0  0
    9.3065   10.0725   21.6209 H   0  0  0  0  0  0  0  0  0  0  0  0
    6.2954   11.1407   24.5061 H   0  0  0  0  0  0  0  0  0  0  0  0
    7.3815    9.7923   24.8255 H   0  0  0  0  0  0  0  0  0  0  0  0
   10.2132   12.4818   21.6637 H   0  0  0  0  0  0  0  0  0  0  0  0
   10.6783   13.2172   23.1875 H   0  0  0  0  0  0  0  0  0  0  0  0
    8.8860   13.8505   24.9077 H   0  0  0  0  0  0  0  0  0  0  0  0
    7.1920   13.5537   24.5590 H   0  0  0  0  0  0  0  0  0  0  0  0
    9.8569   10.2358   25.3456 H   0  0  0  0  0  0  0  0  0  0  0  0
   10.4687   11.8855   25.3741 H   0  0  0  0  0  0  0  0  0  0  0  0
    8.1208   16.8796   22.4677 H   0  0  0  0  0  0  0  0  0  0  0  0
    6.7548   16.7251   23.5739 H   0  0  0  0  0  0  0  0  0  0  0  0
    6.9416   10.0105   22.3874 H   0  0  0  0  0  0  0  0  0  0  0  0
   12.2252   11.2684   23.6614 H   0  0  0  0  0  0  0  0  0  0  0  0
   11.7510   10.5246   22.1222 H   0  0  0  0  0  0  0  0  0  0  0  0
   11.6059    9.6060   23.6332 H   0  0  0  0  0  0  0  0  0  0  0  0
    8.6870   12.5222   27.0524 H   0  0  0  0  0  0  0  0  0  0  0  0
    8.0698   10.8592   27.0215 H   0  0  0  0  0  0  0  0  0  0  0  0
    6.9752   12.2178   26.6989 H   0  0  0  0  0  0  0  0  0  0  0  0
  1  2  1  0  0  0  0
  1  4  2  0  0  0  0
  2  3  2  0  0  0  0
  2  6  1  0  0  0  0
  3  7  1  0  0  0  0
  3 21  1  0  0  0  0
  4 22  1  0  0  0  0
  4 25  1  0  0  0  0
  5 16  1  0  0  0  0
  5 23  1  0  0  0  0
  5 24  2  0  0  0  0
  6 14  1  0  0  0  0
  7 23  1  0  0  0  0
  8 15  1  0  0  0  0
  8 16  1  0  0  0  0
  9 15  1  0  0  0  0
  9 17  1  0  0  0  0
 10 15  1  0  0  0  0
 10 18  1  0  0  0  0
 11 16  1  0  0  0  0
 11 17  1  0  0  0  0
 12 16  1  0  0  0  0
 12 18  1  0  0  0  0
 13 17  1  0  0  0  0
 13 18  1  0  0  0  0
 14 23  1  0  0  0  0
 17 19  1  0  0  0  0
 18 20  1  0  0  0  0
 21 22  2  0  0  0  0
  1 26  1  0  0  0  0
  6 27  1  0  0  0  0
  6 28  1  0  0  0  0
  7 29  1  0  0  0  0
  7 30  1  0  0  0  0
  8 31  1  0  0  0  0
  8 32  1  0  0  0  0
  9 33  1  0  0  0  0
  9 34  1  0  0  0  0
 10 35  1  0  0  0  0
 10 36  1  0  0  0  0
 11 37  1  0  0  0  0
 11 38  1  0  0  0  0
 12 39  1  0  0  0  0
 12 40  1  0  0  0  0
 13 41  1  0  0  0  0
 13 42  1  0  0  0  0
 14 43  1  0  0  0  0
 14 44  1  0  0  0  0
 15 45  1  0  0  0  0
 19 46  1  0  0  0  0
 19 47  1  0  0  0  0
 19 48  1  0  0  0  0
 20 49  1  0  0  0  0
 20 50  1  0  0  0  0
 20 51  1  0  0  0  0
M  END
> <id>
EN300-26610971

> <smiles>
CC1(CC2CC3(C)C1)CC(C2)(C3)C(=O)N4CCC=5C=C(Cl)N=NC5C4

> <IUPAC Name>
3-chloro-7-(3,5-dimethyladamantane-1-carbonyl)-5H,6H,7H,8H-pyrido[3,4-c]pyridazine

> <CAS>
2411277-49-9

> <URL>
https://www.enaminestore.com/catalog/EN300-26610971

> <ROCS_ShapeQuery>
x0446_0A_x1080_0A_x0929_0A_x0812_0A_x0719_0A_x1140_0A_x0528_0A_x0310_0A

> <ROCS_TanimotoCombo>
0.418 

> <ROCS_ShapeTanimoto>
0.230 

> <ROCS_ColorTanimoto>
0.188 

> <ROCS_RefTversky>
0.214 

> <ROCS_RefColorTversky>
0.215 

> <ROCS_RefTverskyCombo>
0.430 

> <ROCS_FitTversky>
1.481 

> <ROCS_FitColorTversky>
0.593 

> <ROCS_FitTverskyCombo>
2.074 

> <ROCS_ColorScore>
-7.740

> <ROCS_Overlap>
2533.312

> <ROCS_Rank>
242                 

$$$$
untitled-dbase-289034_1
  -OEChem-02082415563D

 42 45  0     0  0  0  0  0  0999 V2000
    5.0527   11.7448   25.7908 C   0  0  0  0  0  0  0  0  0  0  0  0
    5.0180   13.1054   25.4191 C   0  0  0  0  0  0  0  0  0  0  0  0
    6.0660   10.8978   25.3322 C   0  0  0  0  0  0  0  0  0  0  0  0
    5.9959   13.6487   24.5807 C   0  0  0  0  0  0  0  0  0  0  0  0
   13.1159   15.1256   22.1206 C   0  0  0  0  0  0  0  0  0  0  0  0
    7.0225   11.4539   24.5091 C   0  0  0  0  0  0  0  0  0  0  0  0
    6.9882   12.7976   24.1420 C   0  0  0  0  0  0  0  0  0  0  0  0
   12.1769   14.1711   21.8206 C   0  0  0  0  0  0  0  0  0  0  0  0
    8.1877   10.8378   23.8666 C   0  0  0  0  0  0  0  0  0  0  0  0
    8.1309   13.0561   23.2602 C   0  0  0  0  0  0  0  0  0  0  0  0
   11.0820   11.9484   23.2952 C   0  0  0  0  0  0  0  0  0  0  0  0
   12.4152   10.3194   21.9612 C   0  0  0  0  0  0  0  0  0  0  0  0
   13.5707   12.0605   23.3725 C   0  0  0  0  0  0  0  0  0  0  0  0
   12.7371    9.3207   23.0693 C   0  0  0  0  0  0  0  0  0  0  0  0
   13.8209   10.9538   24.3932 C   0  0  0  0  0  0  0  0  0  0  0  0
   12.3459   11.7612   22.4919 C   0  0  0  0  0  0  0  0  0  0  0  0
   12.2699   12.7556   21.3275 C   0  0  0  0  0  0  0  0  0  0  0  0
   12.4921   16.2699   22.5340 N   0  0  0  0  0  0  0  0  0  0  0  0
   11.1815   16.0550   22.5012 N   0  0  0  0  0  0  0  0  0  0  0  0
   10.9946   14.7959   22.0733 N   0  0  0  0  0  0  0  0  0  0  0  0
    8.7835   11.8645   23.2034 N   0  0  0  0  0  0  0  0  0  0  0  0
    8.4998    9.6673   23.9643 O   0  0  0  0  0  0  0  0  0  0  0  0
    8.3853   14.1270   22.7451 O   0  0  0  0  0  0  0  0  0  0  0  0
   11.0630   12.2686   24.4762 O   0  0  0  0  0  0  0  0  0  0  0  0
   13.9362    9.6869   23.7487 O   0  0  0  0  0  0  0  0  0  0  0  0
    9.9987   11.7040   22.5025 O   0  0  0  0  0  0  0  0  0  0  0  0
    4.2774   11.3510   26.4430 H   0  0  0  0  0  0  0  0  0  0  0  0
    4.2165   13.7387   25.7908 H   0  0  0  0  0  0  0  0  0  0  0  0
    6.0902    9.8524   25.6163 H   0  0  0  0  0  0  0  0  0  0  0  0
    5.9667   14.6931   24.2937 H   0  0  0  0  0  0  0  0  0  0  0  0
   14.1915   15.0525   22.0611 H   0  0  0  0  0  0  0  0  0  0  0  0
   13.2107   10.2595   21.2067 H   0  0  0  0  0  0  0  0  0  0  0  0
   11.4788   10.0308   21.4688 H   0  0  0  0  0  0  0  0  0  0  0  0
   13.4629   13.0200   23.8923 H   0  0  0  0  0  0  0  0  0  0  0  0
   14.4571   12.1377   22.7290 H   0  0  0  0  0  0  0  0  0  0  0  0
   11.9166    9.2390   23.7917 H   0  0  0  0  0  0  0  0  0  0  0  0
   12.8908    8.3268   22.6368 H   0  0  0  0  0  0  0  0  0  0  0  0
   14.7609   11.1448   24.9210 H   0  0  0  0  0  0  0  0  0  0  0  0
   13.0260   10.9109   25.1468 H   0  0  0  0  0  0  0  0  0  0  0  0
   11.4039   12.5143   20.7063 H   0  0  0  0  0  0  0  0  0  0  0  0
   13.1518   12.6335   20.6939 H   0  0  0  0  0  0  0  0  0  0  0  0
   10.0498   14.4427   21.9789 H   0  0  0  0  0  0  0  0  0  0  0  0
  1  2  1  0  0  0  0
  1  3  2  0  0  0  0
  2  4  2  0  0  0  0
  3  6  1  0  0  0  0
  4  7  1  0  0  0  0
  5  8  2  0  0  0  0
  5 18  1  0  0  0  0
  6  7  2  0  0  0  0
  6  9  1  0  0  0  0
  7 10  1  0  0  0  0
  8 17  1  0  0  0  0
  8 20  1  0  0  0  0
  9 21  1  0  0  0  0
  9 22  2  0  0  0  0
 10 21  1  0  0  0  0
 10 23  2  0  0  0  0
 11 16  1  0  0  0  0
 11 24  2  0  0  0  0
 11 26  1  0  0  0  0
 12 14  1  0  0  0  0
 12 16  1  0  0  0  0
 13 15  1  0  0  0  0
 13 16  1  0  0  0  0
 14 25  1  0  0  0  0
 15 25  1  0  0  0  0
 16 17  1  0  0  0  0
 18 19  2  0  0  0  0
 19 20  1  0  0  0  0
 21 26  1  0  0  0  0
  1 27  1  0  0  0  0
  2 28  1  0  0  0  0
  3 29  1  0  0  0  0
  4 30  1  0  0  0  0
  5 31  1  0  0  0  0
 12 32  1  0  0  0  0
 12 33  1  0  0  0  0
 13 34  1  0  0  0  0
 13 35  1  0  0  0  0
 14 36  1  0  0  0  0
 14 37  1  0  0  0  0
 15 38  1  0  0  0  0
 15 39  1  0  0  0  0
 17 40  1  0  0  0  0
 17 41  1  0  0  0  0
 20 42  1  0  0  0  0
M  END
> <id>
EN300-6526300

> <smiles>
O=C(ON1C(=O)C=2C=CC=CC2C1=O)C3(CC4=CN=NN4)CCOCC3

> <IUPAC Name>
1,3-dioxo-2,3-dihydro-1H-isoindol-2-yl 4-[(1H-1,2,3-triazol-5-yl)methyl]oxane-4-carboxylate

> <CAS>
2248290-65-3

> <URL>
https://www.enaminestore.com/catalog/EN300-6526300

> <ROCS_ShapeQuery>
x0446_0A_x1080_0A_x0929_0A_x0812_0A_x0719_0A_x1140_0A_x0528_0A_x0310_0A

> <ROCS_TanimotoCombo>
0.418 

> <ROCS_ShapeTanimoto>
0.259 

> <ROCS_ColorTanimoto>
0.159 

> <ROCS_RefTversky>
0.237 

> <ROCS_RefColorTversky>
0.185 

> <ROCS_RefTverskyCombo>
0.422 

> <ROCS_FitTversky>
1.568 

> <ROCS_FitColorTversky>
0.526 

> <ROCS_FitTverskyCombo>
2.095 

> <ROCS_ColorScore>
-6.657

> <ROCS_Overlap>
2801.140

> <ROCS_Rank>
243                 

$$$$
untitled-dbase-319627_0
  -OEChem-02082415563D

 45 49  0     0  0  0  0  0  0999 V2000
    7.8250   16.2002   21.7036 C   0  0  0  0  0  0  0  0  0  0  0  0
    8.5462   14.2529   22.3722 C   0  0  0  0  0  0  0  0  0  0  0  0
    6.9249   17.3581   21.4755 C   0  0  0  0  0  0  0  0  0  0  0  0
    5.6618   16.9776   20.7048 C   0  0  0  0  0  0  0  0  0  0  0  0
    4.6186   16.2351   21.5445 C   0  0  0  0  0  0  0  0  0  0  0  0
    5.0245   14.8259   21.9830 C   0  0  0  0  0  0  0  0  0  0  0  0
    9.7559   10.9763   24.9558 C   0  0  0  0  0  0  0  0  0  0  0  0
    8.9610    9.9506   22.8108 C   0  0  0  0  0  0  0  0  0  0  0  0
    7.3006   10.7080   24.5289 C   0  0  0  0  0  0  0  0  0  0  0  0
    9.9806   12.2397   22.8034 C   0  0  0  0  0  0  0  0  0  0  0  0
    8.3300   12.9956   24.5321 C   0  0  0  0  0  0  0  0  0  0  0  0
    7.5278   11.9605   22.3672 C   0  0  0  0  0  0  0  0  0  0  0  0
    6.1759   14.7972   22.9847 C   0  0  0  0  0  0  0  0  0  0  0  0
   10.0318   10.8451   23.4513 C   0  0  0  0  0  0  0  0  0  0  0  0
    8.3711   11.5999   25.1789 C   0  0  0  0  0  0  0  0  0  0  0  0
    7.5718   10.5686   23.0219 C   0  0  0  0  0  0  0  0  0  0  0  0
    8.5874   12.9112   22.9985 C   0  0  0  0  0  0  0  0  0  0  0  0
    9.0751   16.0695   21.3047 N   0  0  0  0  0  0  0  0  0  0  0  0
    9.5300   14.8379   21.7279 N   0  0  0  0  0  0  0  0  0  0  0  0
    7.4598   15.0708   22.3820 N   0  0  0  0  0  0  0  0  0  0  0  0
    6.6673   17.8280   22.4318 H   0  0  0  0  0  0  0  0  0  0  0  0
    7.4734   18.1105   20.8950 H   0  0  0  0  0  0  0  0  0  0  0  0
    5.1962   17.9031   20.3433 H   0  0  0  0  0  0  0  0  0  0  0  0
    5.9140   16.3860   19.8158 H   0  0  0  0  0  0  0  0  0  0  0  0
    4.3560   16.8354   22.4243 H   0  0  0  0  0  0  0  0  0  0  0  0
    3.7033   16.1501   20.9453 H   0  0  0  0  0  0  0  0  0  0  0  0
    4.1505   14.3626   22.4578 H   0  0  0  0  0  0  0  0  0  0  0  0
    5.2664   14.2175   21.1028 H   0  0  0  0  0  0  0  0  0  0  0  0
    9.8050    9.9901   25.4339 H   0  0  0  0  0  0  0  0  0  0  0  0
   10.5279   11.5970   25.4268 H   0  0  0  0  0  0  0  0  0  0  0  0
    9.1612    9.8335   21.7387 H   0  0  0  0  0  0  0  0  0  0  0  0
    8.9967    8.9471   23.2526 H   0  0  0  0  0  0  0  0  0  0  0  0
    7.3019    9.7181   25.0018 H   0  0  0  0  0  0  0  0  0  0  0  0
    6.3044   11.1371   24.6929 H   0  0  0  0  0  0  0  0  0  0  0  0
   10.7669   12.8744   23.2342 H   0  0  0  0  0  0  0  0  0  0  0  0
   10.2104   12.1562   21.7324 H   0  0  0  0  0  0  0  0  0  0  0  0
    7.3529   13.4599   24.7224 H   0  0  0  0  0  0  0  0  0  0  0  0
    9.0771   13.6461   25.0065 H   0  0  0  0  0  0  0  0  0  0  0  0
    7.6985   11.8672   21.2862 H   0  0  0  0  0  0  0  0  0  0  0  0
    6.5234   12.3896   22.4840 H   0  0  0  0  0  0  0  0  0  0  0  0
    6.0281   15.5297   23.7865 H   0  0  0  0  0  0  0  0  0  0  0  0
    6.2159   13.8085   23.4526 H   0  0  0  0  0  0  0  0  0  0  0  0
   11.0224   10.4034   23.2954 H   0  0  0  0  0  0  0  0  0  0  0  0
    8.1747   11.6872   26.2534 H   0  0  0  0  0  0  0  0  0  0  0  0
    6.8093    9.9253   22.5687 H   0  0  0  0  0  0  0  0  0  0  0  0
  1  3  1  0  0  0  0
  1 18  2  0  0  0  0
  1 20  1  0  0  0  0
  2 17  1  0  0  0  0
  2 19  2  0  0  0  0
  2 20  1  0  0  0  0
  3  4  1  0  0  0  0
  4  5  1  0  0  0  0
  5  6  1  0  0  0  0
  6 13  1  0  0  0  0
  7 14  1  0  0  0  0
  7 15  1  0  0  0  0
  8 14  1  0  0  0  0
  8 16  1  0  0  0  0
  9 15  1  0  0  0  0
  9 16  1  0  0  0  0
 10 14  1  0  0  0  0
 10 17  1  0  0  0  0
 11 15  1  0  0  0  0
 11 17  1  0  0  0  0
 12 16  1  0  0  0  0
 12 17  1  0  0  0  0
 13 20  1  0  0  0  0
 18 19  1  0  0  0  0
  3 21  1  0  0  0  0
  3 22  1  0  0  0  0
  4 23  1  0  0  0  0
  4 24  1  0  0  0  0
  5 25  1  0  0  0  0
  5 26  1  0  0  0  0
  6 27  1  0  0  0  0
  6 28  1  0  0  0  0
  7 29  1  0  0  0  0
  7 30  1  0  0  0  0
  8 31  1  0  0  0  0
  8 32  1  0  0  0  0
  9 33  1  0  0  0  0
  9 34  1  0  0  0  0
 10 35  1  0  0  0  0
 10 36  1  0  0  0  0
 11 37  1  0  0  0  0
 11 38  1  0  0  0  0
 12 39  1  0  0  0  0
 12 40  1  0  0  0  0
 13 41  1  0  0  0  0
 13 42  1  0  0  0  0
 14 43  1  0  0  0  0
 15 44  1  0  0  0  0
 16 45  1  0  0  0  0
M  END
> <id>
EN300-16437

> <smiles>
C1C2CC3CC1CC(C2)(C3)C4=NN=C5CCCCCN45

> <MDLNUMBER>
MFCD02708251

> <IUPAC Name>
3-(adamantan-1-yl)-5H,6H,7H,8H,9H-[1,2,4]triazolo[4,3-a]azepine

> <CAS>
327093-42-5

> <Purity>
95

> <URL>
https://www.enaminestore.com/catalog/EN300-16437

> <ROCS_ShapeQuery>
x0446_0A_x1080_0A_x0929_0A_x0812_0A_x0719_0A_x1140_0A_x0528_0A_x0310_0A

> <ROCS_TanimotoCombo>
0.418 

> <ROCS_ShapeTanimoto>
0.221 

> <ROCS_ColorTanimoto>
0.197 

> <ROCS_RefTversky>
0.204 

> <ROCS_RefColorTversky>
0.220 

> <ROCS_RefTverskyCombo>
0.424 

> <ROCS_FitTversky>
1.605 

> <ROCS_FitColorTversky>
0.653 

> <ROCS_FitTverskyCombo>
2.258 

> <ROCS_ColorScore>
-7.893

> <ROCS_Overlap>
2408.703

> <ROCS_Rank>
244                 

$$$$
untitled-dbase-270714_1
  -OEChem-02082415563D

 41 44  0     0  0  0  0  0  0999 V2000
   11.9702    8.2980   22.2759 C   0  0  0  0  0  0  0  0  0  0  0  0
   10.8559    7.5094   22.5399 C   0  0  0  0  0  0  0  0  0  0  0  0
   13.0158   15.9122   22.8230 C   0  0  0  0  0  0  0  0  0  0  0  0
    5.7788   13.7214   24.8901 C   0  0  0  0  0  0  0  0  0  0  0  0
   11.9229    9.6634   22.5392 C   0  0  0  0  0  0  0  0  0  0  0  0
    6.9494   13.2001   24.3505 C   0  0  0  0  0  0  0  0  0  0  0  0
    9.6971    8.0873   23.0668 C   0  0  0  0  0  0  0  0  0  0  0  0
   12.9305   14.5629   23.1663 C   0  0  0  0  0  0  0  0  0  0  0  0
   11.9986   16.5077   22.0771 C   0  0  0  0  0  0  0  0  0  0  0  0
   10.8109   14.4046   22.0176 C   0  0  0  0  0  0  0  0  0  0  0  0
    5.0092   12.8935   25.6915 C   0  0  0  0  0  0  0  0  0  0  0  0
    6.4716   11.1398   25.4383 C   0  0  0  0  0  0  0  0  0  0  0  0
   10.7539   10.2369   23.0690 C   0  0  0  0  0  0  0  0  0  0  0  0
    7.3096   11.8855   24.6249 C   0  0  0  0  0  0  0  0  0  0  0  0
    9.6221    9.4509   23.3401 C   0  0  0  0  0  0  0  0  0  0  0  0
   11.8281   13.8091   22.7635 C   0  0  0  0  0  0  0  0  0  0  0  0
   10.8962   15.7539   21.6744 C   0  0  0  0  0  0  0  0  0  0  0  0
   10.6410   11.5946   23.3551 C   0  0  0  0  0  0  0  0  0  0  0  0
    8.5152   11.3170   24.0806 C   0  0  0  0  0  0  0  0  0  0  0  0
    8.8056   15.5068   20.5679 C   0  0  0  0  0  0  0  0  0  0  0  0
    5.3266   11.6116   25.9805 N   0  0  0  0  0  0  0  0  0  0  0  0
    8.4990    9.9890   23.8470 N   0  0  0  0  0  0  0  0  0  0  0  0
    9.5325   12.1658   23.8625 N   0  0  0  0  0  0  0  0  0  0  0  0
   11.7430   12.4510   23.1080 N   0  0  0  0  0  0  0  0  0  0  0  0
    9.9038   16.3353   20.9466 O   0  0  0  0  0  0  0  0  0  0  0  0
   12.8701    7.8505   21.8653 H   0  0  0  0  0  0  0  0  0  0  0  0
   10.8843    6.4426   22.3369 H   0  0  0  0  0  0  0  0  0  0  0  0
   13.8742   16.4991   23.1364 H   0  0  0  0  0  0  0  0  0  0  0  0
    5.4780   14.7435   24.6910 H   0  0  0  0  0  0  0  0  0  0  0  0
   12.8063   10.2587   22.3241 H   0  0  0  0  0  0  0  0  0  0  0  0
    7.5707   13.8295   23.7182 H   0  0  0  0  0  0  0  0  0  0  0  0
    8.8383    7.4481   23.2638 H   0  0  0  0  0  0  0  0  0  0  0  0
   13.7295   14.1087   23.7467 H   0  0  0  0  0  0  0  0  0  0  0  0
   12.0703   17.5593   21.8134 H   0  0  0  0  0  0  0  0  0  0  0  0
    9.9496   13.8210   21.7011 H   0  0  0  0  0  0  0  0  0  0  0  0
    4.0865   13.2525   26.1361 H   0  0  0  0  0  0  0  0  0  0  0  0
    6.6967   10.1077   25.6915 H   0  0  0  0  0  0  0  0  0  0  0  0
    8.0864   16.0945   19.9922 H   0  0  0  0  0  0  0  0  0  0  0  0
    8.3277   15.1019   21.4635 H   0  0  0  0  0  0  0  0  0  0  0  0
    9.1767   14.6843   19.9519 H   0  0  0  0  0  0  0  0  0  0  0  0
   12.6387   11.9870   23.2001 H   0  0  0  0  0  0  0  0  0  0  0  0
  1  2  1  0  0  0  0
  1  5  2  0  0  0  0
  2  7  2  0  0  0  0
  3  8  1  0  0  0  0
  3  9  2  0  0  0  0
  4  6  2  0  0  0  0
  4 11  1  0  0  0  0
  5 13  1  0  0  0  0
  6 14  1  0  0  0  0
  7 15  1  0  0  0  0
  8 16  2  0  0  0  0
  9 17  1  0  0  0  0
 10 16  1  0  0  0  0
 10 17  2  0  0  0  0
 11 21  2  0  0  0  0
 12 14  2  0  0  0  0
 12 21  1  0  0  0  0
 13 15  1  0  0  0  0
 13 18  2  0  0  0  0
 14 19  1  0  0  0  0
 15 22  2  0  0  0  0
 16 24  1  0  0  0  0
 17 25  1  0  0  0  0
 18 23  1  0  0  0  0
 18 24  1  0  0  0  0
 19 22  1  0  0  0  0
 19 23  2  0  0  0  0
 20 25  1  0  0  0  0
  1 26  1  0  0  0  0
  2 27  1  0  0  0  0
  3 28  1  0  0  0  0
  4 29  1  0  0  0  0
  5 30  1  0  0  0  0
  6 31  1  0  0  0  0
  7 32  1  0  0  0  0
  8 33  1  0  0  0  0
  9 34  1  0  0  0  0
 10 35  1  0  0  0  0
 11 36  1  0  0  0  0
 12 37  1  0  0  0  0
 20 38  1  0  0  0  0
 20 39  1  0  0  0  0
 20 40  1  0  0  0  0
 24 41  1  0  0  0  0
M  END
> <id>
EN300-18139596

> <smiles>
COC=1C=CC=C(NC=2N=C(N=C3C=CC=CC23)C=4C=CC=NC4)C1

> <MDLNUMBER>
MFCD02360608

> <IUPAC Name>
N-(3-methoxyphenyl)-2-(pyridin-3-yl)quinazolin-4-amine

> <CAS>
431073-31-3

> <URL>
https://www.enaminestore.com/catalog/EN300-18139596

> <ROCS_ShapeQuery>
x0446_0A_x1080_0A_x0929_0A_x0812_0A_x0719_0A_x1140_0A_x0528_0A_x0310_0A

> <ROCS_TanimotoCombo>
0.418 

> <ROCS_ShapeTanimoto>
0.258 

> <ROCS_ColorTanimoto>
0.160 

> <ROCS_RefTversky>
0.235 

> <ROCS_RefColorTversky>
0.178 

> <ROCS_RefTverskyCombo>
0.413 

> <ROCS_FitTversky>
1.603 

> <ROCS_FitColorTversky>
0.611 

> <ROCS_FitTverskyCombo>
2.214 

> <ROCS_ColorScore>
-6.368

> <ROCS_Overlap>
2780.435

> <ROCS_Rank>
245                 

$$$$
untitled-dbase-351339_9
  -OEChem-02082415563D

 44 47  0     0  0  0  0  0  0999 V2000
    3.8370   12.2896   20.4965 C   0  0  0  0  0  0  0  0  0  0  0  0
    3.7082   11.0914   19.8029 C   0  0  0  0  0  0  0  0  0  0  0  0
    4.1410   13.4011   18.4160 C   0  0  0  0  0  0  0  0  0  0  0  0
    4.0577   13.4709   19.7973 C   0  0  0  0  0  0  0  0  0  0  0  0
    3.8069   11.1281   18.4214 C   0  0  0  0  0  0  0  0  0  0  0  0
    7.8348   14.0175   21.9678 C   0  0  0  0  0  0  0  0  0  0  0  0
    9.9215   10.4363   23.1666 C   0  0  0  0  0  0  0  0  0  0  0  0
    9.4691   11.7402   25.2611 C   0  0  0  0  0  0  0  0  0  0  0  0
    7.6556   10.3419   24.2386 C   0  0  0  0  0  0  0  0  0  0  0  0
    9.7776   12.9386   23.0800 C   0  0  0  0  0  0  0  0  0  0  0  0
    7.9611   11.5377   22.0558 C   0  0  0  0  0  0  0  0  0  0  0  0
    7.5083   12.8445   24.1525 C   0  0  0  0  0  0  0  0  0  0  0  0
   10.2341   11.7373   23.9260 C   0  0  0  0  0  0  0  0  0  0  0  0
    8.4104   10.3307   22.8978 C   0  0  0  0  0  0  0  0  0  0  0  0
    7.9552   11.6428   25.0037 C   0  0  0  0  0  0  0  0  0  0  0  0
    8.2626   12.8491   22.8084 C   0  0  0  0  0  0  0  0  0  0  0  0
    4.0209   12.2560   17.7075 N   0  0  0  0  0  0  0  0  0  0  0  0
    6.4806   14.0052   21.7060 N   0  0  0  0  0  0  0  0  0  0  0  0
    5.9072   15.0775   20.9235 N   0  0  0  0  0  0  0  0  0  0  0  0
    8.6299   14.8749   21.5918 O   0  0  0  0  0  0  0  0  0  0  0  0
    3.5398   14.9007   21.9170 O   0  0  0  0  0  0  0  0  0  0  0  0
    3.8601   16.0557   19.7051 O   0  0  0  0  0  0  0  0  0  0  0  0
    4.2274   15.0139   20.6449 S   0  0  0  0  0  0  0  0  0  0  0  0
    3.6608    9.6985   17.4837 Cl  0  0  0  0  0  0  0  0  0  0  0  0
    3.7639   12.2925   21.5804 H   0  0  0  0  0  0  0  0  0  0  0  0
    3.5362   10.1641   20.3392 H   0  0  0  0  0  0  0  0  0  0  0  0
    4.3120   14.2891   17.8156 H   0  0  0  0  0  0  0  0  0  0  0  0
   10.4728   10.4146   22.2185 H   0  0  0  0  0  0  0  0  0  0  0  0
   10.2585    9.5718   23.7515 H   0  0  0  0  0  0  0  0  0  0  0  0
    9.7980   10.8983   25.8826 H   0  0  0  0  0  0  0  0  0  0  0  0
    9.6955   12.6564   25.8202 H   0  0  0  0  0  0  0  0  0  0  0  0
    6.5768   10.2513   24.0619 H   0  0  0  0  0  0  0  0  0  0  0  0
    7.9528    9.4756   24.8424 H   0  0  0  0  0  0  0  0  0  0  0  0
   10.0173   13.8755   23.5999 H   0  0  0  0  0  0  0  0  0  0  0  0
   10.3355   12.9613   22.1345 H   0  0  0  0  0  0  0  0  0  0  0  0
    8.4740   11.5263   21.0851 H   0  0  0  0  0  0  0  0  0  0  0  0
    6.8880   11.4621   21.8361 H   0  0  0  0  0  0  0  0  0  0  0  0
    6.4245   12.7993   23.9830 H   0  0  0  0  0  0  0  0  0  0  0  0
    7.6949   13.7785   24.6988 H   0  0  0  0  0  0  0  0  0  0  0  0
   11.3108   11.8057   24.1160 H   0  0  0  0  0  0  0  0  0  0  0  0
    8.1940    9.4019   22.3586 H   0  0  0  0  0  0  0  0  0  0  0  0
    7.4164   11.6441   25.9575 H   0  0  0  0  0  0  0  0  0  0  0  0
    5.8482   13.2776   22.0220 H   0  0  0  0  0  0  0  0  0  0  0  0
    6.5210   15.5133   20.2248 H   0  0  0  0  0  0  0  0  0  0  0  0
  1  2  2  0  0  0  0
  1  4  1  0  0  0  0
  2  5  1  0  0  0  0
  3  4  2  0  0  0  0
  3 17  1  0  0  0  0
  4 23  1  0  0  0  0
  5 17  2  0  0  0  0
  5 24  1  0  0  0  0
  6 16  1  0  0  0  0
  6 18  1  0  0  0  0
  6 20  2  0  0  0  0
  7 13  1  0  0  0  0
  7 14  1  0  0  0  0
  8 13  1  0  0  0  0
  8 15  1  0  0  0  0
  9 14  1  0  0  0  0
  9 15  1  0  0  0  0
 10 13  1  0  0  0  0
 10 16  1  0  0  0  0
 11 14  1  0  0  0  0
 11 16  1  0  0  0  0
 12 15  1  0  0  0  0
 12 16  1  0  0  0  0
 18 19  1  0  0  0  0
 19 23  1  0  0  0  0
 21 23  2  0  0  0  0
 22 23  2  0  0  0  0
  1 25  1  0  0  0  0
  2 26  1  0  0  0  0
  3 27  1  0  0  0  0
  7 28  1  0  0  0  0
  7 29  1  0  0  0  0
  8 30  1  0  0  0  0
  8 31  1  0  0  0  0
  9 32  1  0  0  0  0
  9 33  1  0  0  0  0
 10 34  1  0  0  0  0
 10 35  1  0  0  0  0
 11 36  1  0  0  0  0
 11 37  1  0  0  0  0
 12 38  1  0  0  0  0
 12 39  1  0  0  0  0
 13 40  1  0  0  0  0
 14 41  1  0  0  0  0
 15 42  1  0  0  0  0
 18 43  1  0  0  0  0
 19 44  1  0  0  0  0
M  END
> <id>
EN300-26590741

> <smiles>
ClC=1C=CC(=CN1)S(=O)(=O)NNC(=O)C2(CC3CC4CC(C3)C2)C4

> <IUPAC Name>
N'-[(6-chloropyridin-3-yl)sulfonyl]adamantane-1-carbohydrazide

> <CAS>
1002601-46-8

> <URL>
https://www.enaminestore.com/catalog/EN300-26590741

> <ROCS_ShapeQuery>
x0446_0A_x1080_0A_x0929_0A_x0812_0A_x0719_0A_x1140_0A_x0528_0A_x0310_0A

> <ROCS_TanimotoCombo>
0.418 

> <ROCS_ShapeTanimoto>
0.225 

> <ROCS_ColorTanimoto>
0.193 

> <ROCS_RefTversky>
0.209 

> <ROCS_RefColorTversky>
0.229 

> <ROCS_RefTverskyCombo>
0.438 

> <ROCS_FitTversky>
1.513 

> <ROCS_FitColorTversky>
0.553 

> <ROCS_FitTverskyCombo>
2.066 

> <ROCS_ColorScore>
-8.242

> <ROCS_Overlap>
2467.380

> <ROCS_Rank>
246                 

$$$$
untitled-dbase-119695_7
  -OEChem-02082415563D

 41 44  0     0  0  0  0  0  0999 V2000
    4.0315   14.7135   22.0488 C   0  0  0  0  0  0  0  0  0  0  0  0
    3.7356   15.9936   21.3235 C   0  0  0  0  0  0  0  0  0  0  0  0
    8.1087   10.0822   24.7371 C   0  0  0  0  0  0  0  0  0  0  0  0
   10.3305   11.2372   24.6059 C   0  0  0  0  0  0  0  0  0  0  0  0
    9.2935   10.2749   22.5356 C   0  0  0  0  0  0  0  0  0  0  0  0
    8.2486   12.5687   25.0333 C   0  0  0  0  0  0  0  0  0  0  0  0
    7.2092   11.6042   22.9584 C   0  0  0  0  0  0  0  0  0  0  0  0
    9.4360   12.7617   22.8266 C   0  0  0  0  0  0  0  0  0  0  0  0
    8.9598   11.2311   25.3029 C   0  0  0  0  0  0  0  0  0  0  0  0
    7.9176   10.2640   23.2222 C   0  0  0  0  0  0  0  0  0  0  0  0
   10.1506   11.4248   23.0903 C   0  0  0  0  0  0  0  0  0  0  0  0
    4.9962   15.2324   21.0185 C   0  0  0  0  0  0  0  0  0  0  0  0
    8.0497   12.7784   23.5135 C   0  0  0  0  0  0  0  0  0  0  0  0
    7.3419   14.1099   23.2491 C   0  0  0  0  0  0  0  0  0  0  0  0
    6.3241   15.7529   21.3905 N   0  0  0  0  0  0  0  0  0  0  0  0
    8.8787   15.3746   21.5494 O   0  0  0  0  0  0  0  0  0  0  0  0
    7.3916   13.5204   20.7084 O   0  0  0  0  0  0  0  0  0  0  0  0
    7.6160   14.6503   21.6003 S   0  0  0  0  0  0  0  0  0  0  0  0
    4.3095   14.7790   23.0934 H   0  0  0  0  0  0  0  0  0  0  0  0
    3.4404   13.8421   21.7945 H   0  0  0  0  0  0  0  0  0  0  0  0
    2.9482   15.9835   20.5800 H   0  0  0  0  0  0  0  0  0  0  0  0
    3.8161   16.9185   21.8813 H   0  0  0  0  0  0  0  0  0  0  0  0
    8.5956    9.1204   24.9402 H   0  0  0  0  0  0  0  0  0  0  0  0
    7.1329   10.0568   25.2376 H   0  0  0  0  0  0  0  0  0  0  0  0
   10.9538   12.0433   25.0120 H   0  0  0  0  0  0  0  0  0  0  0  0
   10.8568   10.2960   24.8068 H   0  0  0  0  0  0  0  0  0  0  0  0
    9.8013    9.3165   22.6998 H   0  0  0  0  0  0  0  0  0  0  0  0
    9.1706   10.3884   21.4515 H   0  0  0  0  0  0  0  0  0  0  0  0
    7.2792   12.5806   25.5481 H   0  0  0  0  0  0  0  0  0  0  0  0
    8.8395   13.3916   25.4558 H   0  0  0  0  0  0  0  0  0  0  0  0
    7.0480   11.7295   21.8799 H   0  0  0  0  0  0  0  0  0  0  0  0
    6.2161   11.5941   23.4259 H   0  0  0  0  0  0  0  0  0  0  0  0
   10.0539   13.5893   23.1987 H   0  0  0  0  0  0  0  0  0  0  0  0
    9.3254   12.9130   21.7452 H   0  0  0  0  0  0  0  0  0  0  0  0
    9.0942   11.0951   26.3818 H   0  0  0  0  0  0  0  0  0  0  0  0
    7.3124    9.4418   22.8244 H   0  0  0  0  0  0  0  0  0  0  0  0
   11.1300   11.4263   22.5991 H   0  0  0  0  0  0  0  0  0  0  0  0
    5.0370   14.7042   20.0726 H   0  0  0  0  0  0  0  0  0  0  0  0
    7.7245   14.8751   23.9197 H   0  0  0  0  0  0  0  0  0  0  0  0
    6.2702   13.9969   23.3903 H   0  0  0  0  0  0  0  0  0  0  0  0
    6.2927   16.5559   22.0321 H   0  0  0  0  0  0  0  0  0  0  0  0
  1  2  1  0  0  0  0
  1 12  1  0  0  0  0
  2 12  1  0  0  0  0
  3  9  1  0  0  0  0
  3 10  1  0  0  0  0
  4  9  1  0  0  0  0
  4 11  1  0  0  0  0
  5 10  1  0  0  0  0
  5 11  1  0  0  0  0
  6  9  1  0  0  0  0
  6 13  1  0  0  0  0
  7 10  1  0  0  0  0
  7 13  1  0  0  0  0
  8 11  1  0  0  0  0
  8 13  1  0  0  0  0
 12 15  1  0  0  0  0
 13 14  1  0  0  0  0
 14 18  1  0  0  0  0
 15 18  1  0  0  0  0
 16 18  2  0  0  0  0
 17 18  2  0  0  0  0
  1 19  1  0  0  0  0
  1 20  1  0  0  0  0
  2 21  1  0  0  0  0
  2 22  1  0  0  0  0
  3 23  1  0  0  0  0
  3 24  1  0  0  0  0
  4 25  1  0  0  0  0
  4 26  1  0  0  0  0
  5 27  1  0  0  0  0
  5 28  1  0  0  0  0
  6 29  1  0  0  0  0
  6 30  1  0  0  0  0
  7 31  1  0  0  0  0
  7 32  1  0  0  0  0
  8 33  1  0  0  0  0
  8 34  1  0  0  0  0
  9 35  1  0  0  0  0
 10 36  1  0  0  0  0
 11 37  1  0  0  0  0
 12 38  1  0  0  0  0
 14 39  1  0  0  0  0
 14 40  1  0  0  0  0
 15 41  1  0  0  0  0
M  END
> <id>
EN300-814052

> <smiles>
O=S(=O)(CC1(CC2CC3CC(C2)C1)C3)NC4CC4

> <IUPAC Name>
1-(adamantan-1-yl)-N-cyclopropylmethanesulfonamide

> <CAS>
2138419-86-8

> <URL>
https://www.enaminestore.com/catalog/EN300-814052

> <ROCS_ShapeQuery>
x0446_0A_x1080_0A_x0929_0A_x0812_0A_x0719_0A_x1140_0A_x0528_0A_x0310_0A

> <ROCS_TanimotoCombo>
0.418 

> <ROCS_ShapeTanimoto>
0.207 

> <ROCS_ColorTanimoto>
0.211 

> <ROCS_RefTversky>
0.191 

> <ROCS_RefColorTversky>
0.227 

> <ROCS_RefTverskyCombo>
0.418 

> <ROCS_FitTversky>
1.661 

> <ROCS_FitColorTversky>
0.748 

> <ROCS_FitTverskyCombo>
2.409 

> <ROCS_ColorScore>
-8.116

> <ROCS_Overlap>
2258.601

> <ROCS_Rank>
247                 

$$$$
untitled-dbase-399433_2
  -OEChem-02082415563D

 29 31  0     0  0  0  0  0  0999 V2000
    6.3968   15.0611   25.9347 C   0  0  0  0  0  0  0  0  0  0  0  0
    6.3593   16.0329   24.9348 C   0  0  0  0  0  0  0  0  0  0  0  0
    6.9793   13.8196   25.6793 C   0  0  0  0  0  0  0  0  0  0  0  0
    6.9041   15.7632   23.6794 C   0  0  0  0  0  0  0  0  0  0  0  0
    7.5242   13.5500   24.4239 C   0  0  0  0  0  0  0  0  0  0  0  0
    7.4866   14.5218   23.4239 C   0  0  0  0  0  0  0  0  0  0  0  0
    8.1193   12.2569   24.1883 C   0  0  0  0  0  0  0  0  0  0  0  0
    9.5789   10.7080   23.7121 C   0  0  0  0  0  0  0  0  0  0  0  0
   10.8542   10.2294   23.3493 C   0  0  0  0  0  0  0  0  0  0  0  0
   11.8469   11.1039   23.1447 C   0  0  0  0  0  0  0  0  0  0  0  0
   11.5313   12.5546   23.3180 C   0  0  0  0  0  0  0  0  0  0  0  0
    8.0442   14.2818   22.0976 C   0  0  0  0  0  0  0  0  0  0  0  0
   12.6647   13.5185   23.0831 C   0  0  0  0  0  0  0  0  0  0  0  0
    7.5105   11.0958   24.2754 N   0  0  0  0  0  0  0  0  0  0  0  0
    8.4337   10.1146   23.9743 N   0  0  0  0  0  0  0  0  0  0  0  0
   10.3664   13.0297   23.6507 N   0  0  0  0  0  0  0  0  0  0  0  0
    9.4243   12.0703   23.8367 N   0  0  0  0  0  0  0  0  0  0  0  0
    7.6808   13.3944   21.3226 O   0  0  0  0  0  0  0  0  0  0  0  0
    9.0346   15.1601   21.7873 O   0  0  0  0  0  0  0  0  0  0  0  0
    5.9732   15.2715   26.9124 H   0  0  0  0  0  0  0  0  0  0  0  0
    5.9064   16.9997   25.1342 H   0  0  0  0  0  0  0  0  0  0  0  0
    7.0002   13.0736   26.4703 H   0  0  0  0  0  0  0  0  0  0  0  0
    6.8689   16.5294   22.9090 H   0  0  0  0  0  0  0  0  0  0  0  0
   11.0188    9.1636   23.2407 H   0  0  0  0  0  0  0  0  0  0  0  0
   12.8478   10.8000   22.8672 H   0  0  0  0  0  0  0  0  0  0  0  0
   12.6748   13.8089   22.0371 H   0  0  0  0  0  0  0  0  0  0  0  0
   13.6028   13.0367   23.3420 H   0  0  0  0  0  0  0  0  0  0  0  0
   12.5233   14.3947   23.7087 H   0  0  0  0  0  0  0  0  0  0  0  0
    9.4158   15.0076   20.8964 H   0  0  0  0  0  0  0  0  0  0  0  0
  1  2  1  0  0  0  0
  1  3  2  0  0  0  0
  2  4  2  0  0  0  0
  3  5  1  0  0  0  0
  4  6  1  0  0  0  0
  5  6  2  0  0  0  0
  5  7  1  0  0  0  0
  6 12  1  0  0  0  0
  7 14  2  0  0  0  0
  7 17  1  0  0  0  0
  8  9  1  0  0  0  0
  8 15  2  0  0  0  0
  8 17  1  0  0  0  0
  9 10  2  0  0  0  0
 10 11  1  0  0  0  0
 11 13  1  0  0  0  0
 11 16  2  0  0  0  0
 12 18  2  0  0  0  0
 12 19  1  0  0  0  0
 14 15  1  0  0  0  0
 16 17  1  0  0  0  0
  1 20  1  0  0  0  0
  2 21  1  0  0  0  0
  3 22  1  0  0  0  0
  4 23  1  0  0  0  0
  9 24  1  0  0  0  0
 10 25  1  0  0  0  0
 13 26  1  0  0  0  0
 13 27  1  0  0  0  0
 13 28  1  0  0  0  0
 19 29  1  0  0  0  0
M  END
> <id>
EN300-114627

> <smiles>
CC=1C=CC2=NN=C(C=3C=CC=CC3C(=O)O)N2N1

> <MDLNUMBER>
MFCD17593704

> <IUPAC Name>
2-{6-methyl-[1,2,4]triazolo[4,3-b]pyridazin-3-yl}benzoic acid

> <CAS>
1423029-05-3

> <Purity>
95

> <URL>
https://www.enaminestore.com/catalog/EN300-114627

> <ROCS_ShapeQuery>
x0446_0A_x1080_0A_x0929_0A_x0812_0A_x0719_0A_x1140_0A_x0528_0A_x0310_0A

> <ROCS_TanimotoCombo>
0.418 

> <ROCS_ShapeTanimoto>
0.244 

> <ROCS_ColorTanimoto>
0.174 

> <ROCS_RefTversky>
0.220 

> <ROCS_RefColorTversky>
0.193 

> <ROCS_RefTverskyCombo>
0.413 

> <ROCS_FitTversky>
1.768 

> <ROCS_FitColorTversky>
0.643 

> <ROCS_FitTverskyCombo>
2.410 

> <ROCS_ColorScore>
-6.896

> <ROCS_Overlap>
2601.705

> <ROCS_Rank>
248                 

$$$$
untitled-dbase-264461_5
  -OEChem-02082415563D

 47 49  0     0  0  0  0  0  0999 V2000
   10.2512   14.3134   21.5829 C   0  0  0  0  0  0  0  0  0  0  0  0
    8.5693   10.5352   25.4254 C   0  0  0  0  0  0  0  0  0  0  0  0
   10.3659   10.6145   23.6818 C   0  0  0  0  0  0  0  0  0  0  0  0
    9.5450   12.7398   24.7461 C   0  0  0  0  0  0  0  0  0  0  0  0
    8.0290   10.0335   23.0330 C   0  0  0  0  0  0  0  0  0  0  0  0
    7.2062   12.1638   24.0999 C   0  0  0  0  0  0  0  0  0  0  0  0
    9.8565   11.2524   24.9860 C   0  0  0  0  0  0  0  0  0  0  0  0
    7.4983   10.6703   24.3297 C   0  0  0  0  0  0  0  0  0  0  0  0
    9.3067   10.7632   22.5630 C   0  0  0  0  0  0  0  0  0  0  0  0
    8.4844   12.8923   23.6294 C   0  0  0  0  0  0  0  0  0  0  0  0
    9.0167   12.2732   22.3001 C   0  0  0  0  0  0  0  0  0  0  0  0
   11.3410   16.9023   22.0927 C   0  0  0  0  0  0  0  0  0  0  0  0
   13.1833   16.2323   20.5224 C   0  0  0  0  0  0  0  0  0  0  0  0
   10.8193   16.3790   19.6868 C   0  0  0  0  0  0  0  0  0  0  0  0
    8.0103   12.4584   21.1454 C   0  0  0  0  0  0  0  0  0  0  0  0
   11.7109   16.0463   20.8823 C   0  0  0  0  0  0  0  0  0  0  0  0
   10.2264   12.9759   21.8784 N   0  0  0  0  0  0  0  0  0  0  0  0
    9.2987   15.0849   21.6277 O   0  0  0  0  0  0  0  0  0  0  0  0
    7.4419   13.7435   21.2678 O   0  0  0  0  0  0  0  0  0  0  0  0
   11.5209   14.6685   21.2232 O   0  0  0  0  0  0  0  0  0  0  0  0
    8.7766    9.4758   25.6202 H   0  0  0  0  0  0  0  0  0  0  0  0
    8.2018   10.9648   26.3654 H   0  0  0  0  0  0  0  0  0  0  0  0
   11.3242   11.0566   23.3915 H   0  0  0  0  0  0  0  0  0  0  0  0
   10.5698    9.5491   23.8507 H   0  0  0  0  0  0  0  0  0  0  0  0
    9.1739   13.1951   25.6730 H   0  0  0  0  0  0  0  0  0  0  0  0
   10.4628   13.2795   24.4859 H   0  0  0  0  0  0  0  0  0  0  0  0
    8.2539    8.9736   23.2087 H   0  0  0  0  0  0  0  0  0  0  0  0
    7.2562   10.0503   22.2580 H   0  0  0  0  0  0  0  0  0  0  0  0
    6.3947   12.2844   23.3747 H   0  0  0  0  0  0  0  0  0  0  0  0
    6.8463   12.6169   25.0329 H   0  0  0  0  0  0  0  0  0  0  0  0
   10.6170   11.1543   25.7686 H   0  0  0  0  0  0  0  0  0  0  0  0
    6.5828   10.1582   24.6464 H   0  0  0  0  0  0  0  0  0  0  0  0
    9.6772   10.2848   21.6480 H   0  0  0  0  0  0  0  0  0  0  0  0
    8.2577   13.9563   23.4873 H   0  0  0  0  0  0  0  0  0  0  0  0
   10.2848   16.7715   22.3543 H   0  0  0  0  0  0  0  0  0  0  0  0
   11.9496   16.6491   22.9670 H   0  0  0  0  0  0  0  0  0  0  0  0
   11.4757   17.9678   21.8741 H   0  0  0  0  0  0  0  0  0  0  0  0
   13.4532   15.6200   19.6543 H   0  0  0  0  0  0  0  0  0  0  0  0
   13.8304   15.9049   21.3442 H   0  0  0  0  0  0  0  0  0  0  0  0
   13.4146   17.2779   20.2944 H   0  0  0  0  0  0  0  0  0  0  0  0
   11.0845   15.7652   18.8183 H   0  0  0  0  0  0  0  0  0  0  0  0
    9.7611   16.2159   19.9151 H   0  0  0  0  0  0  0  0  0  0  0  0
   10.9525   17.4228   19.3799 H   0  0  0  0  0  0  0  0  0  0  0  0
    7.2379   11.7015   21.2232 H   0  0  0  0  0  0  0  0  0  0  0  0
    8.5348   12.3725   20.2003 H   0  0  0  0  0  0  0  0  0  0  0  0
   11.0835   12.4516   21.8013 H   0  0  0  0  0  0  0  0  0  0  0  0
    6.8085   13.8523   20.5359 H   0  0  0  0  0  0  0  0  0  0  0  0
  1 17  1  0  0  0  0
  1 18  2  0  0  0  0
  1 20  1  0  0  0  0
  2  7  1  0  0  0  0
  2  8  1  0  0  0  0
  3  7  1  0  0  0  0
  3  9  1  0  0  0  0
  4  7  1  0  0  0  0
  4 10  1  0  0  0  0
  5  8  1  0  0  0  0
  5  9  1  0  0  0  0
  6  8  1  0  0  0  0
  6 10  1  0  0  0  0
  9 11  1  0  0  0  0
 10 11  1  0  0  0  0
 11 15  1  0  0  0  0
 11 17  1  0  0  0  0
 12 16  1  0  0  0  0
 13 16  1  0  0  0  0
 14 16  1  0  0  0  0
 15 19  1  0  0  0  0
 16 20  1  0  0  0  0
  2 21  1  0  0  0  0
  2 22  1  0  0  0  0
  3 23  1  0  0  0  0
  3 24  1  0  0  0  0
  4 25  1  0  0  0  0
  4 26  1  0  0  0  0
  5 27  1  0  0  0  0
  5 28  1  0  0  0  0
  6 29  1  0  0  0  0
  6 30  1  0  0  0  0
  7 31  1  0  0  0  0
  8 32  1  0  0  0  0
  9 33  1  0  0  0  0
 10 34  1  0  0  0  0
 12 35  1  0  0  0  0
 12 36  1  0  0  0  0
 12 37  1  0  0  0  0
 13 38  1  0  0  0  0
 13 39  1  0  0  0  0
 13 40  1  0  0  0  0
 14 41  1  0  0  0  0
 14 42  1  0  0  0  0
 14 43  1  0  0  0  0
 15 44  1  0  0  0  0
 15 45  1  0  0  0  0
 17 46  1  0  0  0  0
 19 47  1  0  0  0  0
M  END
> <id>
EN300-7548141

> <smiles>
CC(C)(C)OC(=O)NC1(CO)C2CC3CC(C2)CC1C3

> <IUPAC Name>
tert-butyl N-[2-(hydroxymethyl)adamantan-2-yl]carbamate

> <CAS>
2408970-00-1

> <URL>
https://www.enaminestore.com/catalog/EN300-7548141

> <ROCS_ShapeQuery>
x0446_0A_x1080_0A_x0929_0A_x0812_0A_x0719_0A_x1140_0A_x0528_0A_x0310_0A

> <ROCS_TanimotoCombo>
0.418 

> <ROCS_ShapeTanimoto>
0.229 

> <ROCS_ColorTanimoto>
0.188 

> <ROCS_RefTversky>
0.210 

> <ROCS_RefColorTversky>
0.215 

> <ROCS_RefTverskyCombo>
0.424 

> <ROCS_FitTversky>
1.684 

> <ROCS_FitColorTversky>
0.606 

> <ROCS_FitTverskyCombo>
2.290 

> <ROCS_ColorScore>
-7.713

> <ROCS_Overlap>
2475.156

> <ROCS_Rank>
249                 

$$$$
untitled-dbase-347302_7
  -OEChem-02082415563D

 29 31  0     0  0  0  0  0  0999 V2000
    9.2550   13.6923   22.8195 C   0  0  0  0  0  0  0  0  0  0  0  0
   10.2654   15.3875   22.1989 C   0  0  0  0  0  0  0  0  0  0  0  0
    5.7299   12.2680   26.5941 C   0  0  0  0  0  0  0  0  0  0  0  0
    5.5082   12.7051   25.3527 C   0  0  0  0  0  0  0  0  0  0  0  0
    6.6580   13.1356   24.5320 C   0  0  0  0  0  0  0  0  0  0  0  0
    9.9657   11.5729   24.3854 C   0  0  0  0  0  0  0  0  0  0  0  0
    8.9515   10.9848   22.6565 C   0  0  0  0  0  0  0  0  0  0  0  0
    7.6481   10.7808   24.7526 C   0  0  0  0  0  0  0  0  0  0  0  0
    8.9791   10.3898   24.1047 C   0  0  0  0  0  0  0  0  0  0  0  0
    8.8885   12.3310   23.4975 C   0  0  0  0  0  0  0  0  0  0  0  0
   11.3365   16.3754   22.0289 C   0  0  0  0  0  0  0  0  0  0  0  0
   10.4293   14.2570   22.9454 N   0  0  0  0  0  0  0  0  0  0  0  0
    9.0653   15.5399   21.6312 N   0  0  0  0  0  0  0  0  0  0  0  0
    7.6201   12.1783   24.2935 N   0  0  0  0  0  0  0  0  0  0  0  0
    6.6854   14.2940   24.1218 O   0  0  0  0  0  0  0  0  0  0  0  0
    8.3803   14.3925   22.0506 O   0  0  0  0  0  0  0  0  0  0  0  0
    4.9266   11.9386   27.2446 H   0  0  0  0  0  0  0  0  0  0  0  0
    6.7409   12.2325   26.9861 H   0  0  0  0  0  0  0  0  0  0  0  0
    4.5147   12.7549   24.9266 H   0  0  0  0  0  0  0  0  0  0  0  0
   10.0507   11.8935   25.4286 H   0  0  0  0  0  0  0  0  0  0  0  0
   10.9728   11.4760   23.9626 H   0  0  0  0  0  0  0  0  0  0  0  0
    9.8502   10.8250   22.0490 H   0  0  0  0  0  0  0  0  0  0  0  0
    8.0701   10.7455   22.0531 H   0  0  0  0  0  0  0  0  0  0  0  0
    6.7927   10.2326   24.3488 H   0  0  0  0  0  0  0  0  0  0  0  0
    7.6706   10.7411   25.8450 H   0  0  0  0  0  0  0  0  0  0  0  0
    9.3437    9.3717   24.2371 H   0  0  0  0  0  0  0  0  0  0  0  0
   11.9643   16.1465   21.1481 H   0  0  0  0  0  0  0  0  0  0  0  0
   10.9469   17.4027   21.8952 H   0  0  0  0  0  0  0  0  0  0  0  0
   12.0092   16.4250   22.9066 H   0  0  0  0  0  0  0  0  0  0  0  0
  1 10  1  0  0  0  0
  1 12  2  0  0  0  0
  1 16  1  0  0  0  0
  2 11  1  0  0  0  0
  2 12  1  0  0  0  0
  2 13  2  0  0  0  0
  3  4  2  0  0  0  0
  4  5  1  0  0  0  0
  5 14  1  0  0  0  0
  5 15  2  0  0  0  0
  6  9  1  0  0  0  0
  6 10  1  0  0  0  0
  7  9  1  0  0  0  0
  7 10  1  0  0  0  0
  8  9  1  0  0  0  0
  8 14  1  0  0  0  0
 10 14  1  0  0  0  0
 13 16  1  0  0  0  0
  3 17  1  0  0  0  0
  3 18  1  0  0  0  0
  4 19  1  0  0  0  0
  6 20  1  0  0  0  0
  6 21  1  0  0  0  0
  7 22  1  0  0  0  0
  7 23  1  0  0  0  0
  8 24  1  0  0  0  0
  8 25  1  0  0  0  0
  9 26  1  0  0  0  0
 11 27  1  0  0  0  0
 11 28  1  0  0  0  0
 11 29  1  0  0  0  0
M  END
> <id>
EN300-26605817

> <smiles>
CC1=NOC(=N1)C2(CC3C2)N(C3)C(=O)C=C

> <IUPAC Name>
1-[1-(3-methyl-1,2,4-oxadiazol-5-yl)-2-azabicyclo[2.1.1]hexan-2-yl]prop-2-en-1-one

> <CAS>
2308230-73-9

> <URL>
https://www.enaminestore.com/catalog/EN300-26605817

> <ROCS_ShapeQuery>
x0446_0A_x1080_0A_x0929_0A_x0812_0A_x0719_0A_x1140_0A_x0528_0A_x0310_0A

> <ROCS_TanimotoCombo>
0.418 

> <ROCS_ShapeTanimoto>
0.218 

> <ROCS_ColorTanimoto>
0.200 

> <ROCS_RefTversky>
0.199 

> <ROCS_RefColorTversky>
0.227 

> <ROCS_RefTverskyCombo>
0.426 

> <ROCS_FitTversky>
1.779 

> <ROCS_FitColorTversky>
0.625 

> <ROCS_FitTverskyCombo>
2.405 

> <ROCS_ColorScore>
-8.164

> <ROCS_Overlap>
2343.675

> <ROCS_Rank>
250                 

$$$$
untitled-dbase-496903_8
  -OEChem-02082415563D

 38 40  0     0  0  0  0  0  0999 V2000
    8.6866   13.5440   22.5486 C   0  0  0  0  0  0  0  0  0  0  0  0
   12.6812    9.5766   23.7859 C   0  0  0  0  0  0  0  0  0  0  0  0
    7.6804   12.5309   25.4479 C   0  0  0  0  0  0  0  0  0  0  0  0
    6.3559   11.5414   23.5494 C   0  0  0  0  0  0  0  0  0  0  0  0
    9.1138   10.9104   22.2453 C   0  0  0  0  0  0  0  0  0  0  0  0
   10.2074   11.7268   23.8123 C   0  0  0  0  0  0  0  0  0  0  0  0
    6.5649   12.0538   26.3732 C   0  0  0  0  0  0  0  0  0  0  0  0
    5.3215   11.1241   24.5906 C   0  0  0  0  0  0  0  0  0  0  0  0
    8.8280   12.1620   23.1704 C   0  0  0  0  0  0  0  0  0  0  0  0
    7.7462   11.6745   24.1791 C   0  0  0  0  0  0  0  0  0  0  0  0
    9.4889   10.3322   23.6625 C   0  0  0  0  0  0  0  0  0  0  0  0
   13.8958    9.5912   22.9183 C   0  0  0  0  0  0  0  0  0  0  0  0
   10.2514    9.0492   23.7987 C   0  0  0  0  0  0  0  0  0  0  0  0
   11.5267    9.1419   23.1497 N   0  0  0  0  0  0  0  0  0  0  0  0
    7.8468   13.8574   21.7181 O   0  0  0  0  0  0  0  0  0  0  0  0
   12.7699    9.9313   24.9556 O   0  0  0  0  0  0  0  0  0  0  0  0
    5.3139   12.0327   25.6895 O   0  0  0  0  0  0  0  0  0  0  0  0
    8.2842   10.3708   24.4832 O   0  0  0  0  0  0  0  0  0  0  0  0
    9.6258   14.3886   23.0405 O   0  0  0  0  0  0  0  0  0  0  0  0
    7.4852   13.5737   25.1709 H   0  0  0  0  0  0  0  0  0  0  0  0
    8.6210   12.5069   26.0069 H   0  0  0  0  0  0  0  0  0  0  0  0
    6.3421   10.8041   22.7410 H   0  0  0  0  0  0  0  0  0  0  0  0
    6.0569   12.5067   23.1238 H   0  0  0  0  0  0  0  0  0  0  0  0
    8.2600   10.4425   21.7499 H   0  0  0  0  0  0  0  0  0  0  0  0
    9.9255   11.0084   21.5146 H   0  0  0  0  0  0  0  0  0  0  0  0
   11.1088   11.8918   23.2097 H   0  0  0  0  0  0  0  0  0  0  0  0
   10.4130   12.0506   24.8351 H   0  0  0  0  0  0  0  0  0  0  0  0
    6.7782   11.0577   26.7783 H   0  0  0  0  0  0  0  0  0  0  0  0
    6.4692   12.7395   27.2214 H   0  0  0  0  0  0  0  0  0  0  0  0
    4.3222   11.1337   24.1439 H   0  0  0  0  0  0  0  0  0  0  0  0
    5.5078   10.1074   24.9566 H   0  0  0  0  0  0  0  0  0  0  0  0
   14.0293   10.5533   22.3979 H   0  0  0  0  0  0  0  0  0  0  0  0
   14.8242    9.4392   23.4919 H   0  0  0  0  0  0  0  0  0  0  0  0
   13.9174    8.8272   22.1248 H   0  0  0  0  0  0  0  0  0  0  0  0
   10.3997    8.8405   24.8659 H   0  0  0  0  0  0  0  0  0  0  0  0
    9.6662    8.2426   23.3391 H   0  0  0  0  0  0  0  0  0  0  0  0
   11.5889    8.8737   22.1667 H   0  0  0  0  0  0  0  0  0  0  0  0
    9.5525   15.2856   22.6500 H   0  0  0  0  0  0  0  0  0  0  0  0
  1  9  1  0  0  0  0
  1 15  2  0  0  0  0
  1 19  1  0  0  0  0
  2 12  1  0  0  0  0
  2 14  1  0  0  0  0
  2 16  2  0  0  0  0
  3  7  1  0  0  0  0
  3 10  1  0  0  0  0
  4  8  1  0  0  0  0
  4 10  1  0  0  0  0
  5  9  1  0  0  0  0
  5 11  1  0  0  0  0
  6  9  1  0  0  0  0
  6 11  1  0  0  0  0
  7 17  1  0  0  0  0
  8 17  1  0  0  0  0
  9 10  1  0  0  0  0
 10 18  1  0  0  0  0
 11 13  1  0  0  0  0
 11 18  1  0  0  0  0
 13 14  1  0  0  0  0
  3 20  1  0  0  0  0
  3 21  1  0  0  0  0
  4 22  1  0  0  0  0
  4 23  1  0  0  0  0
  5 24  1  0  0  0  0
  5 25  1  0  0  0  0
  6 26  1  0  0  0  0
  6 27  1  0  0  0  0
  7 28  1  0  0  0  0
  7 29  1  0  0  0  0
  8 30  1  0  0  0  0
  8 31  1  0  0  0  0
 12 32  1  0  0  0  0
 12 33  1  0  0  0  0
 12 34  1  0  0  0  0
 13 35  1  0  0  0  0
 13 36  1  0  0  0  0
 14 37  1  0  0  0  0
 19 38  1  0  0  0  0
M  END
> <id>
EN300-28283111

> <smiles>
CC(=O)NCC1(CC2(C1)C(=O)O)OC32CCOCC3

> <IUPAC Name>
4-(acetamidomethyl)-3-oxaspiro[bicyclo[2.1.1]hexane-2,4'-oxane]-1-carboxylic acid

> <CAS>
2680779-99-9

> <URL>
https://www.enaminestore.com/catalog/EN300-28283111

> <ROCS_ShapeQuery>
x0446_0A_x1080_0A_x0929_0A_x0812_0A_x0719_0A_x1140_0A_x0528_0A_x0310_0A

> <ROCS_TanimotoCombo>
0.418 

> <ROCS_ShapeTanimoto>
0.219 

> <ROCS_ColorTanimoto>
0.198 

> <ROCS_RefTversky>
0.201 

> <ROCS_RefColorTversky>
0.239 

> <ROCS_RefTverskyCombo>
0.440 

> <ROCS_FitTversky>
1.664 

> <ROCS_FitColorTversky>
0.542 

> <ROCS_FitTverskyCombo>
2.205 

> <ROCS_ColorScore>
-8.605

> <ROCS_Overlap>
2378.711

> <ROCS_Rank>
251                 

$$$$
untitled-dbase-572511_0
  -OEChem-02082415563D

 31 35  0     0  0  0  0  0  0999 V2000
   10.0672    8.3111   23.1587 C   0  0  0  0  0  0  0  0  0  0  0  0
    5.9580   13.4873   25.2350 C   0  0  0  0  0  0  0  0  0  0  0  0
   13.2506   15.2329   21.6194 C   0  0  0  0  0  0  0  0  0  0  0  0
   10.4831    9.6193   22.9605 C   0  0  0  0  0  0  0  0  0  0  0  0
    7.1702   13.7924   24.6340 C   0  0  0  0  0  0  0  0  0  0  0  0
   12.8656   13.9145   21.8035 C   0  0  0  0  0  0  0  0  0  0  0  0
    8.8473    8.1241   23.7639 C   0  0  0  0  0  0  0  0  0  0  0  0
    5.6462   12.1566   25.3817 C   0  0  0  0  0  0  0  0  0  0  0  0
   12.3796   16.2024   22.0574 C   0  0  0  0  0  0  0  0  0  0  0  0
    9.6851   10.7088   23.3643 C   0  0  0  0  0  0  0  0  0  0  0  0
    8.0434   12.7775   24.1934 C   0  0  0  0  0  0  0  0  0  0  0  0
   11.6508   13.6030   22.4053 C   0  0  0  0  0  0  0  0  0  0  0  0
    8.4500   10.4090   23.9764 C   0  0  0  0  0  0  0  0  0  0  0  0
    7.6294   11.4431   24.3910 C   0  0  0  0  0  0  0  0  0  0  0  0
   10.0992   12.0384   23.1669 C   0  0  0  0  0  0  0  0  0  0  0  0
    9.2743   13.0795   23.5833 C   0  0  0  0  0  0  0  0  0  0  0  0
   10.8362   14.6481   22.8161 C   0  0  0  0  0  0  0  0  0  0  0  0
    8.0479    9.1344   24.1680 N   0  0  0  0  0  0  0  0  0  0  0  0
    6.4487   11.1494   24.9763 N   0  0  0  0  0  0  0  0  0  0  0  0
   11.1946   15.9295   22.6451 N   0  0  0  0  0  0  0  0  0  0  0  0
   11.2780   12.3272   22.5830 N   0  0  0  0  0  0  0  0  0  0  0  0
    9.6699   14.3570   23.3943 N   0  0  0  0  0  0  0  0  0  0  0  0
   10.6796    7.4732   22.8487 H   0  0  0  0  0  0  0  0  0  0  0  0
    5.2862   14.2669   25.5738 H   0  0  0  0  0  0  0  0  0  0  0  0
   14.1941   15.4856   21.1516 H   0  0  0  0  0  0  0  0  0  0  0  0
   11.4470    9.7801   22.4822 H   0  0  0  0  0  0  0  0  0  0  0  0
    7.4271   14.8430   24.5130 H   0  0  0  0  0  0  0  0  0  0  0  0
   13.5275   13.1179   21.4704 H   0  0  0  0  0  0  0  0  0  0  0  0
    8.4612    7.1275   23.9491 H   0  0  0  0  0  0  0  0  0  0  0  0
    4.7145   11.8475   25.8433 H   0  0  0  0  0  0  0  0  0  0  0  0
   12.6113   17.2564   21.9475 H   0  0  0  0  0  0  0  0  0  0  0  0
  1  4  2  0  0  0  0
  1  7  1  0  0  0  0
  2  5  2  0  0  0  0
  2  8  1  0  0  0  0
  3  6  2  0  0  0  0
  3  9  1  0  0  0  0
  4 10  1  0  0  0  0
  5 11  1  0  0  0  0
  6 12  1  0  0  0  0
  7 18  2  0  0  0  0
  8 19  2  0  0  0  0
  9 20  2  0  0  0  0
 10 13  2  0  0  0  0
 10 15  1  0  0  0  0
 11 14  2  0  0  0  0
 11 16  1  0  0  0  0
 12 17  2  0  0  0  0
 12 21  1  0  0  0  0
 13 14  1  0  0  0  0
 13 18  1  0  0  0  0
 14 19  1  0  0  0  0
 15 16  1  0  0  0  0
 15 21  2  0  0  0  0
 16 22  2  0  0  0  0
 17 20  1  0  0  0  0
 17 22  1  0  0  0  0
  1 23  1  0  0  0  0
  2 24  1  0  0  0  0
  3 25  1  0  0  0  0
  4 26  1  0  0  0  0
  5 27  1  0  0  0  0
  6 28  1  0  0  0  0
  7 29  1  0  0  0  0
  8 30  1  0  0  0  0
  9 31  1  0  0  0  0
M  END
> <id>
EN300-39853150

> <smiles>
[Ru+2].F[P-](F)(F)(F)(F)F.F[P-](F)(F)(F)(F)F.C=1C=CC(=NC1)C=2C=CC=CN2.C=1C=CC(=NC1)C=2C=CC=CN2.C=1C=NC=2N=C3C=4C=CC=NC4C=5N=CC=CC5C3=NC2C1

> <IUPAC Name>
lambda2-ruthenium(2+) bis(2,2'-bipyridine) 6,9,15,17,22-pentaazapentacyclo[12.8.0.0^{2,7}.0^{8,13}.0^{16,21}]docosa-1(22),2(7),3,5,8(13),9,11,14,16(21),17,19-undecaene bis(hexafluoro-lambda5-phosphanuide)

> <CAS>
1038986-72-9

> <Purity>
95

> <URL>
https://www.enaminestore.com/catalog/EN300-39853150

> <Saltdate>
[Ru+2].F[P-](F)(F)(F)(F)F.c1ccc(nc1)c2ccccn2

> <ROCS_ShapeQuery>
x0446_0A_x1080_0A_x0929_0A_x0812_0A_x0719_0A_x1140_0A_x0528_0A_x0310_0A

> <ROCS_TanimotoCombo>
0.418 

> <ROCS_ShapeTanimoto>
0.278 

> <ROCS_ColorTanimoto>
0.140 

> <ROCS_RefTversky>
0.248 

> <ROCS_RefColorTversky>
0.162 

> <ROCS_RefTverskyCombo>
0.410 

> <ROCS_FitTversky>
1.767 

> <ROCS_FitColorTversky>
0.509 

> <ROCS_FitTverskyCombo>
2.276 

> <ROCS_ColorScore>
-5.801

> <ROCS_Overlap>
2927.000

> <ROCS_Rank>
252                 

$$$$
untitled-dbase-347447_8
  -OEChem-02082415563D

 47 49  0     1  0  0  0  0  0999 V2000
   10.0311   14.9194   21.8982 C   0  0  0  0  0  0  0  0  0  0  0  0
    9.7343   10.1462   23.0933 C   0  0  0  0  0  0  0  0  0  0  0  0
    9.9828   11.6011   25.1237 C   0  0  0  0  0  0  0  0  0  0  0  0
    7.8916   10.2597   24.7891 C   0  0  0  0  0  0  0  0  0  0  0  0
    7.5866   11.3012   22.5239 C   0  0  0  0  0  0  0  0  0  0  0  0
    7.8358   12.7604   24.5604 C   0  0  0  0  0  0  0  0  0  0  0  0
    9.4170   10.2734   24.5927 C   0  0  0  0  0  0  0  0  0  0  0  0
    9.1152   11.3253   22.3180 C   0  0  1  0  0  0  0  0  0  0  0  0
    9.3647   12.7859   24.3565 C   0  0  2  0  0  0  0  0  0  0  0  0
    9.7201   12.6427   22.8578 C   0  0  0  0  0  0  0  0  0  0  0  0
    7.2400   11.4366   24.0256 C   0  0  0  0  0  0  0  0  0  0  0  0
   11.4624   17.1264   23.0075 C   0  0  0  0  0  0  0  0  0  0  0  0
   13.4039   15.5420   23.1794 C   0  0  0  0  0  0  0  0  0  0  0  0
   12.4462   16.1069   20.9273 C   0  0  0  0  0  0  0  0  0  0  0  0
    5.7217   11.4205   24.2230 C   0  0  0  0  0  0  0  0  0  0  0  0
   12.1335   15.8917   22.4074 C   0  0  0  0  0  0  0  0  0  0  0  0
    9.2724   13.7847   22.0948 N   0  0  0  0  0  0  0  0  0  0  0  0
    9.6884   15.9083   21.2585 O   0  0  0  0  0  0  0  0  0  0  0  0
    5.4515   11.5317   25.6066 O   0  0  0  0  0  0  0  0  0  0  0  0
   11.2365   14.7819   22.5273 O   0  0  0  0  0  0  0  0  0  0  0  0
   10.8207   10.1279   22.9416 H   0  0  0  0  0  0  0  0  0  0  0  0
    9.3441    9.1969   22.7060 H   0  0  0  0  0  0  0  0  0  0  0  0
    9.7704   11.6975   26.1956 H   0  0  0  0  0  0  0  0  0  0  0  0
   11.0745   11.6128   25.0145 H   0  0  0  0  0  0  0  0  0  0  0  0
    7.4827    9.3045   24.4354 H   0  0  0  0  0  0  0  0  0  0  0  0
    7.6569   10.3248   25.8594 H   0  0  0  0  0  0  0  0  0  0  0  0
    7.1178   12.1111   21.9510 H   0  0  0  0  0  0  0  0  0  0  0  0
    7.1788   10.3631   22.1252 H   0  0  0  0  0  0  0  0  0  0  0  0
    7.6075   12.8732   25.6282 H   0  0  0  0  0  0  0  0  0  0  0  0
    7.3751   13.6171   24.0528 H   0  0  0  0  0  0  0  0  0  0  0  0
    9.8663    9.4359   25.1378 H   0  0  0  0  0  0  0  0  0  0  0  0
    9.3467   11.2133   21.2519 H   0  0  0  0  0  0  0  0  0  0  0  0
    9.7752   13.7221   24.7534 H   0  0  0  0  0  0  0  0  0  0  0  0
   10.8104   12.6212   22.7397 H   0  0  0  0  0  0  0  0  0  0  0  0
   10.5501   17.3807   22.4562 H   0  0  0  0  0  0  0  0  0  0  0  0
   11.2013   16.9723   24.0596 H   0  0  0  0  0  0  0  0  0  0  0  0
   12.1193   18.0010   22.9384 H   0  0  0  0  0  0  0  0  0  0  0  0
   13.8887   14.6567   22.7522 H   0  0  0  0  0  0  0  0  0  0  0  0
   13.1716   15.2941   24.2214 H   0  0  0  0  0  0  0  0  0  0  0  0
   14.1220   16.3683   23.1713 H   0  0  0  0  0  0  0  0  0  0  0  0
   12.9276   15.2214   20.4966 H   0  0  0  0  0  0  0  0  0  0  0  0
   11.5407   16.3226   20.3510 H   0  0  0  0  0  0  0  0  0  0  0  0
   13.1496   16.9367   20.7943 H   0  0  0  0  0  0  0  0  0  0  0  0
    5.3131   10.4849   23.8464 H   0  0  0  0  0  0  0  0  0  0  0  0
    5.2744   12.2609   23.6961 H   0  0  0  0  0  0  0  0  0  0  0  0
    8.3464   13.7499   21.6795 H   0  0  0  0  0  0  0  0  0  0  0  0
    4.4844   11.5198   25.7123 H   0  0  0  0  0  0  0  0  0  0  0  0
  1 17  1  0  0  0  0
  1 18  2  0  0  0  0
  1 20  1  0  0  0  0
  2  7  1  0  0  0  0
  2  8  1  0  0  0  0
  3  7  1  0  0  0  0
  3  9  1  0  0  0  0
  4  7  1  0  0  0  0
  4 11  1  0  0  0  0
  5  8  1  0  0  0  0
  5 11  1  0  0  0  0
  6  9  1  0  0  0  0
  6 11  1  0  0  0  0
  8 10  1  0  0  0  0
  9 10  1  0  0  0  0
 10 17  1  0  0  0  0
 11 15  1  0  0  0  0
 12 16  1  0  0  0  0
 13 16  1  0  0  0  0
 14 16  1  0  0  0  0
 15 19  1  0  0  0  0
 16 20  1  0  0  0  0
  2 21  1  0  0  0  0
  2 22  1  0  0  0  0
  3 23  1  0  0  0  0
  3 24  1  0  0  0  0
  4 25  1  0  0  0  0
  4 26  1  0  0  0  0
  5 27  1  0  0  0  0
  5 28  1  0  0  0  0
  6 29  1  0  0  0  0
  6 30  1  0  0  0  0
  7 31  1  0  0  0  0
  8 32  1  0  0  0  0
  9 33  1  0  0  0  0
 10 34  1  0  0  0  0
 12 35  1  0  0  0  0
 12 36  1  0  0  0  0
 12 37  1  0  0  0  0
 13 38  1  0  0  0  0
 13 39  1  0  0  0  0
 13 40  1  0  0  0  0
 14 41  1  0  0  0  0
 14 42  1  0  0  0  0
 14 43  1  0  0  0  0
 15 44  1  0  0  0  0
 15 45  1  0  0  0  0
 17 46  1  0  0  0  0
 19 47  1  0  0  0  0
M  END
> <id>
EN300-12471841

> <smiles>
CC(C)(C)OC(=O)NC1C2CC3CC1CC(CO)(C3)C2

> <IUPAC Name>
tert-butyl N-[5-(hydroxymethyl)adamantan-2-yl]carbamate

> <CAS>
1334412-73-5

> <URL>
https://www.enaminestore.com/catalog/EN300-12471841

> <ROCS_ShapeQuery>
x0446_0A_x1080_0A_x0929_0A_x0812_0A_x0719_0A_x1140_0A_x0528_0A_x0310_0A

> <ROCS_TanimotoCombo>
0.418 

> <ROCS_ShapeTanimoto>
0.243 

> <ROCS_ColorTanimoto>
0.175 

> <ROCS_RefTversky>
0.219 

> <ROCS_RefColorTversky>
0.202 

> <ROCS_RefTverskyCombo>
0.421 

> <ROCS_FitTversky>
1.771 

> <ROCS_FitColorTversky>
0.568 

> <ROCS_FitTverskyCombo>
2.339 

> <ROCS_ColorScore>
-7.240

> <ROCS_Overlap>
2591.375

> <ROCS_Rank>
253                 

$$$$
untitled-dbase-291516_7
  -OEChem-02082415563D

 42 45  0     1  0  0  0  0  0999 V2000
   15.0964   16.4977   20.8650 C   0  0  0  0  0  0  0  0  0  0  0  0
   14.2438   17.4519   20.2709 C   0  0  0  0  0  0  0  0  0  0  0  0
   14.5804   15.4439   21.6251 C   0  0  0  0  0  0  0  0  0  0  0  0
   12.8564   17.3733   20.4240 C   0  0  0  0  0  0  0  0  0  0  0  0
   13.2095   15.3825   21.7612 C   0  0  0  0  0  0  0  0  0  0  0  0
   12.3675   16.3249   21.1746 C   0  0  0  0  0  0  0  0  0  0  0  0
   12.3762   14.4216   22.4910 C   0  0  0  0  0  0  0  0  0  0  0  0
   10.9859   15.9778   21.5228 C   0  0  0  0  0  0  0  0  0  0  0  0
    9.9374   12.8501   22.2369 C   0  0  0  0  0  0  0  0  0  0  0  0
    7.6270    9.9536   23.1861 C   0  0  0  0  0  0  0  0  0  0  0  0
    9.9738   10.2819   23.9556 C   0  0  0  0  0  0  0  0  0  0  0  0
    7.1048   10.4850   24.5290 C   0  0  0  0  0  0  0  0  0  0  0  0
    9.4505   10.7675   25.3135 C   0  0  0  0  0  0  0  0  0  0  0  0
    8.7238   12.1486   22.7735 C   0  0  1  0  0  0  0  0  0  0  0  0
    8.9690   10.6241   22.8378 C   0  0  0  0  0  0  0  0  0  0  0  0
    8.1027   11.4915   25.1337 C   0  0  0  0  0  0  0  0  0  0  0  0
    8.3336   12.6854   24.1712 C   0  0  2  0  0  0  0  0  0  0  0  0
    7.1182   13.6116   24.0871 C   0  0  0  0  0  0  0  0  0  0  0  0
   11.1033   14.8348   22.2499 N   0  0  0  0  0  0  0  0  0  0  0  0
   12.7978   13.4795   23.1324 O   0  0  0  0  0  0  0  0  0  0  0  0
   10.0031   16.6083   21.1860 O   0  0  0  0  0  0  0  0  0  0  0  0
   10.7495   12.3318   21.4821 O   0  0  0  0  0  0  0  0  0  0  0  0
    9.9786   14.1243   22.7229 O   0  0  0  0  0  0  0  0  0  0  0  0
    7.3911   14.6517   23.2865 F   0  0  0  0  0  0  0  0  0  0  0  0
    6.0676   12.9425   23.5917 F   0  0  0  0  0  0  0  0  0  0  0  0
    6.8082   14.0699   25.3083 F   0  0  0  0  0  0  0  0  0  0  0  0
   16.1713   16.5861   20.7291 H   0  0  0  0  0  0  0  0  0  0  0  0
   14.6750   18.2608   19.6866 H   0  0  0  0  0  0  0  0  0  0  0  0
   15.2363   14.7131   22.0830 H   0  0  0  0  0  0  0  0  0  0  0  0
   12.2027   18.1083   19.9696 H   0  0  0  0  0  0  0  0  0  0  0  0
    7.7498    8.8650   23.2397 H   0  0  0  0  0  0  0  0  0  0  0  0
    6.8886   10.1457   22.3986 H   0  0  0  0  0  0  0  0  0  0  0  0
   10.9513   10.7328   23.7497 H   0  0  0  0  0  0  0  0  0  0  0  0
   10.1387    9.1981   23.9925 H   0  0  0  0  0  0  0  0  0  0  0  0
    6.1201   10.9450   24.3924 H   0  0  0  0  0  0  0  0  0  0  0  0
    6.9550    9.6462   25.2200 H   0  0  0  0  0  0  0  0  0  0  0  0
    9.3348    9.9151   25.9938 H   0  0  0  0  0  0  0  0  0  0  0  0
   10.1848   11.4375   25.7766 H   0  0  0  0  0  0  0  0  0  0  0  0
    7.9238   12.3437   22.0470 H   0  0  0  0  0  0  0  0  0  0  0  0
    9.3410   10.2487   21.8775 H   0  0  0  0  0  0  0  0  0  0  0  0
    7.7401   11.8444   26.1058 H   0  0  0  0  0  0  0  0  0  0  0  0
    9.1514   13.2936   24.5822 H   0  0  0  0  0  0  0  0  0  0  0  0
  1  2  1  0  0  0  0
  1  3  2  0  0  0  0
  2  4  2  0  0  0  0
  3  5  1  0  0  0  0
  4  6  1  0  0  0  0
  5  6  2  0  0  0  0
  5  7  1  0  0  0  0
  6  8  1  0  0  0  0
  7 19  1  0  0  0  0
  7 20  2  0  0  0  0
  8 19  1  0  0  0  0
  8 21  2  0  0  0  0
  9 14  1  1  0  0  0
  9 22  2  0  0  0  0
  9 23  1  0  0  0  0
 10 12  1  0  0  0  0
 10 15  1  0  0  0  0
 11 13  1  0  0  0  0
 11 15  1  0  0  0  0
 12 16  1  0  0  0  0
 13 16  1  0  0  0  0
 14 15  1  0  0  0  0
 14 17  1  0  0  0  0
 16 17  1  0  0  0  0
 17 18  1  6  0  0  0
 18 24  1  0  0  0  0
 18 25  1  0  0  0  0
 18 26  1  0  0  0  0
 19 23  1  0  0  0  0
  1 27  1  0  0  0  0
  2 28  1  0  0  0  0
  3 29  1  0  0  0  0
  4 30  1  0  0  0  0
 10 31  1  0  0  0  0
 10 32  1  0  0  0  0
 11 33  1  0  0  0  0
 11 34  1  0  0  0  0
 12 35  1  0  0  0  0
 12 36  1  0  0  0  0
 13 37  1  0  0  0  0
 13 38  1  0  0  0  0
 14 39  1  0  0  0  0
 15 40  1  0  0  0  0
 16 41  1  0  0  0  0
 17 42  1  0  0  0  0
M  END
> <id>
EN300-6525234

> <smiles>
FC(F)(F)[C@@H]1[C@H](C2CCC1CC2)C(=O)ON3C(=O)C=4C=CC=CC4C3=O |&1:4,5,r|

> <IUPAC Name>
rac-1,3-dioxo-2,3-dihydro-1H-isoindol-2-yl (2R,3R)-3-(trifluoromethyl)bicyclo[2.2.2]octane-2-carboxylate

> <CAS>
2248274-15-7

> <URL>
https://www.enaminestore.com/catalog/EN300-6525234

> <ROCS_ShapeQuery>
x0446_0A_x1080_0A_x0929_0A_x0812_0A_x0719_0A_x1140_0A_x0528_0A_x0310_0A

> <ROCS_TanimotoCombo>
0.417 

> <ROCS_ShapeTanimoto>
0.269 

> <ROCS_ColorTanimoto>
0.148 

> <ROCS_RefTversky>
0.244 

> <ROCS_RefColorTversky>
0.173 

> <ROCS_RefTverskyCombo>
0.417 

> <ROCS_FitTversky>
1.620 

> <ROCS_FitColorTversky>
0.505 

> <ROCS_FitTverskyCombo>
2.125 

> <ROCS_ColorScore>
-6.222

> <ROCS_Overlap>
2885.784

> <ROCS_Rank>
254                 

$$$$
untitled-dbase-351328_5
  -OEChem-02082415563D

 40 43  0     0  0  0  0  0  0999 V2000
   12.7083   10.7398   22.4972 C   0  0  0  0  0  0  0  0  0  0  0  0
   10.9082    8.4824   22.6539 C   0  0  0  0  0  0  0  0  0  0  0  0
   12.9553   15.4658   22.5476 C   0  0  0  0  0  0  0  0  0  0  0  0
   11.3343   14.9141   20.8431 C   0  0  0  0  0  0  0  0  0  0  0  0
   11.9801   15.2956   23.5302 C   0  0  0  0  0  0  0  0  0  0  0  0
   10.3591   14.7439   21.8258 C   0  0  0  0  0  0  0  0  0  0  0  0
   12.6324   15.2751   21.2040 C   0  0  0  0  0  0  0  0  0  0  0  0
   10.6820   14.9346   23.1693 C   0  0  0  0  0  0  0  0  0  0  0  0
   11.3672   10.8728   22.9658 C   0  0  0  0  0  0  0  0  0  0  0  0
   10.5404    9.8026   23.0314 C   0  0  0  0  0  0  0  0  0  0  0  0
    7.6137   11.6272   24.3355 C   0  0  0  0  0  0  0  0  0  0  0  0
    8.7692   11.1315   23.8708 C   0  0  0  0  0  0  0  0  0  0  0  0
    7.7870   13.0859   24.5573 C   0  0  0  0  0  0  0  0  0  0  0  0
    9.7525   12.2833   23.7753 C   0  0  0  0  0  0  0  0  0  0  0  0
    6.3264   10.9906   24.6188 C   0  0  0  0  0  0  0  0  0  0  0  0
    5.6175   13.1407   25.2373 C   0  0  0  0  0  0  0  0  0  0  0  0
   13.6745   15.4569   20.1528 C   0  0  0  0  0  0  0  0  0  0  0  0
    4.5174   14.0339   25.7430 C   0  0  0  0  0  0  0  0  0  0  0  0
    9.6333   14.7499   24.2277 C   0  0  0  0  0  0  0  0  0  0  0  0
   13.7986   10.6314   22.1160 N   0  0  0  0  0  0  0  0  0  0  0  0
   11.2082    7.4051   22.3456 N   0  0  0  0  0  0  0  0  0  0  0  0
   10.9728   12.1503   23.3451 N   0  0  0  0  0  0  0  0  0  0  0  0
    6.8059   13.8025   24.9927 N   0  0  0  0  0  0  0  0  0  0  0  0
    5.3713   11.8722   25.0785 N   0  0  0  0  0  0  0  0  0  0  0  0
    9.2459    9.9245   23.4814 N   0  0  0  0  0  0  0  0  0  0  0  0
    9.0860   13.4146   24.2185 N   0  0  0  0  0  0  0  0  0  0  0  0
    6.1490    9.7902   24.4521 O   0  0  0  0  0  0  0  0  0  0  0  0
   13.9640   15.7477   22.8378 H   0  0  0  0  0  0  0  0  0  0  0  0
   11.0744   14.7624   19.7987 H   0  0  0  0  0  0  0  0  0  0  0  0
   12.2410   15.4447   24.5745 H   0  0  0  0  0  0  0  0  0  0  0  0
    9.3500   14.4628   21.5359 H   0  0  0  0  0  0  0  0  0  0  0  0
   14.1953   14.5103   19.9634 H   0  0  0  0  0  0  0  0  0  0  0  0
   13.2331   15.8057   19.2101 H   0  0  0  0  0  0  0  0  0  0  0  0
   14.4165   16.2083   20.4530 H   0  0  0  0  0  0  0  0  0  0  0  0
    3.9573   14.4254   24.8988 H   0  0  0  0  0  0  0  0  0  0  0  0
    4.9520   14.8534   26.3085 H   0  0  0  0  0  0  0  0  0  0  0  0
    3.8581   13.4604   26.3884 H   0  0  0  0  0  0  0  0  0  0  0  0
   10.0520   14.9360   25.2228 H   0  0  0  0  0  0  0  0  0  0  0  0
    8.8049   15.4522   24.0870 H   0  0  0  0  0  0  0  0  0  0  0  0
    8.6411    9.1137   23.5188 H   0  0  0  0  0  0  0  0  0  0  0  0
  1  9  1  0  0  0  0
  1 20  3  0  0  0  0
  2 10  1  0  0  0  0
  2 21  3  0  0  0  0
  3  5  2  0  0  0  0
  3  7  1  0  0  0  0
  4  6  1  0  0  0  0
  4  7  2  0  0  0  0
  5  8  1  0  0  0  0
  6  8  2  0  0  0  0
  7 17  1  0  0  0  0
  8 19  1  0  0  0  0
  9 10  2  0  0  0  0
  9 22  1  0  0  0  0
 10 25  1  0  0  0  0
 11 12  2  0  0  0  0
 11 13  1  0  0  0  0
 11 15  1  0  0  0  0
 12 14  1  0  0  0  0
 12 25  1  0  0  0  0
 13 23  2  0  0  0  0
 13 26  1  0  0  0  0
 14 22  2  0  0  0  0
 14 26  1  0  0  0  0
 15 24  1  0  0  0  0
 15 27  2  0  0  0  0
 16 18  1  0  0  0  0
 16 23  1  0  0  0  0
 16 24  2  0  0  0  0
 19 26  1  0  0  0  0
  3 28  1  0  0  0  0
  4 29  1  0  0  0  0
  5 30  1  0  0  0  0
  6 31  1  0  0  0  0
 17 32  1  0  0  0  0
 17 33  1  0  0  0  0
 17 34  1  0  0  0  0
 18 35  1  0  0  0  0
 18 36  1  0  0  0  0
 18 37  1  0  0  0  0
 19 38  1  0  0  0  0
 19 39  1  0  0  0  0
 25 40  1  0  0  0  0
M  END
> <id>
EN300-26615012

> <smiles>
CC=1C=CC(CN2C3=NC(C#N)=C(C#N)NC3=C4C(=O)N=C(C)N=C24)=CC1

> <IUPAC Name>
11-methyl-8-[(4-methylphenyl)methyl]-13-oxo-3,6,8,10,12-pentaazatricyclo[7.4.0.0,2,7]trideca-1,4,6,9,11-pentaene-4,5-dicarbonitrile

> <CAS>
2411200-26-3

> <URL>
https://www.enaminestore.com/catalog/EN300-26615012

> <ROCS_ShapeQuery>
x0446_0A_x1080_0A_x0929_0A_x0812_0A_x0719_0A_x1140_0A_x0528_0A_x0310_0A

> <ROCS_TanimotoCombo>
0.417 

> <ROCS_ShapeTanimoto>
0.275 

> <ROCS_ColorTanimoto>
0.143 

> <ROCS_RefTversky>
0.249 

> <ROCS_RefColorTversky>
0.171 

> <ROCS_RefTverskyCombo>
0.420 

> <ROCS_FitTversky>
1.613 

> <ROCS_FitColorTversky>
0.461 

> <ROCS_FitTverskyCombo>
2.074 

> <ROCS_ColorScore>
-6.145

> <ROCS_Overlap>
2943.200

> <ROCS_Rank>
255                 

$$$$
untitled-dbase-47150_9
  -OEChem-02082415563D

 30 32  0     0  0  0  0  0  0999 V2000
   12.9766   15.9849   22.2262 C   0  0  0  0  0  0  0  0  0  0  0  0
   12.7306   14.8128   22.9805 C   0  0  0  0  0  0  0  0  0  0  0  0
    7.4562   10.6079   24.4397 C   0  0  0  0  0  0  0  0  0  0  0  0
   11.9048   16.1236   21.3755 C   0  0  0  0  0  0  0  0  0  0  0  0
    7.5875   11.9913   24.2725 C   0  0  0  0  0  0  0  0  0  0  0  0
   11.5258   14.3191   22.5371 C   0  0  0  0  0  0  0  0  0  0  0  0
    8.8514   12.1662   23.7569 C   0  0  0  0  0  0  0  0  0  0  0  0
   11.4189   11.7962   22.7668 C   0  0  0  0  0  0  0  0  0  0  0  0
   10.7425   13.1209   22.9395 C   0  0  0  0  0  0  0  0  0  0  0  0
   10.7083   10.7182   23.1357 C   0  0  0  0  0  0  0  0  0  0  0  0
    6.6435   13.0288   24.5605 C   0  0  0  0  0  0  0  0  0  0  0  0
    4.4350   13.4803   25.3956 C   0  0  0  0  0  0  0  0  0  0  0  0
   11.2516    9.3256   23.0194 C   0  0  0  0  0  0  0  0  0  0  0  0
    8.5429    9.9359   24.0645 N   0  0  0  0  0  0  0  0  0  0  0  0
    9.5340   13.2862   23.3951 N   0  0  0  0  0  0  0  0  0  0  0  0
    9.4127   10.8945   23.6402 N   0  0  0  0  0  0  0  0  0  0  0  0
    6.8370   14.2517   24.3820 O   0  0  0  0  0  0  0  0  0  0  0  0
   11.0158   15.1123   21.5588 O   0  0  0  0  0  0  0  0  0  0  0  0
    5.4619   12.5380   25.0684 O   0  0  0  0  0  0  0  0  0  0  0  0
   11.2735    8.7278   24.2319 F   0  0  0  0  0  0  0  0  0  0  0  0
   10.4576    8.5779   22.2207 F   0  0  0  0  0  0  0  0  0  0  0  0
   13.8289   16.6454   22.2936 H   0  0  0  0  0  0  0  0  0  0  0  0
   13.3565   14.3847   23.7506 H   0  0  0  0  0  0  0  0  0  0  0  0
    6.6108   10.0525   24.8210 H   0  0  0  0  0  0  0  0  0  0  0  0
   11.6394   16.8478   20.6192 H   0  0  0  0  0  0  0  0  0  0  0  0
   12.4244   11.7461   22.3686 H   0  0  0  0  0  0  0  0  0  0  0  0
    3.5627   12.9493   25.7846 H   0  0  0  0  0  0  0  0  0  0  0  0
    4.1612   14.0472   24.5022 H   0  0  0  0  0  0  0  0  0  0  0  0
    4.8115   14.1658   26.1585 H   0  0  0  0  0  0  0  0  0  0  0  0
   12.2575    9.3460   22.6098 H   0  0  0  0  0  0  0  0  0  0  0  0
  1  2  1  0  0  0  0
  1  4  2  0  0  0  0
  2  6  2  0  0  0  0
  3  5  1  0  0  0  0
  3 14  2  0  0  0  0
  4 18  1  0  0  0  0
  5  7  2  0  0  0  0
  5 11  1  0  0  0  0
  6  9  1  0  0  0  0
  6 18  1  0  0  0  0
  7 15  1  0  0  0  0
  7 16  1  0  0  0  0
  8  9  1  0  0  0  0
  8 10  2  0  0  0  0
  9 15  2  0  0  0  0
 10 13  1  0  0  0  0
 10 16  1  0  0  0  0
 11 17  2  0  0  0  0
 11 19  1  0  0  0  0
 12 19  1  0  0  0  0
 13 20  1  0  0  0  0
 13 21  1  0  0  0  0
 14 16  1  0  0  0  0
  1 22  1  0  0  0  0
  2 23  1  0  0  0  0
  3 24  1  0  0  0  0
  4 25  1  0  0  0  0
  8 26  1  0  0  0  0
 12 27  1  0  0  0  0
 12 28  1  0  0  0  0
 12 29  1  0  0  0  0
 13 30  1  0  0  0  0
M  END
> <id>
EN300-231493

> <smiles>
COC(=O)C=1C=NN2C(=CC(=NC12)C3=CC=CO3)C(F)F

> <MDLNUMBER>
MFCD04042919

> <IUPAC Name>
methyl 7-(difluoromethyl)-5-(furan-2-yl)pyrazolo[1,5-a]pyrimidine-3-carboxylate

> <CAS>
676249-26-6

> <URL>
https://www.enaminestore.com/catalog/EN300-231493

> <ROCS_ShapeQuery>
x0446_0A_x1080_0A_x0929_0A_x0812_0A_x0719_0A_x1140_0A_x0528_0A_x0310_0A

> <ROCS_TanimotoCombo>
0.417 

> <ROCS_ShapeTanimoto>
0.265 

> <ROCS_ColorTanimoto>
0.152 

> <ROCS_RefTversky>
0.237 

> <ROCS_RefColorTversky>
0.163 

> <ROCS_RefTverskyCombo>
0.401 

> <ROCS_FitTversky>
1.797 

> <ROCS_FitColorTversky>
0.684 

> <ROCS_FitTverskyCombo>
2.481 

> <ROCS_ColorScore>
-5.834

> <ROCS_Overlap>
2804.562

> <ROCS_Rank>
256                 

$$$$
untitled-dbase-295095_7
  -OEChem-02082415563D

 42 45  0     0  0  0  0  0  0999 V2000
   13.9349   17.7857   20.7850 C   0  0  0  0  0  0  0  0  0  0  0  0
   14.8522   16.9716   21.4823 C   0  0  0  0  0  0  0  0  0  0  0  0
   12.5655   17.5048   20.7999 C   0  0  0  0  0  0  0  0  0  0  0  0
   14.4202   15.8587   22.2098 C   0  0  0  0  0  0  0  0  0  0  0  0
    9.7255   10.5892   23.0023 C   0  0  0  0  0  0  0  0  0  0  0  0
    7.9490   11.9621   23.8085 C   0  0  0  0  0  0  0  0  0  0  0  0
   12.1596   16.4049   21.5258 C   0  0  0  0  0  0  0  0  0  0  0  0
   13.0655   15.6008   22.2144 C   0  0  0  0  0  0  0  0  0  0  0  0
    9.0996   11.8350   23.0217 C   0  0  0  0  0  0  0  0  0  0  0  0
    9.1827    9.5534   23.7540 C   0  0  0  0  0  0  0  0  0  0  0  0
    7.0134   12.9586   24.1381 C   0  0  0  0  0  0  0  0  0  0  0  0
    7.5110   10.8497   24.5108 C   0  0  0  0  0  0  0  0  0  0  0  0
   10.8171   15.8502   21.7266 C   0  0  0  0  0  0  0  0  0  0  0  0
   12.3128   14.5225   22.8632 C   0  0  0  0  0  0  0  0  0  0  0  0
    9.6437   12.9711   22.2353 C   0  0  0  0  0  0  0  0  0  0  0  0
    9.8643    8.2229   23.7237 C   0  0  0  0  0  0  0  0  0  0  0  0
    7.1187   15.3776   24.8387 C   0  0  0  0  0  0  0  0  0  0  0  0
    5.6995   14.6962   22.8698 C   0  0  0  0  0  0  0  0  0  0  0  0
    6.9723   14.3584   23.6831 C   0  0  0  0  0  0  0  0  0  0  0  0
    8.0744    9.6277   24.5286 N   0  0  0  0  0  0  0  0  0  0  0  0
    6.0707   12.5123   24.9732 N   0  0  0  0  0  0  0  0  0  0  0  0
   11.0161   14.7881   22.5519 N   0  0  0  0  0  0  0  0  0  0  0  0
    9.7969   16.3027   21.2456 O   0  0  0  0  0  0  0  0  0  0  0  0
   12.8041   13.6334   23.5302 O   0  0  0  0  0  0  0  0  0  0  0  0
    9.7689   12.9444   21.0205 O   0  0  0  0  0  0  0  0  0  0  0  0
    6.3872   11.1803   25.2072 O   0  0  0  0  0  0  0  0  0  0  0  0
    9.9718   14.0304   23.0409 O   0  0  0  0  0  0  0  0  0  0  0  0
   14.3014   18.6436   20.2270 H   0  0  0  0  0  0  0  0  0  0  0  0
   15.9112   17.2148   21.4507 H   0  0  0  0  0  0  0  0  0  0  0  0
   11.8622   18.1294   20.2619 H   0  0  0  0  0  0  0  0  0  0  0  0
   15.1258   15.2325   22.7426 H   0  0  0  0  0  0  0  0  0  0  0  0
   10.6219   10.4318   22.4089 H   0  0  0  0  0  0  0  0  0  0  0  0
   10.6162    8.1650   24.5184 H   0  0  0  0  0  0  0  0  0  0  0  0
    9.1445    7.4075   23.8613 H   0  0  0  0  0  0  0  0  0  0  0  0
   10.3588    8.0548   22.7596 H   0  0  0  0  0  0  0  0  0  0  0  0
    6.3242   15.2530   25.5825 H   0  0  0  0  0  0  0  0  0  0  0  0
    7.0809   16.4128   24.4824 H   0  0  0  0  0  0  0  0  0  0  0  0
    8.0782   15.2331   25.3479 H   0  0  0  0  0  0  0  0  0  0  0  0
    4.8059   14.5105   23.4761 H   0  0  0  0  0  0  0  0  0  0  0  0
    5.6191   14.0909   21.9602 H   0  0  0  0  0  0  0  0  0  0  0  0
    5.6867   15.7497   22.5697 H   0  0  0  0  0  0  0  0  0  0  0  0
    7.8213   14.5746   22.9962 H   0  0  0  0  0  0  0  0  0  0  0  0
  1  2  1  0  0  0  0
  1  3  2  0  0  0  0
  2  4  2  0  0  0  0
  3  7  1  0  0  0  0
  4  8  1  0  0  0  0
  5  9  2  0  0  0  0
  5 10  1  0  0  0  0
  6  9  1  0  0  0  0
  6 11  1  0  0  0  0
  6 12  2  0  0  0  0
  7  8  2  0  0  0  0
  7 13  1  0  0  0  0
  8 14  1  0  0  0  0
  9 15  1  0  0  0  0
 10 16  1  0  0  0  0
 10 20  2  0  0  0  0
 11 19  1  0  0  0  0
 11 21  2  0  0  0  0
 12 20  1  0  0  0  0
 12 26  1  0  0  0  0
 13 22  1  0  0  0  0
 13 23  2  0  0  0  0
 14 22  1  0  0  0  0
 14 24  2  0  0  0  0
 15 25  2  0  0  0  0
 15 27  1  0  0  0  0
 17 19  1  0  0  0  0
 18 19  1  0  0  0  0
 21 26  1  0  0  0  0
 22 27  1  0  0  0  0
  1 28  1  0  0  0  0
  2 29  1  0  0  0  0
  3 30  1  0  0  0  0
  4 31  1  0  0  0  0
  5 32  1  0  0  0  0
 16 33  1  0  0  0  0
 16 34  1  0  0  0  0
 16 35  1  0  0  0  0
 17 36  1  0  0  0  0
 17 37  1  0  0  0  0
 17 38  1  0  0  0  0
 18 39  1  0  0  0  0
 18 40  1  0  0  0  0
 18 41  1  0  0  0  0
 19 42  1  0  0  0  0
M  END
> <id>
EN300-6520518

> <smiles>
CC(C)C1=NOC=2N=C(C)C=C(C(=O)ON3C(=O)C=4C=CC=CC4C3=O)C12

> <IUPAC Name>
1,3-dioxo-2,3-dihydro-1H-isoindol-2-yl 6-methyl-3-(propan-2-yl)-[1,2]oxazolo[5,4-b]pyridine-4-carboxylate

> <CAS>
2248298-18-0

> <URL>
https://www.enaminestore.com/catalog/EN300-6520518

> <ROCS_ShapeQuery>
x0446_0A_x1080_0A_x0929_0A_x0812_0A_x0719_0A_x1140_0A_x0528_0A_x0310_0A

> <ROCS_TanimotoCombo>
0.417 

> <ROCS_ShapeTanimoto>
0.277 

> <ROCS_ColorTanimoto>
0.140 

> <ROCS_RefTversky>
0.251 

> <ROCS_RefColorTversky>
0.162 

> <ROCS_RefTverskyCombo>
0.413 

> <ROCS_FitTversky>
1.616 

> <ROCS_FitColorTversky>
0.509 

> <ROCS_FitTverskyCombo>
2.125 

> <ROCS_ColorScore>
-5.803

> <ROCS_Overlap>
2964.636

> <ROCS_Rank>
257                 

$$$$
untitled-dbase-265230_1
  -OEChem-02082415563D

 54 57  0     1  0  0  0  0  0999 V2000
   11.2816   12.7183   21.1178 C   0  0  0  0  0  0  0  0  0  0  0  0
   10.4703   13.8065   20.7967 C   0  0  0  0  0  0  0  0  0  0  0  0
   12.4438   14.0667   22.7512 C   0  0  0  0  0  0  0  0  0  0  0  0
   12.2684   12.8483   22.0951 C   0  0  0  0  0  0  0  0  0  0  0  0
   10.6457   15.0248   21.4529 C   0  0  0  0  0  0  0  0  0  0  0  0
   11.6325   15.1550   22.4301 C   0  0  0  0  0  0  0  0  0  0  0  0
    7.9518   11.3393   23.4408 C   0  0  0  0  0  0  0  0  0  0  0  0
    8.6310   12.3030   24.1371 C   0  0  0  0  0  0  0  0  0  0  0  0
   10.1389   10.9298   23.4948 C   0  0  0  0  0  0  0  0  0  0  0  0
    6.5369   11.3589   23.2291 C   0  0  0  0  0  0  0  0  0  0  0  0
    6.5850   13.5239   24.5900 C   0  0  0  0  0  0  0  0  0  0  0  0
    9.9523    8.3245   22.4200 C   0  0  0  0  0  0  0  0  0  0  0  0
    8.7488    9.2465   22.2697 C   0  0  0  0  0  0  0  0  0  0  0  0
   11.2533    9.1120   22.2813 C   0  0  0  0  0  0  0  0  0  0  0  0
    8.7670   14.3840   25.4473 C   0  0  0  0  0  0  0  0  0  0  0  0
    4.4778   12.5852   23.6801 C   0  0  0  0  0  0  0  0  0  0  0  0
    8.8631   15.8631   20.1204 C   0  0  0  0  0  0  0  0  0  0  0  0
   12.8438   16.3895   24.0625 C   0  0  0  0  0  0  0  0  0  0  0  0
   13.1444   11.6704   22.4444 C   0  0  0  0  0  0  0  0  0  0  0  0
   12.5659   10.8095   23.5647 C   0  0  0  0  0  0  0  0  0  0  0  0
    9.9759   12.0530   24.1738 N   0  0  0  0  0  0  0  0  0  0  0  0
    8.9182   10.4575   23.0486 N   0  0  0  0  0  0  0  0  0  0  0  0
    7.9901   13.3903   24.7154 N   0  0  0  0  0  0  0  0  0  0  0  0
   11.2787   10.2343   23.2174 N   0  0  1  0  0  0  0  0  0  0  0  0
    5.9251   12.4880   23.8421 N   0  0  0  0  0  0  0  0  0  0  0  0
    5.9268   10.5046   22.5906 O   0  0  0  0  0  0  0  0  0  0  0  0
    5.9694   14.4712   25.0910 O   0  0  0  0  0  0  0  0  0  0  0  0
    9.8468   16.0802   21.1299 O   0  0  0  0  0  0  0  0  0  0  0  0
   11.8139   16.3400   23.0772 O   0  0  0  0  0  0  0  0  0  0  0  0
   11.1367   11.7725   20.6027 H   0  0  0  0  0  0  0  0  0  0  0  0
    9.7039   13.6984   20.0342 H   0  0  0  0  0  0  0  0  0  0  0  0
   13.2119   14.1706   23.5139 H   0  0  0  0  0  0  0  0  0  0  0  0
    9.9160    7.8166   23.3899 H   0  0  0  0  0  0  0  0  0  0  0  0
    9.9195    7.5440   21.6486 H   0  0  0  0  0  0  0  0  0  0  0  0
    8.6171    9.5223   21.2194 H   0  0  0  0  0  0  0  0  0  0  0  0
    7.8354    8.7633   22.6335 H   0  0  0  0  0  0  0  0  0  0  0  0
   12.1132    8.4588   22.4745 H   0  0  0  0  0  0  0  0  0  0  0  0
   11.3411    9.4724   21.2498 H   0  0  0  0  0  0  0  0  0  0  0  0
    9.0930   15.1761   24.7573 H   0  0  0  0  0  0  0  0  0  0  0  0
    8.1453   14.8228   26.2416 H   0  0  0  0  0  0  0  0  0  0  0  0
    9.6486   13.9025   25.8955 H   0  0  0  0  0  0  0  0  0  0  0  0
    3.9795   12.0639   24.5107 H   0  0  0  0  0  0  0  0  0  0  0  0
    4.1792   13.6439   23.6801 H   0  0  0  0  0  0  0  0  0  0  0  0
    4.1836   12.1213   22.7271 H   0  0  0  0  0  0  0  0  0  0  0  0
    8.2956   16.7830   19.9598 H   0  0  0  0  0  0  0  0  0  0  0  0
    8.1923   15.0581   20.4312 H   0  0  0  0  0  0  0  0  0  0  0  0
    9.3636   15.5795   19.1915 H   0  0  0  0  0  0  0  0  0  0  0  0
   12.8820   17.3897   24.5009 H   0  0  0  0  0  0  0  0  0  0  0  0
   13.8037   16.1458   23.6000 H   0  0  0  0  0  0  0  0  0  0  0  0
   12.6228   15.6594   24.8447 H   0  0  0  0  0  0  0  0  0  0  0  0
   14.1292   12.0471   22.7484 H   0  0  0  0  0  0  0  0  0  0  0  0
   13.3182   11.0590   21.5497 H   0  0  0  0  0  0  0  0  0  0  0  0
   13.2386    9.9726   23.7772 H   0  0  0  0  0  0  0  0  0  0  0  0
   12.4330   11.3835   24.4877 H   0  0  0  0  0  0  0  0  0  0  0  0
  1  2  2  0  0  0  0
  1  4  1  0  0  0  0
  2  5  1  0  0  0  0
  3  4  2  0  0  0  0
  3  6  1  0  0  0  0
  4 19  1  0  0  0  0
  5  6  2  0  0  0  0
  5 28  1  0  0  0  0
  6 29  1  0  0  0  0
  7  8  2  0  0  0  0
  7 10  1  0  0  0  0
  7 22  1  0  0  0  0
  8 21  1  0  0  0  0
  8 23  1  0  0  0  0
  9 21  2  0  0  0  0
  9 22  1  0  0  0  0
  9 24  1  0  0  0  0
 10 25  1  0  0  0  0
 10 26  2  0  0  0  0
 11 23  1  0  0  0  0
 11 25  1  0  0  0  0
 11 27  2  0  0  0  0
 12 13  1  0  0  0  0
 12 14  1  0  0  0  0
 13 22  1  0  0  0  0
 14 24  1  0  0  0  0
 15 23  1  0  0  0  0
 16 25  1  0  0  0  0
 17 28  1  0  0  0  0
 18 29  1  0  0  0  0
 19 20  1  0  0  0  0
 20 24  1  0  0  0  0
  1 30  1  0  0  0  0
  2 31  1  0  0  0  0
  3 32  1  0  0  0  0
 12 33  1  0  0  0  0
 12 34  1  0  0  0  0
 13 35  1  0  0  0  0
 13 36  1  0  0  0  0
 14 37  1  0  0  0  0
 14 38  1  0  0  0  0
 15 39  1  0  0  0  0
 15 40  1  0  0  0  0
 15 41  1  0  0  0  0
 16 42  1  0  0  0  0
 16 43  1  0  0  0  0
 16 44  1  0  0  0  0
 17 45  1  0  0  0  0
 17 46  1  0  0  0  0
 17 47  1  0  0  0  0
 18 48  1  0  0  0  0
 18 49  1  0  0  0  0
 18 50  1  0  0  0  0
 19 51  1  0  0  0  0
 19 52  1  0  0  0  0
 20 53  1  0  0  0  0
 20 54  1  0  0  0  0
M  END
> <id>
EN300-26867979

> <smiles>
COC=1C=CC(CCN2CCCN3C2=NC=4N(C)C(=O)N(C)C(=O)C34)=CC1OC

> <MDLNUMBER>
MFCD06611457

> <IUPAC Name>
9-[2-(3,4-dimethoxyphenyl)ethyl]-1,3-dimethyl-1H,2H,3H,4H,6H,7H,8H,9H-pyrimido[1,2-g]purine-2,4-dione

> <CAS>
872628-31-4

> <URL>
https://www.enaminestore.com/catalog/EN300-26867979

> <ROCS_ShapeQuery>
x0446_0A_x1080_0A_x0929_0A_x0812_0A_x0719_0A_x1140_0A_x0528_0A_x0310_0A

> <ROCS_TanimotoCombo>
0.417 

> <ROCS_ShapeTanimoto>
0.268 

> <ROCS_ColorTanimoto>
0.150 

> <ROCS_RefTversky>
0.245 

> <ROCS_RefColorTversky>
0.171 

> <ROCS_RefTverskyCombo>
0.417 

> <ROCS_FitTversky>
1.523 

> <ROCS_FitColorTversky>
0.539 

> <ROCS_FitTverskyCombo>
2.062 

> <ROCS_ColorScore>
-6.144

> <ROCS_Overlap>
2899.849

> <ROCS_Rank>
258                 

$$$$
untitled-dbase-492882_8
  -OEChem-02082415563D

 38 41  0     0  0  0  0  0  0999 V2000
    1.7840   14.0765   23.8494 C   0  0  0  0  0  0  0  0  0  0  0  0
    2.6526   14.3691   22.7979 C   0  0  0  0  0  0  0  0  0  0  0  0
    2.2240   13.3012   24.9223 C   0  0  0  0  0  0  0  0  0  0  0  0
   13.1513   14.7049   21.2955 C   0  0  0  0  0  0  0  0  0  0  0  0
   13.3925   14.2933   22.6062 C   0  0  0  0  0  0  0  0  0  0  0  0
    3.9611   13.8864   22.8193 C   0  0  0  0  0  0  0  0  0  0  0  0
    3.5324   12.8185   24.9436 C   0  0  0  0  0  0  0  0  0  0  0  0
   11.8413   14.8776   20.8486 C   0  0  0  0  0  0  0  0  0  0  0  0
   12.3237   14.0543   23.4700 C   0  0  0  0  0  0  0  0  0  0  0  0
    6.9401   13.3165   23.8991 C   0  0  0  0  0  0  0  0  0  0  0  0
    9.8289   10.4404   23.9990 C   0  0  0  0  0  0  0  0  0  0  0  0
    8.0864   12.4614   23.9298 C   0  0  0  0  0  0  0  0  0  0  0  0
    4.4010   13.1110   23.8921 C   0  0  0  0  0  0  0  0  0  0  0  0
   10.7725   14.6386   21.7124 C   0  0  0  0  0  0  0  0  0  0  0  0
   11.0137   14.2269   23.0231 C   0  0  0  0  0  0  0  0  0  0  0  0
    5.7558   12.6122   23.9145 C   0  0  0  0  0  0  0  0  0  0  0  0
    9.4623   12.7120   23.9290 C   0  0  0  0  0  0  0  0  0  0  0  0
    7.7063   11.1261   23.9678 C   0  0  0  0  0  0  0  0  0  0  0  0
    9.4127   14.8248   21.2255 C   0  0  0  0  0  0  0  0  0  0  0  0
   10.3400   11.6866   23.9642 N   0  0  0  0  0  0  0  0  0  0  0  0
    8.5371   10.0659   24.0036 N   0  0  0  0  0  0  0  0  0  0  0  0
    8.7790   13.7307   20.6458 N   0  0  0  0  0  0  0  0  0  0  0  0
    8.8417   15.9253   21.3079 O   0  0  0  0  0  0  0  0  0  0  0  0
    9.9705   13.9875   23.8928 O   0  0  0  0  0  0  0  0  0  0  0  0
    6.0143   10.9221   23.9652 S   0  0  0  0  0  0  0  0  0  0  0  0
    0.7654   14.4529   23.8330 H   0  0  0  0  0  0  0  0  0  0  0  0
    2.3097   14.9727   21.9625 H   0  0  0  0  0  0  0  0  0  0  0  0
    1.5480   13.0743   25.7416 H   0  0  0  0  0  0  0  0  0  0  0  0
   13.9839   14.8910   20.6230 H   0  0  0  0  0  0  0  0  0  0  0  0
   14.4127   14.1585   22.9534 H   0  0  0  0  0  0  0  0  0  0  0  0
    4.6268   14.1254   21.9934 H   0  0  0  0  0  0  0  0  0  0  0  0
    3.8599   12.2146   25.7866 H   0  0  0  0  0  0  0  0  0  0  0  0
   11.6653   15.1992   19.8252 H   0  0  0  0  0  0  0  0  0  0  0  0
   12.5185   13.7339   24.4899 H   0  0  0  0  0  0  0  0  0  0  0  0
    6.9890   14.3986   23.8666 H   0  0  0  0  0  0  0  0  0  0  0  0
   10.5541    9.6346   24.0260 H   0  0  0  0  0  0  0  0  0  0  0  0
    9.2740   12.8479   20.5796 H   0  0  0  0  0  0  0  0  0  0  0  0
    7.8317   13.7972   20.2877 H   0  0  0  0  0  0  0  0  0  0  0  0
  1  2  1  0  0  0  0
  1  3  2  0  0  0  0
  2  6  2  0  0  0  0
  3  7  1  0  0  0  0
  4  5  1  0  0  0  0
  4  8  2  0  0  0  0
  5  9  2  0  0  0  0
  6 13  1  0  0  0  0
  7 13  2  0  0  0  0
  8 14  1  0  0  0  0
  9 15  1  0  0  0  0
 10 12  1  0  0  0  0
 10 16  2  0  0  0  0
 11 20  2  0  0  0  0
 11 21  1  0  0  0  0
 12 17  2  0  0  0  0
 12 18  1  0  0  0  0
 13 16  1  0  0  0  0
 14 15  2  0  0  0  0
 14 19  1  0  0  0  0
 15 24  1  0  0  0  0
 16 25  1  0  0  0  0
 17 20  1  0  0  0  0
 17 24  1  0  0  0  0
 18 21  2  0  0  0  0
 18 25  1  0  0  0  0
 19 22  1  0  0  0  0
 19 23  2  0  0  0  0
  1 26  1  0  0  0  0
  2 27  1  0  0  0  0
  3 28  1  0  0  0  0
  4 29  1  0  0  0  0
  5 30  1  0  0  0  0
  6 31  1  0  0  0  0
  7 32  1  0  0  0  0
  8 33  1  0  0  0  0
  9 34  1  0  0  0  0
 10 35  1  0  0  0  0
 11 36  1  0  0  0  0
 22 37  1  0  0  0  0
 22 38  1  0  0  0  0
M  END
> <id>
EN300-7466146

> <smiles>
NC(=O)C=1C=CC=CC1OC=2N=CN=C3SC(=CC23)C=4C=CC=CC4

> <MDLNUMBER>
MFCD08525536

> <IUPAC Name>
2-({6-phenylthieno[2,3-d]pyrimidin-4-yl}oxy)benzamide

> <CAS>
920818-76-4

> <Purity>
95

> <URL>
https://www.enaminestore.com/catalog/EN300-7466146

> <ROCS_ShapeQuery>
x0446_0A_x1080_0A_x0929_0A_x0812_0A_x0719_0A_x1140_0A_x0528_0A_x0310_0A

> <ROCS_TanimotoCombo>
0.417 

> <ROCS_ShapeTanimoto>
0.227 

> <ROCS_ColorTanimoto>
0.191 

> <ROCS_RefTversky>
0.212 

> <ROCS_RefColorTversky>
0.207 

> <ROCS_RefTverskyCombo>
0.418 

> <ROCS_FitTversky>
1.455 

> <ROCS_FitColorTversky>
0.709 

> <ROCS_FitTverskyCombo>
2.164 

> <ROCS_ColorScore>
-7.397

> <ROCS_Overlap>
2500.929

> <ROCS_Rank>
259                 

$$$$
untitled-dbase-475143_5
  -OEChem-02082415563D

 40 42  0     1  0  0  0  0  0999 V2000
   16.6821   11.3963   24.6726 C   0  0  0  0  0  0  0  0  0  0  0  0
   16.6946   12.6853   24.1399 C   0  0  0  0  0  0  0  0  0  0  0  0
   15.4717   10.7984   25.0239 C   0  0  0  0  0  0  0  0  0  0  0  0
   15.4967   13.3767   23.9586 C   0  0  0  0  0  0  0  0  0  0  0  0
   14.2739   11.4898   24.8426 C   0  0  0  0  0  0  0  0  0  0  0  0
   14.2863   12.7789   24.3100 C   0  0  0  0  0  0  0  0  0  0  0  0
    7.7183   13.5118   23.0093 C   0  0  0  0  0  0  0  0  0  0  0  0
   10.7019   13.1108   23.6602 C   0  0  0  0  0  0  0  0  0  0  0  0
    8.0170   12.0046   25.0919 C   0  0  0  0  0  0  0  0  0  0  0  0
    8.3206   10.4913   25.2013 C   0  0  0  0  0  0  0  0  0  0  0  0
    7.7548   11.0098   22.9509 C   0  0  0  0  0  0  0  0  0  0  0  0
   10.0540   10.6933   23.3727 C   0  0  0  0  0  0  0  0  0  0  0  0
    8.3105   12.2822   23.6139 C   0  0  1  0  0  0  0  0  0  0  0  0
    8.6824   10.0897   23.7444 C   0  0  1  0  0  0  0  0  0  0  0  0
    8.5556    8.6130   23.4515 C   0  0  0  0  0  0  0  0  0  0  0  0
   12.9974   13.5221   24.1155 C   0  0  0  0  0  0  0  0  0  0  0  0
    9.7569   12.1274   23.4069 N   0  0  0  0  0  0  0  0  0  0  0  0
    7.8640   13.8629   21.8479 O   0  0  0  0  0  0  0  0  0  0  0  0
   10.4616   14.3153   23.6908 O   0  0  0  0  0  0  0  0  0  0  0  0
    6.9929   14.1952   23.9279 O   0  0  0  0  0  0  0  0  0  0  0  0
   11.9490   12.5807   23.8603 O   0  0  0  0  0  0  0  0  0  0  0  0
   17.6148   10.8576   24.8124 H   0  0  0  0  0  0  0  0  0  0  0  0
   17.6368   13.1506   23.8653 H   0  0  0  0  0  0  0  0  0  0  0  0
   15.4616    9.7944   25.4376 H   0  0  0  0  0  0  0  0  0  0  0  0
   15.5160   14.3808   23.5431 H   0  0  0  0  0  0  0  0  0  0  0  0
   13.3357   11.0161   25.1193 H   0  0  0  0  0  0  0  0  0  0  0  0
    6.9689   12.2057   25.3424 H   0  0  0  0  0  0  0  0  0  0  0  0
    8.6380   12.5990   25.7705 H   0  0  0  0  0  0  0  0  0  0  0  0
    9.1413   10.2934   25.8987 H   0  0  0  0  0  0  0  0  0  0  0  0
    7.4322    9.9580   25.5585 H   0  0  0  0  0  0  0  0  0  0  0  0
    6.6901   10.8420   23.1527 H   0  0  0  0  0  0  0  0  0  0  0  0
    7.9201   10.9769   21.8672 H   0  0  0  0  0  0  0  0  0  0  0  0
   10.8432   10.4355   24.0857 H   0  0  0  0  0  0  0  0  0  0  0  0
   10.3721   10.4350   22.3570 H   0  0  0  0  0  0  0  0  0  0  0  0
    8.8246    8.4016   22.4118 H   0  0  0  0  0  0  0  0  0  0  0  0
    7.5280    8.2741   23.6159 H   0  0  0  0  0  0  0  0  0  0  0  0
    9.2171    8.0325   24.1022 H   0  0  0  0  0  0  0  0  0  0  0  0
   12.7437   14.1063   25.0066 H   0  0  0  0  0  0  0  0  0  0  0  0
   13.0727   14.2140   23.2697 H   0  0  0  0  0  0  0  0  0  0  0  0
    6.5963   15.0090   23.5500 H   0  0  0  0  0  0  0  0  0  0  0  0
  1  2  1  0  0  0  0
  1  3  2  0  0  0  0
  2  4  2  0  0  0  0
  3  5  1  0  0  0  0
  4  6  1  0  0  0  0
  5  6  2  0  0  0  0
  6 16  1  0  0  0  0
  7 13  1  0  0  0  0
  7 18  2  0  0  0  0
  7 20  1  0  0  0  0
  8 17  1  0  0  0  0
  8 19  2  0  0  0  0
  8 21  1  0  0  0  0
  9 10  1  0  0  0  0
  9 13  1  0  0  0  0
 10 14  1  0  0  0  0
 11 13  1  0  0  0  0
 11 14  1  0  0  0  0
 12 14  1  0  0  0  0
 12 17  1  0  0  0  0
 13 17  1  0  0  0  0
 14 15  1  0  0  0  0
 16 21  1  0  0  0  0
  1 22  1  0  0  0  0
  2 23  1  0  0  0  0
  3 24  1  0  0  0  0
  4 25  1  0  0  0  0
  5 26  1  0  0  0  0
  9 27  1  0  0  0  0
  9 28  1  0  0  0  0
 10 29  1  0  0  0  0
 10 30  1  0  0  0  0
 11 31  1  0  0  0  0
 11 32  1  0  0  0  0
 12 33  1  0  0  0  0
 12 34  1  0  0  0  0
 15 35  1  0  0  0  0
 15 36  1  0  0  0  0
 15 37  1  0  0  0  0
 16 38  1  0  0  0  0
 16 39  1  0  0  0  0
 20 40  1  0  0  0  0
M  END
> <id>
EN300-27731043

> <smiles>
CC1(CCC2(C1)C(=O)O)CN2C(=O)OCC=3C=CC=CC3

> <IUPAC Name>
2-[(benzyloxy)carbonyl]-4-methyl-2-azabicyclo[2.2.1]heptane-1-carboxylic acid

> <CAS>
2580190-70-9

> <URL>
https://www.enaminestore.com/catalog/EN300-27731043

> <ROCS_ShapeQuery>
x0446_0A_x1080_0A_x0929_0A_x0812_0A_x0719_0A_x1140_0A_x0528_0A_x0310_0A

> <ROCS_TanimotoCombo>
0.417 

> <ROCS_ShapeTanimoto>
0.235 

> <ROCS_ColorTanimoto>
0.182 

> <ROCS_RefTversky>
0.215 

> <ROCS_RefColorTversky>
0.208 

> <ROCS_RefTverskyCombo>
0.423 

> <ROCS_FitTversky>
1.659 

> <ROCS_FitColorTversky>
0.590 

> <ROCS_FitTverskyCombo>
2.250 

> <ROCS_ColorScore>
-7.473

> <ROCS_Overlap>
2539.925

> <ROCS_Rank>
260                 

$$$$
untitled-dbase-293495_8
  -OEChem-02082415563D

 46 50  0     0  0  0  0  0  0999 V2000
    9.9156    8.4482   22.7467 C   0  0  0  0  0  0  0  0  0  0  0  0
    8.5267    8.2105   22.7913 C   0  0  0  0  0  0  0  0  0  0  0  0
   15.3446   15.0361   20.4214 C   0  0  0  0  0  0  0  0  0  0  0  0
   14.9420   13.8785   19.7225 C   0  0  0  0  0  0  0  0  0  0  0  0
   10.4519    9.6606   23.1897 C   0  0  0  0  0  0  0  0  0  0  0  0
    7.6467    9.1803   23.2801 C   0  0  0  0  0  0  0  0  0  0  0  0
   14.4896   15.6611   21.3339 C   0  0  0  0  0  0  0  0  0  0  0  0
   13.6756   13.3206   19.9208 C   0  0  0  0  0  0  0  0  0  0  0  0
    6.5630   15.8678   22.6904 C   0  0  0  0  0  0  0  0  0  0  0  0
    9.5648   10.6028   23.6681 C   0  0  0  0  0  0  0  0  0  0  0  0
    8.1982   10.3689   23.7124 C   0  0  0  0  0  0  0  0  0  0  0  0
   13.2463   15.0934   21.5174 C   0  0  0  0  0  0  0  0  0  0  0  0
   12.8487   13.9503   20.8272 C   0  0  0  0  0  0  0  0  0  0  0  0
    7.7359   15.2432   23.0376 C   0  0  0  0  0  0  0  0  0  0  0  0
    7.4455   14.6014   24.2564 C   0  0  0  0  0  0  0  0  0  0  0  0
    9.8119   11.9452   24.1928 C   0  0  0  0  0  0  0  0  0  0  0  0
    7.5519   11.5586   24.2661 C   0  0  0  0  0  0  0  0  0  0  0  0
   12.1376   15.5097   22.3822 C   0  0  0  0  0  0  0  0  0  0  0  0
   11.4811   13.6225   21.2423 C   0  0  0  0  0  0  0  0  0  0  0  0
    8.9530   15.2746   22.2846 C   0  0  0  0  0  0  0  0  0  0  0  0
    4.3024   16.0098   23.7618 C   0  0  0  0  0  0  0  0  0  0  0  0
    8.3651   13.7646   25.0980 C   0  0  0  0  0  0  0  0  0  0  0  0
    6.1868   14.8002   24.6567 N   0  0  0  0  0  0  0  0  0  0  0  0
    5.6760   15.5739   23.6839 N   0  0  0  0  0  0  0  0  0  0  0  0
    8.5722   12.4475   24.5296 N   0  0  0  0  0  0  0  0  0  0  0  0
   11.1828   14.5635   22.1775 N   0  0  0  0  0  0  0  0  0  0  0  0
   10.9149   12.4511   24.2841 O   0  0  0  0  0  0  0  0  0  0  0  0
    6.3508   11.6660   24.4303 O   0  0  0  0  0  0  0  0  0  0  0  0
   12.1476   16.4848   23.1074 O   0  0  0  0  0  0  0  0  0  0  0  0
   10.8277   12.6910   20.8154 O   0  0  0  0  0  0  0  0  0  0  0  0
    9.1163   15.8788   21.2006 O   0  0  0  0  0  0  0  0  0  0  0  0
    9.9629   14.5583   22.8887 O   0  0  0  0  0  0  0  0  0  0  0  0
   10.5768    7.6760   22.3617 H   0  0  0  0  0  0  0  0  0  0  0  0
    8.1368    7.2587   22.4397 H   0  0  0  0  0  0  0  0  0  0  0  0
   16.3353   15.4472   20.2448 H   0  0  0  0  0  0  0  0  0  0  0  0
   15.6287   13.4158   19.0183 H   0  0  0  0  0  0  0  0  0  0  0  0
   11.5195    9.8431   23.1548 H   0  0  0  0  0  0  0  0  0  0  0  0
    6.5793    8.9973   23.3142 H   0  0  0  0  0  0  0  0  0  0  0  0
   14.7989   16.5516   21.8682 H   0  0  0  0  0  0  0  0  0  0  0  0
   13.3664   12.4332   19.3814 H   0  0  0  0  0  0  0  0  0  0  0  0
    6.2895   16.4815   21.8425 H   0  0  0  0  0  0  0  0  0  0  0  0
    3.6822   15.2616   23.2613 H   0  0  0  0  0  0  0  0  0  0  0  0
    4.0106   16.1085   24.8111 H   0  0  0  0  0  0  0  0  0  0  0  0
    4.2031   16.9814   23.2696 H   0  0  0  0  0  0  0  0  0  0  0  0
    9.3437   14.2469   25.1970 H   0  0  0  0  0  0  0  0  0  0  0  0
    7.9633   13.6339   26.1082 H   0  0  0  0  0  0  0  0  0  0  0  0
  1  2  1  0  0  0  0
  1  5  2  0  0  0  0
  2  6  2  0  0  0  0
  3  4  1  0  0  0  0
  3  7  2  0  0  0  0
  4  8  2  0  0  0  0
  5 10  1  0  0  0  0
  6 11  1  0  0  0  0
  7 12  1  0  0  0  0
  8 13  1  0  0  0  0
  9 14  2  0  0  0  0
  9 24  1  0  0  0  0
 10 11  2  0  0  0  0
 10 16  1  0  0  0  0
 11 17  1  0  0  0  0
 12 13  2  0  0  0  0
 12 18  1  0  0  0  0
 13 19  1  0  0  0  0
 14 15  1  0  0  0  0
 14 20  1  0  0  0  0
 15 22  1  0  0  0  0
 15 23  2  0  0  0  0
 16 25  1  0  0  0  0
 16 27  2  0  0  0  0
 17 25  1  0  0  0  0
 17 28  2  0  0  0  0
 18 26  1  0  0  0  0
 18 29  2  0  0  0  0
 19 26  1  0  0  0  0
 19 30  2  0  0  0  0
 20 31  2  0  0  0  0
 20 32  1  0  0  0  0
 21 24  1  0  0  0  0
 22 25  1  0  0  0  0
 23 24  1  0  0  0  0
 26 32  1  0  0  0  0
  1 33  1  0  0  0  0
  2 34  1  0  0  0  0
  3 35  1  0  0  0  0
  4 36  1  0  0  0  0
  5 37  1  0  0  0  0
  6 38  1  0  0  0  0
  7 39  1  0  0  0  0
  8 40  1  0  0  0  0
  9 41  1  0  0  0  0
 21 42  1  0  0  0  0
 21 43  1  0  0  0  0
 21 44  1  0  0  0  0
 22 45  1  0  0  0  0
 22 46  1  0  0  0  0
M  END
> <id>
EN300-6525450

> <smiles>
CN1C=C(C(=O)ON2C(=O)C=3C=CC=CC3C2=O)C(CN4C(=O)C=5C=CC=CC5C4=O)=N1

> <IUPAC Name>
1,3-dioxo-2,3-dihydro-1H-isoindol-2-yl 3-[(1,3-dioxo-2,3-dihydro-1H-isoindol-2-yl)methyl]-1-methyl-1H-pyrazole-4-carboxylate

> <CAS>
2248374-91-4

> <URL>
https://www.enaminestore.com/catalog/EN300-6525450

> <ROCS_ShapeQuery>
x0446_0A_x1080_0A_x0929_0A_x0812_0A_x0719_0A_x1140_0A_x0528_0A_x0310_0A

> <ROCS_TanimotoCombo>
0.417 

> <ROCS_ShapeTanimoto>
0.278 

> <ROCS_ColorTanimoto>
0.139 

> <ROCS_RefTversky>
0.256 

> <ROCS_RefColorTversky>
0.164 

> <ROCS_RefTverskyCombo>
0.420 

> <ROCS_FitTversky>
1.456 

> <ROCS_FitColorTversky>
0.475 

> <ROCS_FitTverskyCombo>
1.932 

> <ROCS_ColorScore>
-5.868

> <ROCS_Overlap>
3032.118

> <ROCS_Rank>
261                 

$$$$
untitled-dbase-356303_1
  -OEChem-02082415563D

 32 34  0     0  0  0  0  0  0999 V2000
   10.8177   16.1113   20.7817 C   0  0  0  0  0  0  0  0  0  0  0  0
    5.4266   11.9882   25.4635 C   0  0  0  0  0  0  0  0  0  0  0  0
    5.7540   13.3027   25.1371 C   0  0  0  0  0  0  0  0  0  0  0  0
   11.9020    9.6997   22.7430 C   0  0  0  0  0  0  0  0  0  0  0  0
    6.3202   10.9542   25.1829 C   0  0  0  0  0  0  0  0  0  0  0  0
    6.9765   13.5889   24.5287 C   0  0  0  0  0  0  0  0  0  0  0  0
   10.6795    9.4135   23.3514 C   0  0  0  0  0  0  0  0  0  0  0  0
   12.2295   11.0143   22.4166 C   0  0  0  0  0  0  0  0  0  0  0  0
    7.5480   11.2369   24.5725 C   0  0  0  0  0  0  0  0  0  0  0  0
    7.8762   12.5543   24.2454 C   0  0  0  0  0  0  0  0  0  0  0  0
    9.7799   10.4481   23.6348 C   0  0  0  0  0  0  0  0  0  0  0  0
   10.1081   11.7655   23.3078 C   0  0  0  0  0  0  0  0  0  0  0  0
   11.3359   12.0483   22.6973 C   0  0  0  0  0  0  0  0  0  0  0  0
    8.4879   10.1357   24.2791 C   0  0  0  0  0  0  0  0  0  0  0  0
    9.1682   12.8667   23.6011 C   0  0  0  0  0  0  0  0  0  0  0  0
   11.7792   13.3847   22.3146 C   0  0  0  0  0  0  0  0  0  0  0  0
   11.8340   15.1009   20.4934 C   0  0  0  0  0  0  0  0  0  0  0  0
   10.0131   16.9159   21.0091 N   0  0  0  0  0  0  0  0  0  0  0  0
   11.4472   13.8146   21.0269 N   0  0  0  0  0  0  0  0  0  0  0  0
    8.1999    8.9803   24.5659 O   0  0  0  0  0  0  0  0  0  0  0  0
    9.4230   14.0327   23.3275 O   0  0  0  0  0  0  0  0  0  0  0  0
   12.4366   14.0777   23.1074 O   0  0  0  0  0  0  0  0  0  0  0  0
    4.4742   11.7692   25.9375 H   0  0  0  0  0  0  0  0  0  0  0  0
    5.0562   14.1059   25.3561 H   0  0  0  0  0  0  0  0  0  0  0  0
   12.5991    8.8960   22.5234 H   0  0  0  0  0  0  0  0  0  0  0  0
    6.0405    9.9380   25.4475 H   0  0  0  0  0  0  0  0  0  0  0  0
    7.2057   14.6227   24.2850 H   0  0  0  0  0  0  0  0  0  0  0  0
   10.4484    8.3802   23.5956 H   0  0  0  0  0  0  0  0  0  0  0  0
   13.1865   11.2177   21.9421 H   0  0  0  0  0  0  0  0  0  0  0  0
   11.9775   14.9824   19.4156 H   0  0  0  0  0  0  0  0  0  0  0  0
   12.7948   15.3694   20.9418 H   0  0  0  0  0  0  0  0  0  0  0  0
   10.9625   13.1814   20.3992 H   0  0  0  0  0  0  0  0  0  0  0  0
  1 17  1  0  0  0  0
  1 18  3  0  0  0  0
  2  3  1  0  0  0  0
  2  5  2  0  0  0  0
  3  6  2  0  0  0  0
  4  7  1  0  0  0  0
  4  8  2  0  0  0  0
  5  9  1  0  0  0  0
  6 10  1  0  0  0  0
  7 11  2  0  0  0  0
  8 13  1  0  0  0  0
  9 10  2  0  0  0  0
  9 14  1  0  0  0  0
 10 15  1  0  0  0  0
 11 12  1  0  0  0  0
 11 14  1  0  0  0  0
 12 13  2  0  0  0  0
 12 15  1  0  0  0  0
 13 16  1  0  0  0  0
 14 20  2  0  0  0  0
 15 21  2  0  0  0  0
 16 19  1  0  0  0  0
 16 22  2  0  0  0  0
 17 19  1  0  0  0  0
  2 23  1  0  0  0  0
  3 24  1  0  0  0  0
  4 25  1  0  0  0  0
  5 26  1  0  0  0  0
  6 27  1  0  0  0  0
  7 28  1  0  0  0  0
  8 29  1  0  0  0  0
 17 30  1  0  0  0  0
 17 31  1  0  0  0  0
 19 32  1  0  0  0  0
M  END
> <id>
EN300-26684704

> <smiles>
O=C(NCC#N)C=1C=CC=C2C(=O)C=3C=CC=CC3C(=O)C12

> <IUPAC Name>
N-(cyanomethyl)-9,10-dioxo-9,10-dihydroanthracene-1-carboxamide

> <CAS>
1797176-76-1

> <URL>
https://www.enaminestore.com/catalog/EN300-26684704

> <ROCS_ShapeQuery>
x0446_0A_x1080_0A_x0929_0A_x0812_0A_x0719_0A_x1140_0A_x0528_0A_x0310_0A

> <ROCS_TanimotoCombo>
0.417 

> <ROCS_ShapeTanimoto>
0.257 

> <ROCS_ColorTanimoto>
0.160 

> <ROCS_RefTversky>
0.232 

> <ROCS_RefColorTversky>
0.175 

> <ROCS_RefTverskyCombo>
0.406 

> <ROCS_FitTversky>
1.725 

> <ROCS_FitColorTversky>
0.659 

> <ROCS_FitTverskyCombo>
2.384 

> <ROCS_ColorScore>
-6.238

> <ROCS_Overlap>
2738.584

> <ROCS_Rank>
262                 

$$$$
untitled-dbase-294417_7
  -OEChem-02082415563D

 55 59  0     0  0  0  0  0  0999 V2000
   13.6213   16.4131   17.7013 C   0  0  0  0  0  0  0  0  0  0  0  0
   14.1835   17.4451   18.4820 C   0  0  0  0  0  0  0  0  0  0  0  0
   12.7690   15.4618   18.2699 C   0  0  0  0  0  0  0  0  0  0  0  0
   13.9058   17.5484   19.8482 C   0  0  0  0  0  0  0  0  0  0  0  0
   12.5053   15.5832   19.6179 C   0  0  0  0  0  0  0  0  0  0  0  0
   13.0606   16.6023   20.3889 C   0  0  0  0  0  0  0  0  0  0  0  0
   11.6738   14.7527   20.4950 C   0  0  0  0  0  0  0  0  0  0  0  0
   12.5909   16.4351   21.7679 C   0  0  0  0  0  0  0  0  0  0  0  0
    9.6857   14.9450   22.6019 C   0  0  0  0  0  0  0  0  0  0  0  0
    7.0352   10.5791   23.3134 C   0  0  0  0  0  0  0  0  0  0  0  0
    9.4585   10.2546   22.7346 C   0  0  0  0  0  0  0  0  0  0  0  0
    8.7357   10.2921   25.1406 C   0  0  0  0  0  0  0  0  0  0  0  0
    8.3688   12.4892   22.3723 C   0  0  0  0  0  0  0  0  0  0  0  0
    7.6459   12.5269   24.7781 C   0  0  0  0  0  0  0  0  0  0  0  0
   10.0692   12.2022   24.1996 C   0  0  0  0  0  0  0  0  0  0  0  0
    8.1502   10.9608   22.3142 C   0  0  0  0  0  0  0  0  0  0  0  0
    7.4184   10.9989   24.7501 C   0  0  0  0  0  0  0  0  0  0  0  0
    9.8717   10.6703   24.1642 C   0  0  0  0  0  0  0  0  0  0  0  0
    8.7685   12.9326   23.7973 C   0  0  0  0  0  0  0  0  0  0  0  0
    7.7549   10.5379   20.8956 C   0  0  0  0  0  0  0  0  0  0  0  0
    6.3032   10.6136   25.7276 C   0  0  0  0  0  0  0  0  0  0  0  0
   11.1697    9.9616   24.5652 C   0  0  0  0  0  0  0  0  0  0  0  0
    8.9814   14.4494   23.8377 C   0  0  0  0  0  0  0  0  0  0  0  0
   11.7593   15.3610   21.7081 N   0  0  0  0  0  0  0  0  0  0  0  0
   11.0595   13.7652   20.1427 O   0  0  0  0  0  0  0  0  0  0  0  0
   12.9035   17.1473   22.7016 O   0  0  0  0  0  0  0  0  0  0  0  0
    9.1394   15.3154   21.5715 O   0  0  0  0  0  0  0  0  0  0  0  0
   11.0327   14.9075   22.8310 O   0  0  0  0  0  0  0  0  0  0  0  0
   13.8571   16.3582   16.6416 H   0  0  0  0  0  0  0  0  0  0  0  0
   14.8438   18.1692   18.0116 H   0  0  0  0  0  0  0  0  0  0  0  0
   12.3398   14.6681   17.6698 H   0  0  0  0  0  0  0  0  0  0  0  0
   14.3404   18.3397   20.4473 H   0  0  0  0  0  0  0  0  0  0  0  0
    6.0919   11.0610   23.0224 H   0  0  0  0  0  0  0  0  0  0  0  0
    6.8551    9.4961   23.2762 H   0  0  0  0  0  0  0  0  0  0  0  0
    9.3271    9.1651   22.6859 H   0  0  0  0  0  0  0  0  0  0  0  0
   10.2610   10.5027   22.0268 H   0  0  0  0  0  0  0  0  0  0  0  0
    9.0174   10.5674   26.1659 H   0  0  0  0  0  0  0  0  0  0  0  0
    8.5897    9.2034   25.1402 H   0  0  0  0  0  0  0  0  0  0  0  0
    9.1494   12.7822   21.6572 H   0  0  0  0  0  0  0  0  0  0  0  0
    7.4524   13.0096   22.0624 H   0  0  0  0  0  0  0  0  0  0  0  0
    6.7150   13.0481   24.5168 H   0  0  0  0  0  0  0  0  0  0  0  0
    7.9059   12.8470   25.7962 H   0  0  0  0  0  0  0  0  0  0  0  0
   10.3778   12.5159   25.2061 H   0  0  0  0  0  0  0  0  0  0  0  0
   10.8839   12.4895   23.5212 H   0  0  0  0  0  0  0  0  0  0  0  0
    8.5452   10.8105   20.2007 H   0  0  0  0  0  0  0  0  0  0  0  0
    6.8341   11.0398   20.6093 H   0  0  0  0  0  0  0  0  0  0  0  0
    7.6036    9.4617   20.8653 H   0  0  0  0  0  0  0  0  0  0  0  0
    6.5822   10.9130   26.7347 H   0  0  0  0  0  0  0  0  0  0  0  0
    6.1510    9.5376   25.7005 H   0  0  0  0  0  0  0  0  0  0  0  0
    5.3813   11.1156   25.4445 H   0  0  0  0  0  0  0  0  0  0  0  0
   11.4518   10.2604   25.5716 H   0  0  0  0  0  0  0  0  0  0  0  0
   11.9622   10.2341   23.8728 H   0  0  0  0  0  0  0  0  0  0  0  0
   11.0205    8.8851   24.5371 H   0  0  0  0  0  0  0  0  0  0  0  0
    8.0080   14.9361   23.9121 H   0  0  0  0  0  0  0  0  0  0  0  0
    9.5845   14.6937   24.7132 H   0  0  0  0  0  0  0  0  0  0  0  0
  1  2  1  0  0  0  0
  1  3  2  0  0  0  0
  2  4  2  0  0  0  0
  3  5  1  0  0  0  0
  4  6  1  0  0  0  0
  5  6  2  0  0  0  0
  5  7  1  0  0  0  0
  6  8  1  0  0  0  0
  7 24  1  0  0  0  0
  7 25  2  0  0  0  0
  8 24  1  0  0  0  0
  8 26  2  0  0  0  0
  9 23  1  0  0  0  0
  9 27  2  0  0  0  0
  9 28  1  0  0  0  0
 10 16  1  0  0  0  0
 10 17  1  0  0  0  0
 11 16  1  0  0  0  0
 11 18  1  0  0  0  0
 12 17  1  0  0  0  0
 12 18  1  0  0  0  0
 13 16  1  0  0  0  0
 13 19  1  0  0  0  0
 14 17  1  0  0  0  0
 14 19  1  0  0  0  0
 15 18  1  0  0  0  0
 15 19  1  0  0  0  0
 16 20  1  0  0  0  0
 17 21  1  0  0  0  0
 18 22  1  0  0  0  0
 19 23  1  0  0  0  0
 24 28  1  0  0  0  0
  1 29  1  0  0  0  0
  2 30  1  0  0  0  0
  3 31  1  0  0  0  0
  4 32  1  0  0  0  0
 10 33  1  0  0  0  0
 10 34  1  0  0  0  0
 11 35  1  0  0  0  0
 11 36  1  0  0  0  0
 12 37  1  0  0  0  0
 12 38  1  0  0  0  0
 13 39  1  0  0  0  0
 13 40  1  0  0  0  0
 14 41  1  0  0  0  0
 14 42  1  0  0  0  0
 15 43  1  0  0  0  0
 15 44  1  0  0  0  0
 20 45  1  0  0  0  0
 20 46  1  0  0  0  0
 20 47  1  0  0  0  0
 21 48  1  0  0  0  0
 21 49  1  0  0  0  0
 21 50  1  0  0  0  0
 22 51  1  0  0  0  0
 22 52  1  0  0  0  0
 22 53  1  0  0  0  0
 23 54  1  0  0  0  0
 23 55  1  0  0  0  0
M  END
> <id>
EN300-6523016

> <smiles>
CC1(CC2(C)CC3(C)C1)CC(CC(=O)ON4C(=O)C=5C=CC=CC5C4=O)(C2)C3

> <IUPAC Name>
1,3-dioxo-2,3-dihydro-1H-isoindol-2-yl 2-(3,5,7-trimethyladamantan-1-yl)acetate

> <CAS>
2248297-20-1

> <URL>
https://www.enaminestore.com/catalog/EN300-6523016

> <ROCS_ShapeQuery>
x0446_0A_x1080_0A_x0929_0A_x0812_0A_x0719_0A_x1140_0A_x0528_0A_x0310_0A

> <ROCS_TanimotoCombo>
0.417 

> <ROCS_ShapeTanimoto>
0.242 

> <ROCS_ColorTanimoto>
0.175 

> <ROCS_RefTversky>
0.226 

> <ROCS_RefColorTversky>
0.202 

> <ROCS_RefTverskyCombo>
0.427 

> <ROCS_FitTversky>
1.434 

> <ROCS_FitColorTversky>
0.568 

> <ROCS_FitTverskyCombo>
2.002 

> <ROCS_ColorScore>
-7.238

> <ROCS_Overlap>
2668.361

> <ROCS_Rank>
263                 

$$$$
untitled-dbase-283411_0
  -OEChem-02082415563D

 45 49  0     0  0  0  0  0  0999 V2000
    7.8179   16.2329   21.7094 C   0  0  0  0  0  0  0  0  0  0  0  0
    8.5664   14.2880   22.3545 C   0  0  0  0  0  0  0  0  0  0  0  0
    6.9043   17.3841   21.5024 C   0  0  0  0  0  0  0  0  0  0  0  0
    5.6329   16.9972   20.7487 C   0  0  0  0  0  0  0  0  0  0  0  0
    4.6093   16.2403   21.5997 C   0  0  0  0  0  0  0  0  0  0  0  0
    5.0342   14.8321   22.0231 C   0  0  0  0  0  0  0  0  0  0  0  0
    9.7389   10.9386   24.9714 C   0  0  0  0  0  0  0  0  0  0  0  0
    8.9200    9.9191   22.8321 C   0  0  0  0  0  0  0  0  0  0  0  0
    7.2782   10.7362   24.5404 C   0  0  0  0  0  0  0  0  0  0  0  0
   10.0055   12.1770   22.8098 C   0  0  0  0  0  0  0  0  0  0  0  0
    8.3710   12.9942   24.5273 C   0  0  0  0  0  0  0  0  0  0  0  0
    7.5454   11.9663   22.3709 C   0  0  0  0  0  0  0  0  0  0  0  0
    6.2011   14.8074   23.0067 C   0  0  0  0  0  0  0  0  0  0  0  0
   10.0145   10.7870   23.4688 C   0  0  0  0  0  0  0  0  0  0  0  0
    8.3719   11.6030   25.1856 C   0  0  0  0  0  0  0  0  0  0  0  0
    7.5487   10.5782   23.0354 C   0  0  0  0  0  0  0  0  0  0  0  0
    8.6313   12.8924   22.9948 C   0  0  0  0  0  0  0  0  0  0  0  0
    9.0628   16.1156   21.2904 N   0  0  0  0  0  0  0  0  0  0  0  0
    9.5350   14.8855   21.6988 N   0  0  0  0  0  0  0  0  0  0  0  0
    7.4731   15.0961   22.3861 N   0  0  0  0  0  0  0  0  0  0  0  0
    6.6574   17.8458   22.4654 H   0  0  0  0  0  0  0  0  0  0  0  0
    7.4371   18.1448   20.9182 H   0  0  0  0  0  0  0  0  0  0  0  0
    5.1536   17.9207   20.4003 H   0  0  0  0  0  0  0  0  0  0  0  0
    5.8765   16.4133   19.8523 H   0  0  0  0  0  0  0  0  0  0  0  0
    4.3550   16.8328   22.4872 H   0  0  0  0  0  0  0  0  0  0  0  0
    3.6855   16.1509   21.0142 H   0  0  0  0  0  0  0  0  0  0  0  0
    4.1717   14.3582   22.5084 H   0  0  0  0  0  0  0  0  0  0  0  0
    5.2678   14.2313   21.1355 H   0  0  0  0  0  0  0  0  0  0  0  0
    9.7585    9.9554   25.4572 H   0  0  0  0  0  0  0  0  0  0  0  0
   10.5271   11.5413   25.4392 H   0  0  0  0  0  0  0  0  0  0  0  0
    9.1192    9.7885   21.7613 H   0  0  0  0  0  0  0  0  0  0  0  0
    8.9259    8.9186   23.2818 H   0  0  0  0  0  0  0  0  0  0  0  0
    7.2512    9.7503   25.0207 H   0  0  0  0  0  0  0  0  0  0  0  0
    6.2943   11.1945   24.6987 H   0  0  0  0  0  0  0  0  0  0  0  0
   10.8086   12.7922   23.2375 H   0  0  0  0  0  0  0  0  0  0  0  0
   10.2350   12.0783   21.7401 H   0  0  0  0  0  0  0  0  0  0  0  0
    7.4067   13.4868   24.7111 H   0  0  0  0  0  0  0  0  0  0  0  0
    9.1343   13.6275   24.9994 H   0  0  0  0  0  0  0  0  0  0  0  0
    7.7138   11.8600   21.2906 H   0  0  0  0  0  0  0  0  0  0  0  0
    6.5535   12.4246   22.4834 H   0  0  0  0  0  0  0  0  0  0  0  0
    6.0593   15.5336   23.8153 H   0  0  0  0  0  0  0  0  0  0  0  0
    6.2570   13.8162   23.4678 H   0  0  0  0  0  0  0  0  0  0  0  0
   10.9921   10.3150   23.3195 H   0  0  0  0  0  0  0  0  0  0  0  0
    8.1759   11.7047   26.2589 H   0  0  0  0  0  0  0  0  0  0  0  0
    6.7693    9.9536   22.5846 H   0  0  0  0  0  0  0  0  0  0  0  0
  1  3  1  0  0  0  0
  1 18  2  0  0  0  0
  1 20  1  0  0  0  0
  2 17  1  0  0  0  0
  2 19  2  0  0  0  0
  2 20  1  0  0  0  0
  3  4  1  0  0  0  0
  4  5  1  0  0  0  0
  5  6  1  0  0  0  0
  6 13  1  0  0  0  0
  7 14  1  6  0  0  0
  7 15  1  0  0  0  0
  8 14  1  0  0  0  0
  8 16  1  1  0  0  0
  9 15  1  1  0  0  0
  9 16  1  0  0  0  0
 10 14  1  0  0  0  0
 10 17  1  0  0  0  0
 11 15  1  0  0  0  0
 11 17  1  0  0  0  0
 12 16  1  0  0  0  0
 12 17  1  0  0  0  0
 13 20  1  0  0  0  0
 18 19  1  0  0  0  0
  3 21  1  0  0  0  0
  3 22  1  0  0  0  0
  4 23  1  0  0  0  0
  4 24  1  0  0  0  0
  5 25  1  0  0  0  0
  5 26  1  0  0  0  0
  6 27  1  0  0  0  0
  6 28  1  0  0  0  0
  7 29  1  0  0  0  0
  7 30  1  0  0  0  0
  8 31  1  0  0  0  0
  8 32  1  0  0  0  0
  9 33  1  0  0  0  0
  9 34  1  0  0  0  0
 10 35  1  0  0  0  0
 10 36  1  0  0  0  0
 11 37  1  0  0  0  0
 11 38  1  0  0  0  0
 12 39  1  0  0  0  0
 12 40  1  0  0  0  0
 13 41  1  0  0  0  0
 13 42  1  0  0  0  0
 14 43  1  0  0  0  0
 15 44  1  0  0  0  0
 16 45  1  0  0  0  0
M  END
> <id>
EN300-27121978

> <smiles>
C1[C@H]2C[C@H]3C[C@@H]1CC(C2)(C3)C4=NN=C5CCCCCN45

> <IUPAC Name>
3-[(3R,5S,7s)-adamantan-1-yl]-5H,6H,7H,8H,9H-[1,2,4]triazolo[4,3-a]azepine

> <CAS>
327093-42-5

> <URL>
https://www.enaminestore.com/catalog/EN300-27121978

> <ROCS_ShapeQuery>
x0446_0A_x1080_0A_x0929_0A_x0812_0A_x0719_0A_x1140_0A_x0528_0A_x0310_0A

> <ROCS_TanimotoCombo>
0.417 

> <ROCS_ShapeTanimoto>
0.220 

> <ROCS_ColorTanimoto>
0.197 

> <ROCS_RefTversky>
0.203 

> <ROCS_RefColorTversky>
0.220 

> <ROCS_RefTverskyCombo>
0.423 

> <ROCS_FitTversky>
1.603 

> <ROCS_FitColorTversky>
0.652 

> <ROCS_FitTverskyCombo>
2.255 

> <ROCS_ColorScore>
-7.883

> <ROCS_Overlap>
2401.451

> <ROCS_Rank>
264                 

$$$$
untitled-dbase-402984_0
  -OEChem-02082415563D

 35 38  0     1  0  0  0  0  0999 V2000
   10.1429   15.8628   22.4217 C   0  0  0  0  0  0  0  0  0  0  0  0
    8.7830   14.5322   21.5629 C   0  0  0  0  0  0  0  0  0  0  0  0
    5.8502   10.9335   24.5082 C   0  0  0  0  0  0  0  0  0  0  0  0
    9.9926    9.8556   23.9769 C   0  0  0  0  0  0  0  0  0  0  0  0
    7.6579   10.0201   23.0793 C   0  0  0  0  0  0  0  0  0  0  0  0
    8.1648   10.7928   25.4130 C   0  0  0  0  0  0  0  0  0  0  0  0
    9.4564   11.5209   22.1798 C   0  0  0  0  0  0  0  0  0  0  0  0
    9.9473   12.3036   24.5100 C   0  0  0  0  0  0  0  0  0  0  0  0
    7.6062   12.4713   23.6285 C   0  0  0  0  0  0  0  0  0  0  0  0
    9.1502   10.1134   22.7206 C   0  0  1  0  0  0  0  0  0  0  0  0
    9.6532   10.8952   25.0534 C   0  0  2  0  0  0  0  0  0  0  0  0
    7.3075   11.0563   24.1638 C   0  0  0  0  0  0  0  0  0  0  0  0
    9.1059   12.6180   23.2300 C   0  0  0  0  0  0  0  0  0  0  0  0
    9.2650   15.7400   21.3830 N   0  0  0  0  0  0  0  0  0  0  0  0
   10.2345   14.8069   23.2329 N   0  0  0  0  0  0  0  0  0  0  0  0
    9.3548   13.9703   22.6616 N   0  0  0  0  0  0  0  0  0  0  0  0
    5.0744   10.1357   24.0031 O   0  0  0  0  0  0  0  0  0  0  0  0
    5.5056   11.8347   25.4602 O   0  0  0  0  0  0  0  0  0  0  0  0
   10.7334   16.7501   22.5941 H   0  0  0  0  0  0  0  0  0  0  0  0
    8.0433   14.0347   20.9517 H   0  0  0  0  0  0  0  0  0  0  0  0
    9.8011    8.8444   24.3567 H   0  0  0  0  0  0  0  0  0  0  0  0
   11.0603    9.9053   23.7301 H   0  0  0  0  0  0  0  0  0  0  0  0
    7.0462   10.1833   22.1822 H   0  0  0  0  0  0  0  0  0  0  0  0
    7.4217    9.0065   23.4295 H   0  0  0  0  0  0  0  0  0  0  0  0
    7.9490    9.7987   25.8263 H   0  0  0  0  0  0  0  0  0  0  0  0
    7.9188   11.5126   26.2048 H   0  0  0  0  0  0  0  0  0  0  0  0
   10.5162   11.5914   21.9012 H   0  0  0  0  0  0  0  0  0  0  0  0
    8.8843   11.6942   21.2585 H   0  0  0  0  0  0  0  0  0  0  0  0
    9.7362   13.0515   25.2862 H   0  0  0  0  0  0  0  0  0  0  0  0
   11.0179   12.3961   24.2824 H   0  0  0  0  0  0  0  0  0  0  0  0
    6.9720   12.6885   22.7573 H   0  0  0  0  0  0  0  0  0  0  0  0
    7.3410   13.2262   24.3820 H   0  0  0  0  0  0  0  0  0  0  0  0
    9.3922    9.3668   21.9557 H   0  0  0  0  0  0  0  0  0  0  0  0
   10.2610   10.7113   25.9464 H   0  0  0  0  0  0  0  0  0  0  0  0
    4.5560   11.7717   25.6978 H   0  0  0  0  0  0  0  0  0  0  0  0
  1 14  1  0  0  0  0
  1 15  2  0  0  0  0
  2 14  2  0  0  0  0
  2 16  1  0  0  0  0
  3 12  1  0  0  0  0
  3 17  2  0  0  0  0
  3 18  1  0  0  0  0
  4 10  1  0  0  0  0
  4 11  1  0  0  0  0
  5 10  1  0  0  0  0
  5 12  1  0  0  0  0
  6 11  1  0  0  0  0
  6 12  1  0  0  0  0
  7 10  1  0  0  0  0
  7 13  1  0  0  0  0
  8 11  1  0  0  0  0
  8 13  1  0  0  0  0
  9 12  1  0  0  0  0
  9 13  1  0  0  0  0
 13 16  1  0  0  0  0
 15 16  1  0  0  0  0
  1 19  1  0  0  0  0
  2 20  1  0  0  0  0
  4 21  1  0  0  0  0
  4 22  1  0  0  0  0
  5 23  1  0  0  0  0
  5 24  1  0  0  0  0
  6 25  1  0  0  0  0
  6 26  1  0  0  0  0
  7 27  1  0  0  0  0
  7 28  1  0  0  0  0
  8 29  1  0  0  0  0
  8 30  1  0  0  0  0
  9 31  1  0  0  0  0
  9 32  1  0  0  0  0
 10 33  1  0  0  0  0
 11 34  1  0  0  0  0
 18 35  1  0  0  0  0
M  END
> <id>
EN300-1721674

> <smiles>
OC(=O)C1(CC2CC3C1)CC(C2)(C3)N4C=NC=N4

> <MDLNUMBER>
MFCD03108607

> <IUPAC Name>
3-(1H-1,2,4-triazol-1-yl)adamantane-1-carboxylic acid

> <CAS>
418805-51-3

> <Purity>
95

> <URL>
https://www.enaminestore.com/catalog/EN300-1721674

> <ROCS_ShapeQuery>
x0446_0A_x1080_0A_x0929_0A_x0812_0A_x0719_0A_x1140_0A_x0528_0A_x0310_0A

> <ROCS_TanimotoCombo>
0.417 

> <ROCS_ShapeTanimoto>
0.221 

> <ROCS_ColorTanimoto>
0.196 

> <ROCS_RefTversky>
0.203 

> <ROCS_RefColorTversky>
0.227 

> <ROCS_RefTverskyCombo>
0.429 

> <ROCS_FitTversky>
1.682 

> <ROCS_FitColorTversky>
0.594 

> <ROCS_FitTverskyCombo>
2.276 

> <ROCS_ColorScore>
-8.147

> <ROCS_Overlap>
2390.952

> <ROCS_Rank>
265                 

$$$$
untitled-dbase-59662_3
  -OEChem-02082415563D

 39 40  0     1  0  0  0  0  0999 V2000
    7.1980   13.6709   23.1399 C   0  0  0  0  0  0  0  0  0  0  0  0
   10.6651   14.0170   21.7939 C   0  0  0  0  0  0  0  0  0  0  0  0
    9.2127   11.2977   25.3470 C   0  0  0  0  0  0  0  0  0  0  0  0
   10.0353   10.5801   24.2652 C   0  0  0  0  0  0  0  0  0  0  0  0
    7.7580   10.6044   23.6045 C   0  0  0  0  0  0  0  0  0  0  0  0
    8.3987   12.9260   23.6390 C   0  0  1  0  0  0  0  0  0  0  0  0
    7.9697   11.7726   24.5737 C   0  0  2  0  0  0  0  0  0  0  0  0
    9.1601   10.7248   23.0048 C   0  0  1  0  0  0  0  0  0  0  0  0
    9.1331   12.1859   22.5017 C   0  0  2  0  0  0  0  0  0  0  0  0
   11.8980   16.5603   22.1957 C   0  0  0  0  0  0  0  0  0  0  0  0
   13.9082   15.5557   21.0737 C   0  0  0  0  0  0  0  0  0  0  0  0
   11.7482   15.7713   19.8104 C   0  0  0  0  0  0  0  0  0  0  0  0
   12.3849   15.5296   21.1782 C   0  0  0  0  0  0  0  0  0  0  0  0
   10.4378   12.7256   22.2347 N   0  0  0  0  0  0  0  0  0  0  0  0
    6.8701   13.7683   21.9667 O   0  0  0  0  0  0  0  0  0  0  0  0
    9.7986   14.8576   21.5764 O   0  0  0  0  0  0  0  0  0  0  0  0
    6.5189   14.2300   24.1711 O   0  0  0  0  0  0  0  0  0  0  0  0
   12.0060   14.2257   21.6334 O   0  0  0  0  0  0  0  0  0  0  0  0
    8.9332   10.5921   26.1375 H   0  0  0  0  0  0  0  0  0  0  0  0
    9.7663   12.1222   25.8071 H   0  0  0  0  0  0  0  0  0  0  0  0
   11.0335   11.0128   24.1512 H   0  0  0  0  0  0  0  0  0  0  0  0
   10.1570    9.5231   24.5292 H   0  0  0  0  0  0  0  0  0  0  0  0
    7.5852    9.6494   24.1125 H   0  0  0  0  0  0  0  0  0  0  0  0
    6.9584   10.7777   22.8773 H   0  0  0  0  0  0  0  0  0  0  0  0
    9.0362   13.6483   24.1618 H   0  0  0  0  0  0  0  0  0  0  0  0
    7.1136   11.9993   25.2136 H   0  0  0  0  0  0  0  0  0  0  0  0
    9.3934    9.9973   22.2241 H   0  0  0  0  0  0  0  0  0  0  0  0
    8.5767   12.2450   21.5584 H   0  0  0  0  0  0  0  0  0  0  0  0
   10.8050   16.5447   22.2736 H   0  0  0  0  0  0  0  0  0  0  0  0
   12.3201   16.3770   23.1891 H   0  0  0  0  0  0  0  0  0  0  0  0
   12.1712   17.5753   21.8854 H   0  0  0  0  0  0  0  0  0  0  0  0
   14.2620   14.8177   20.3447 H   0  0  0  0  0  0  0  0  0  0  0  0
   14.3698   15.2893   22.0314 H   0  0  0  0  0  0  0  0  0  0  0  0
   14.2758   16.5425   20.7742 H   0  0  0  0  0  0  0  0  0  0  0  0
   12.0973   15.0321   19.0803 H   0  0  0  0  0  0  0  0  0  0  0  0
   10.6557   15.7195   19.8592 H   0  0  0  0  0  0  0  0  0  0  0  0
   12.0330   16.7535   19.4161 H   0  0  0  0  0  0  0  0  0  0  0  0
   11.2447   12.1202   22.3789 H   0  0  0  0  0  0  0  0  0  0  0  0
    5.7291   14.7246   23.8644 H   0  0  0  0  0  0  0  0  0  0  0  0
  1  6  1  6  0  0  0
  1 15  2  0  0  0  0
  1 17  1  0  0  0  0
  2 14  1  0  0  0  0
  2 16  2  0  0  0  0
  2 18  1  0  0  0  0
  3  4  1  0  0  0  0
  3  7  1  0  0  0  0
  4  8  1  0  0  0  0
  5  7  1  0  0  0  0
  5  8  1  0  0  0  0
  6  7  1  0  0  0  0
  6  9  1  0  0  0  0
  8  9  1  0  0  0  0
  9 14  1  1  0  0  0
 10 13  1  0  0  0  0
 11 13  1  0  0  0  0
 12 13  1  0  0  0  0
 13 18  1  0  0  0  0
  3 19  1  0  0  0  0
  3 20  1  0  0  0  0
  4 21  1  0  0  0  0
  4 22  1  0  0  0  0
  5 23  1  0  0  0  0
  5 24  1  0  0  0  0
  6 25  1  0  0  0  0
  7 26  1  0  0  0  0
  8 27  1  0  0  0  0
  9 28  1  0  0  0  0
 10 29  1  0  0  0  0
 10 30  1  0  0  0  0
 10 31  1  0  0  0  0
 11 32  1  0  0  0  0
 11 33  1  0  0  0  0
 11 34  1  0  0  0  0
 12 35  1  0  0  0  0
 12 36  1  0  0  0  0
 12 37  1  0  0  0  0
 14 38  1  0  0  0  0
 17 39  1  0  0  0  0
M  END
> <id>
EN300-249520

> <smiles>
CC(C)(C)OC(=O)N[C@@H]1[C@H](C2CCC1C2)C(=O)O |&1:8,9,r|

> <IUPAC Name>
rac-(2R,3R)-3-{[(tert-butoxy)carbonyl]amino}bicyclo[2.2.1]heptane-2-carboxylic acid

> <CAS>
1212474-65-1

> <URL>
https://www.enaminestore.com/catalog/EN300-249520

> <ROCS_ShapeQuery>
x0446_0A_x1080_0A_x0929_0A_x0812_0A_x0719_0A_x1140_0A_x0528_0A_x0310_0A

> <ROCS_TanimotoCombo>
0.417 

> <ROCS_ShapeTanimoto>
0.224 

> <ROCS_ColorTanimoto>
0.193 

> <ROCS_RefTversky>
0.204 

> <ROCS_RefColorTversky>
0.223 

> <ROCS_RefTverskyCombo>
0.427 

> <ROCS_FitTversky>
1.752 

> <ROCS_FitColorTversky>
0.591 

> <ROCS_FitTverskyCombo>
2.343 

> <ROCS_ColorScore>
-8.007

> <ROCS_Overlap>
2411.076

> <ROCS_Rank>
266                 

$$$$
untitled-dbase-391339_2
  -OEChem-02082415563D

 41 44  0     1  0  0  0  0  0999 V2000
    4.3470   12.8212   24.9490 C   0  0  0  0  0  0  0  0  0  0  0  0
    5.3687   12.9859   23.0090 C   0  0  0  0  0  0  0  0  0  0  0  0
    4.1733   13.2658   23.6247 C   0  0  0  0  0  0  0  0  0  0  0  0
   10.3537   14.3625   21.4179 C   0  0  0  0  0  0  0  0  0  0  0  0
    9.5418    9.7477   23.8385 C   0  0  0  0  0  0  0  0  0  0  0  0
    9.9245   11.4904   22.0779 C   0  0  0  0  0  0  0  0  0  0  0  0
   10.4031   12.0099   24.4879 C   0  0  0  0  0  0  0  0  0  0  0  0
    7.5899   10.8297   22.7009 C   0  0  0  0  0  0  0  0  0  0  0  0
    8.0691   11.3305   25.1091 C   0  0  0  0  0  0  0  0  0  0  0  0
    8.4531   13.0969   23.3318 C   0  0  0  0  0  0  0  0  0  0  0  0
    9.0287   10.3225   22.5124 C   0  0  2  0  0  0  0  0  0  0  0  0
    9.5122   10.8339   24.9206 C   0  0  1  0  0  0  0  0  0  0  0  0
    9.9077   12.6016   23.1483 C   0  0  0  0  0  0  0  0  0  0  0  0
    7.5087   11.9454   23.7923 C   0  0  0  0  0  0  0  0  0  0  0  0
   10.8090   13.7631   22.7183 C   0  0  0  0  0  0  0  0  0  0  0  0
    5.5573   12.2983   25.1629 N   0  0  0  0  0  0  0  0  0  0  0  0
    6.1550   12.4125   23.9647 N   0  0  0  0  0  0  0  0  0  0  0  0
    3.0553   13.8639   23.0240 N   0  3  0  0  0  0  0  0  0  0  0  0
    2.0123   14.0665   23.7071 O   0  5  0  0  0  0  0  0  0  0  0  0
   10.7054   14.0263   20.2971 O   0  0  0  0  0  0  0  0  0  0  0  0
    3.1021   14.1938   21.8056 O   0  0  0  0  0  0  0  0  0  0  0  0
    9.4680   15.3621   21.6628 O   0  0  0  0  0  0  0  0  0  0  0  0
    3.6442   12.8547   25.7697 H   0  0  0  0  0  0  0  0  0  0  0  0
    5.7201   13.1409   21.9976 H   0  0  0  0  0  0  0  0  0  0  0  0
    8.9213    8.8961   24.1440 H   0  0  0  0  0  0  0  0  0  0  0  0
   10.5636    9.3684   23.7138 H   0  0  0  0  0  0  0  0  0  0  0  0
   10.9491   11.1305   21.9181 H   0  0  0  0  0  0  0  0  0  0  0  0
    9.5764   11.8846   21.1144 H   0  0  0  0  0  0  0  0  0  0  0  0
   10.4011   12.7817   25.2685 H   0  0  0  0  0  0  0  0  0  0  0  0
   11.4408   11.6661   24.3887 H   0  0  0  0  0  0  0  0  0  0  0  0
    7.2042   11.2140   21.7470 H   0  0  0  0  0  0  0  0  0  0  0  0
    6.9355    9.9917   22.9773 H   0  0  0  0  0  0  0  0  0  0  0  0
    7.4295   10.5015   25.4399 H   0  0  0  0  0  0  0  0  0  0  0  0
    8.0388   12.0806   25.9106 H   0  0  0  0  0  0  0  0  0  0  0  0
    8.4250   13.9083   24.0723 H   0  0  0  0  0  0  0  0  0  0  0  0
    8.0798   13.5297   22.3933 H   0  0  0  0  0  0  0  0  0  0  0  0
    9.0445    9.5422   21.7433 H   0  0  0  0  0  0  0  0  0  0  0  0
    9.8832   10.4213   25.8655 H   0  0  0  0  0  0  0  0  0  0  0  0
   10.7834   14.5309   23.4928 H   0  0  0  0  0  0  0  0  0  0  0  0
   11.8275   13.3906   22.6015 H   0  0  0  0  0  0  0  0  0  0  0  0
    9.1477   15.7781   20.8341 H   0  0  0  0  0  0  0  0  0  0  0  0
  1  3  1  0  0  0  0
  1 16  2  0  0  0  0
  2  3  2  0  0  0  0
  2 17  1  0  0  0  0
  3 18  1  0  0  0  0
  4 15  1  0  0  0  0
  4 20  2  0  0  0  0
  4 22  1  0  0  0  0
  5 11  1  0  0  0  0
  5 12  1  0  0  0  0
  6 11  1  0  0  0  0
  6 13  1  0  0  0  0
  7 12  1  0  0  0  0
  7 13  1  0  0  0  0
  8 11  1  0  0  0  0
  8 14  1  0  0  0  0
  9 12  1  0  0  0  0
  9 14  1  0  0  0  0
 10 13  1  0  0  0  0
 10 14  1  0  0  0  0
 13 15  1  0  0  0  0
 14 17  1  0  0  0  0
 16 17  1  0  0  0  0
 18 19  1  0  0  0  0
 18 21  2  0  0  0  0
  1 23  1  0  0  0  0
  2 24  1  0  0  0  0
  5 25  1  0  0  0  0
  5 26  1  0  0  0  0
  6 27  1  0  0  0  0
  6 28  1  0  0  0  0
  7 29  1  0  0  0  0
  7 30  1  0  0  0  0
  8 31  1  0  0  0  0
  8 32  1  0  0  0  0
  9 33  1  0  0  0  0
  9 34  1  0  0  0  0
 10 35  1  0  0  0  0
 10 36  1  0  0  0  0
 11 37  1  0  0  0  0
 12 38  1  0  0  0  0
 15 39  1  0  0  0  0
 15 40  1  0  0  0  0
 22 41  1  0  0  0  0
M  CHG  2  18   1  19  -1
M  END
> <id>
EN300-228905

> <smiles>
OC(=O)CC1(CC2CC3C1)CC(C2)(C3)N4C=C(C=N4)[N+](=O)[O-]

> <MDLNUMBER>
MFCD04967173

> <IUPAC Name>
2-[3-(4-nitro-1H-pyrazol-1-yl)adamantan-1-yl]acetic acid

> <CAS>
1004944-60-8

> <URL>
https://www.enaminestore.com/catalog/EN300-228905

> <ROCS_ShapeQuery>
x0446_0A_x1080_0A_x0929_0A_x0812_0A_x0719_0A_x1140_0A_x0528_0A_x0310_0A

> <ROCS_TanimotoCombo>
0.417 

> <ROCS_ShapeTanimoto>
0.227 

> <ROCS_ColorTanimoto>
0.190 

> <ROCS_RefTversky>
0.210 

> <ROCS_RefColorTversky>
0.224 

> <ROCS_RefTverskyCombo>
0.434 

> <ROCS_FitTversky>
1.560 

> <ROCS_FitColorTversky>
0.551 

> <ROCS_FitTverskyCombo>
2.111 

> <ROCS_ColorScore>
-8.078

> <ROCS_Overlap>
2481.394

> <ROCS_Rank>
267                 

$$$$
untitled-dbase-350303_6
  -OEChem-02082415563D

 51 53  0     1  0  0  0  0  0999 V2000
    9.8941   14.9553   21.8789 C   0  0  0  0  0  0  0  0  0  0  0  0
   14.5002   14.6441   23.1525 C   0  0  0  0  0  0  0  0  0  0  0  0
   13.5775   12.4580   22.6978 C   0  0  0  0  0  0  0  0  0  0  0  0
   15.6267   14.0502   23.7217 C   0  0  0  0  0  0  0  0  0  0  0  0
   14.7040   11.8641   23.2669 C   0  0  0  0  0  0  0  0  0  0  0  0
   13.4756   13.8480   22.6406 C   0  0  0  0  0  0  0  0  0  0  0  0
   15.7286   12.6603   23.7789 C   0  0  0  0  0  0  0  0  0  0  0  0
   12.2877   14.4742   22.0405 C   0  0  0  0  0  0  0  0  0  0  0  0
   11.0255   14.3379   22.4785 C   0  0  0  0  0  0  0  0  0  0  0  0
   10.8315   13.4602   23.6494 C   0  0  0  0  0  0  0  0  0  0  0  0
    9.3846   10.1276   23.7681 C   0  0  0  0  0  0  0  0  0  0  0  0
    8.5673   11.8397   25.3945 C   0  0  0  0  0  0  0  0  0  0  0  0
    7.1444   11.1481   23.3326 C   0  0  0  0  0  0  0  0  0  0  0  0
    9.3347   11.9396   22.2389 C   0  0  0  0  0  0  0  0  0  0  0  0
    9.7582   11.3925   24.5330 C   0  0  2  0  0  0  0  0  0  0  0  0
    8.4889   10.7311   22.6801 C   0  0  1  0  0  0  0  0  0  0  0  0
    7.2435   12.0517   24.6016 C   0  0  0  0  0  0  0  0  0  0  0  0
    8.2452    9.7605   21.5275 C   0  0  0  0  0  0  0  0  0  0  0  0
    7.0846   13.5401   24.2163 C   0  0  0  0  0  0  0  0  0  0  0  0
    6.0553   11.7229   25.5342 C   0  0  0  0  0  0  0  0  0  0  0  0
   17.2222   10.8100   23.8309 C   0  0  0  0  0  0  0  0  0  0  0  0
    8.9680   15.4567   21.3913 N   0  0  0  0  0  0  0  0  0  0  0  0
   10.0268   12.3538   23.4635 N   0  0  0  0  0  0  0  0  0  0  0  0
   11.3860   13.7528   24.7081 O   0  0  0  0  0  0  0  0  0  0  0  0
   16.8279   12.0808   24.3342 O   0  0  0  0  0  0  0  0  0  0  0  0
   18.5699   10.7148   23.9692 F   0  0  0  0  0  0  0  0  0  0  0  0
   16.6854    9.8375   24.6081 F   0  0  0  0  0  0  0  0  0  0  0  0
   14.4352   15.7289   23.1152 H   0  0  0  0  0  0  0  0  0  0  0  0
   12.7871   11.8241   22.3029 H   0  0  0  0  0  0  0  0  0  0  0  0
   16.4216   14.6756   24.1189 H   0  0  0  0  0  0  0  0  0  0  0  0
   14.7778   10.7808   23.3086 H   0  0  0  0  0  0  0  0  0  0  0  0
   12.5085   15.1091   21.1841 H   0  0  0  0  0  0  0  0  0  0  0  0
   10.2784    9.6577   23.3386 H   0  0  0  0  0  0  0  0  0  0  0  0
    8.8711    9.3834   24.3862 H   0  0  0  0  0  0  0  0  0  0  0  0
    8.4129   11.0629   26.1560 H   0  0  0  0  0  0  0  0  0  0  0  0
    8.8300   12.7486   25.9506 H   0  0  0  0  0  0  0  0  0  0  0  0
    6.5075   11.6317   22.5801 H   0  0  0  0  0  0  0  0  0  0  0  0
    6.6185   10.2220   23.6060 H   0  0  0  0  0  0  0  0  0  0  0  0
   10.1041   11.6602   21.5095 H   0  0  0  0  0  0  0  0  0  0  0  0
    8.7402   12.7572   21.8218 H   0  0  0  0  0  0  0  0  0  0  0  0
   10.6473   11.2542   25.1569 H   0  0  0  0  0  0  0  0  0  0  0  0
    7.6064   10.2277   20.7793 H   0  0  0  0  0  0  0  0  0  0  0  0
    7.7584    8.8600   21.8989 H   0  0  0  0  0  0  0  0  0  0  0  0
    9.1935    9.4884   21.0663 H   0  0  0  0  0  0  0  0  0  0  0  0
    6.1597   13.6636   23.6672 H   0  0  0  0  0  0  0  0  0  0  0  0
    7.9242   13.8343   23.5992 H   0  0  0  0  0  0  0  0  0  0  0  0
    7.0617   14.1359   25.1201 H   0  0  0  0  0  0  0  0  0  0  0  0
    5.1312   11.8682   24.9891 H   0  0  0  0  0  0  0  0  0  0  0  0
    6.0886   12.3841   26.3907 H   0  0  0  0  0  0  0  0  0  0  0  0
    6.1377   10.6928   25.8570 H   0  0  0  0  0  0  0  0  0  0  0  0
   16.9678   10.6613   22.7760 H   0  0  0  0  0  0  0  0  0  0  0  0
  1  9  1  0  0  0  0
  1 22  3  0  0  0  0
  2  4  2  0  0  0  0
  2  6  1  0  0  0  0
  3  5  1  0  0  0  0
  3  6  2  0  0  0  0
  4  7  1  0  0  0  0
  5  7  2  0  0  0  0
  6  8  1  4  0  0  0
  7 25  1  0  0  0  0
  8  9  2  0  0  0  0
  9 10  1  0  0  0  0
 10 23  1  0  0  0  0
 10 24  2  0  0  0  0
 11 15  1  0  0  0  0
 11 16  1  0  0  0  0
 12 15  1  0  0  0  0
 12 17  1  0  0  0  0
 13 16  1  0  0  0  0
 13 17  1  0  0  0  0
 14 16  1  0  0  0  0
 14 23  1  0  0  0  0
 15 23  1  0  0  0  0
 16 18  1  0  0  0  0
 17 19  1  0  0  0  0
 17 20  1  0  0  0  0
 21 25  1  0  0  0  0
 21 26  1  0  0  0  0
 21 27  1  0  0  0  0
  2 28  1  0  0  0  0
  3 29  1  0  0  0  0
  4 30  1  0  0  0  0
  5 31  1  0  0  0  0
  8 32  1  0  0  0  0
 11 33  1  0  0  0  0
 11 34  1  0  0  0  0
 12 35  1  0  0  0  0
 12 36  1  0  0  0  0
 13 37  1  0  0  0  0
 13 38  1  0  0  0  0
 14 39  1  0  0  0  0
 14 40  1  0  0  0  0
 15 41  1  0  0  0  0
 18 42  1  0  0  0  0
 18 43  1  0  0  0  0
 18 44  1  0  0  0  0
 19 45  1  0  0  0  0
 19 46  1  0  0  0  0
 19 47  1  0  0  0  0
 20 48  1  0  0  0  0
 20 49  1  0  0  0  0
 20 50  1  0  0  0  0
 21 51  1  0  0  0  0
M  END
> <id>
EN300-26590518

> <smiles>
CC1(CC2CC(C)(C)C1)CN2C(=O)C(=CC=3C=CC(OC(F)F)=CC3)C#N

> <IUPAC Name>
3-[4-(difluoromethoxy)phenyl]-2-{1,3,3-trimethyl-6-azabicyclo[3.2.1]octane-6-carbonyl}prop-2-enenitrile

> <CAS>
327103-03-7

> <URL>
https://www.enaminestore.com/catalog/EN300-26590518

> <ROCS_ShapeQuery>
x0446_0A_x1080_0A_x0929_0A_x0812_0A_x0719_0A_x1140_0A_x0528_0A_x0310_0A

> <ROCS_TanimotoCombo>
0.417 

> <ROCS_ShapeTanimoto>
0.254 

> <ROCS_ColorTanimoto>
0.163 

> <ROCS_RefTversky>
0.233 

> <ROCS_RefColorTversky>
0.187 

> <ROCS_RefTverskyCombo>
0.420 

> <ROCS_FitTversky>
1.557 

> <ROCS_FitColorTversky>
0.554 

> <ROCS_FitTverskyCombo>
2.112 

> <ROCS_ColorScore>
-6.714

> <ROCS_Overlap>
2754.192

> <ROCS_Rank>
268                 

$$$$
untitled-dbase-414164_0
  -OEChem-02082415563D

 42 45  0     1  0  0  0  0  0999 V2000
   12.1421   16.1359   21.9613 C   0  0  0  0  0  0  0  0  0  0  0  0
   12.5433   15.4294   23.0951 C   0  0  0  0  0  0  0  0  0  0  0  0
   11.0262   15.7168   21.2369 C   0  0  0  0  0  0  0  0  0  0  0  0
   11.8285   14.3038   23.5045 C   0  0  0  0  0  0  0  0  0  0  0  0
   10.3115   14.5911   21.6463 C   0  0  0  0  0  0  0  0  0  0  0  0
   10.7126   13.8846   22.7802 C   0  0  0  0  0  0  0  0  0  0  0  0
    6.2127   12.2270   24.2433 C   0  0  0  0  0  0  0  0  0  0  0  0
   10.4980   11.9657   24.5129 C   0  0  0  0  0  0  0  0  0  0  0  0
    8.2254   11.1637   25.1983 C   0  0  0  0  0  0  0  0  0  0  0  0
    9.6952    9.7088   23.7787 C   0  0  0  0  0  0  0  0  0  0  0  0
    8.4475   13.0312   23.5382 C   0  0  0  0  0  0  0  0  0  0  0  0
    9.9295   11.5690   22.1023 C   0  0  0  0  0  0  0  0  0  0  0  0
    7.6462   10.7716   22.7886 C   0  0  0  0  0  0  0  0  0  0  0  0
    9.6728   10.7342   24.9213 C   0  0  1  0  0  0  0  0  0  0  0  0
    9.9246   12.6439   23.2306 C   0  0  1  0  0  0  0  0  0  0  0  0
    7.6345   11.7909   23.9330 C   0  0  2  0  0  0  0  0  0  0  0  0
    9.0968   10.3241   22.4953 C   0  0  2  0  0  0  0  0  0  0  0  0
    9.1141    9.2962   21.3597 C   0  0  0  0  0  0  0  0  0  0  0  0
    5.6567   12.0909   25.3230 O   0  0  0  0  0  0  0  0  0  0  0  0
    5.6359   12.7897   23.1534 O   0  0  0  0  0  0  0  0  0  0  0  0
   12.6980   17.0132   21.6434 H   0  0  0  0  0  0  0  0  0  0  0  0
   13.4115   15.7563   23.6599 H   0  0  0  0  0  0  0  0  0  0  0  0
   10.7130   16.2673   20.3548 H   0  0  0  0  0  0  0  0  0  0  0  0
   12.1485   13.7593   24.3891 H   0  0  0  0  0  0  0  0  0  0  0  0
    9.4434   14.2718   21.0757 H   0  0  0  0  0  0  0  0  0  0  0  0
   10.5163   12.6868   25.3415 H   0  0  0  0  0  0  0  0  0  0  0  0
   11.5423   11.6694   24.3445 H   0  0  0  0  0  0  0  0  0  0  0  0
    7.6312   10.2966   25.5151 H   0  0  0  0  0  0  0  0  0  0  0  0
    8.1984   11.8756   26.0336 H   0  0  0  0  0  0  0  0  0  0  0  0
   10.7267    9.3801   23.5974 H   0  0  0  0  0  0  0  0  0  0  0  0
    9.1275    8.8165   24.0729 H   0  0  0  0  0  0  0  0  0  0  0  0
    8.4162   13.7826   24.3402 H   0  0  0  0  0  0  0  0  0  0  0  0
    7.9973   13.5166   22.6605 H   0  0  0  0  0  0  0  0  0  0  0  0
    9.5297   12.0069   21.1769 H   0  0  0  0  0  0  0  0  0  0  0  0
   10.9632   11.2722   21.8760 H   0  0  0  0  0  0  0  0  0  0  0  0
    7.0295    9.8999   23.0475 H   0  0  0  0  0  0  0  0  0  0  0  0
    7.1926   11.2062   21.8873 H   0  0  0  0  0  0  0  0  0  0  0  0
   10.1029   10.2870   25.8246 H   0  0  0  0  0  0  0  0  0  0  0  0
    8.6911    9.7384   20.4610 H   0  0  0  0  0  0  0  0  0  0  0  0
    8.5255    8.4277   21.6451 H   0  0  0  0  0  0  0  0  0  0  0  0
   10.1381    8.9883   21.1621 H   0  0  0  0  0  0  0  0  0  0  0  0
    4.7152   13.0767   23.3331 H   0  0  0  0  0  0  0  0  0  0  0  0
  1  2  1  0  0  0  0
  1  3  2  0  0  0  0
  2  4  2  0  0  0  0
  3  5  1  0  0  0  0
  4  6  1  0  0  0  0
  5  6  2  0  0  0  0
  6 15  1  0  0  0  0
  7 16  1  0  0  0  0
  7 19  2  0  0  0  0
  7 20  1  0  0  0  0
  8 14  1  0  0  0  0
  8 15  1  0  0  0  0
  9 14  1  0  0  0  0
  9 16  1  0  0  0  0
 10 14  1  0  0  0  0
 10 17  1  0  0  0  0
 11 15  1  0  0  0  0
 11 16  1  0  0  0  0
 12 15  1  0  0  0  0
 12 17  1  0  0  0  0
 13 16  1  0  0  0  0
 13 17  1  0  0  0  0
 17 18  1  0  0  0  0
  1 21  1  0  0  0  0
  2 22  1  0  0  0  0
  3 23  1  0  0  0  0
  4 24  1  0  0  0  0
  5 25  1  0  0  0  0
  8 26  1  0  0  0  0
  8 27  1  0  0  0  0
  9 28  1  0  0  0  0
  9 29  1  0  0  0  0
 10 30  1  0  0  0  0
 10 31  1  0  0  0  0
 11 32  1  0  0  0  0
 11 33  1  0  0  0  0
 12 34  1  0  0  0  0
 12 35  1  0  0  0  0
 13 36  1  0  0  0  0
 13 37  1  0  0  0  0
 14 38  1  0  0  0  0
 18 39  1  0  0  0  0
 18 40  1  0  0  0  0
 18 41  1  0  0  0  0
 20 42  1  0  0  0  0
M  END
> <id>
EN300-54568

> <smiles>
CC1(CC2CC3(C1)C(=O)O)CC(C2)(C3)C=4C=CC=CC4

> <IUPAC Name>
3-methyl-5-phenyladamantane-1-carboxylic acid

> <CAS>
29835-36-7

> <Purity>
95

> <URL>
https://www.enaminestore.com/catalog/EN300-54568

> <MP>
129-130

> <ROCS_ShapeQuery>
x0446_0A_x1080_0A_x0929_0A_x0812_0A_x0719_0A_x1140_0A_x0528_0A_x0310_0A

> <ROCS_TanimotoCombo>
0.417 

> <ROCS_ShapeTanimoto>
0.255 

> <ROCS_ColorTanimoto>
0.161 

> <ROCS_RefTversky>
0.229 

> <ROCS_RefColorTversky>
0.185 

> <ROCS_RefTverskyCombo>
0.414 

> <ROCS_FitTversky>
1.817 

> <ROCS_FitColorTversky>
0.561 

> <ROCS_FitTverskyCombo>
2.378 

> <ROCS_ColorScore>
-6.625

> <ROCS_Overlap>
2705.141

> <ROCS_Rank>
269                 

$$$$
untitled-dbase-567448_7
  -OEChem-02082415563D

 41 43  0     0  0  0  0  0  0999 V2000
   10.0865   13.5200   23.6863 C   0  0  0  0  0  0  0  0  0  0  0  0
   13.1101   10.3649   23.0842 C   0  0  0  0  0  0  0  0  0  0  0  0
    7.8753   12.1658   22.9772 C   0  0  0  0  0  0  0  0  0  0  0  0
    8.2405   12.1100   25.0388 C   0  0  0  0  0  0  0  0  0  0  0  0
   11.0058   10.5524   24.5377 C   0  0  0  0  0  0  0  0  0  0  0  0
   10.6296   10.6107   22.4157 C   0  0  0  0  0  0  0  0  0  0  0  0
    9.2164   12.2801   23.8067 C   0  0  0  0  0  0  0  0  0  0  0  0
    9.7735   10.8176   23.6683 C   0  0  0  0  0  0  0  0  0  0  0  0
    7.6359   11.0318   24.0529 C   0  0  0  0  0  0  0  0  0  0  0  0
    6.2506   10.4996   24.2841 C   0  0  0  0  0  0  0  0  0  0  0  0
   15.2630    9.4372   21.4547 C   0  0  0  0  0  0  0  0  0  0  0  0
   15.0769   11.6461   20.2736 C   0  0  0  0  0  0  0  0  0  0  0  0
   15.6743   11.5783   22.7121 C   0  0  0  0  0  0  0  0  0  0  0  0
   14.8750   10.9084   21.5954 C   0  0  0  0  0  0  0  0  0  0  0  0
   11.7670   10.4934   23.3062 N   0  0  0  0  0  0  0  0  0  0  0  0
   11.1368   13.7011   24.2841 O   0  0  0  0  0  0  0  0  0  0  0  0
   13.8800    9.7703   23.8333 O   0  0  0  0  0  0  0  0  0  0  0  0
    8.6150    9.9615   23.8504 O   0  0  0  0  0  0  0  0  0  0  0  0
    9.5373   14.4081   22.8220 O   0  0  0  0  0  0  0  0  0  0  0  0
   13.4832   10.9832   21.9229 O   0  0  0  0  0  0  0  0  0  0  0  0
    7.2025   13.0304   23.0096 H   0  0  0  0  0  0  0  0  0  0  0  0
    7.9702   11.8250   21.9421 H   0  0  0  0  0  0  0  0  0  0  0  0
    8.6820   11.7159   25.9590 H   0  0  0  0  0  0  0  0  0  0  0  0
    7.6055   12.9687   25.2848 H   0  0  0  0  0  0  0  0  0  0  0  0
   11.3217   11.3569   25.2068 H   0  0  0  0  0  0  0  0  0  0  0  0
   11.0003    9.6013   25.0778 H   0  0  0  0  0  0  0  0  0  0  0  0
   10.4289    9.6897   21.8606 H   0  0  0  0  0  0  0  0  0  0  0  0
   10.7025   11.4532   21.7229 H   0  0  0  0  0  0  0  0  0  0  0  0
    6.2513    9.7212   25.0579 H   0  0  0  0  0  0  0  0  0  0  0  0
    5.8385   10.0609   23.3663 H   0  0  0  0  0  0  0  0  0  0  0  0
    5.5710   11.2974   24.6102 H   0  0  0  0  0  0  0  0  0  0  0  0
   15.1196    8.9042   22.4015 H   0  0  0  0  0  0  0  0  0  0  0  0
   14.6723    8.9365   20.6808 H   0  0  0  0  0  0  0  0  0  0  0  0
   16.3242    9.3353   21.2003 H   0  0  0  0  0  0  0  0  0  0  0  0
   14.7997   12.7021   20.3698 H   0  0  0  0  0  0  0  0  0  0  0  0
   14.4332   11.2282   19.4911 H   0  0  0  0  0  0  0  0  0  0  0  0
   16.1162   11.5901   19.9342 H   0  0  0  0  0  0  0  0  0  0  0  0
   15.3962   12.6336   22.8132 H   0  0  0  0  0  0  0  0  0  0  0  0
   15.5128   11.0846   23.6758 H   0  0  0  0  0  0  0  0  0  0  0  0
   16.7470   11.5614   22.4877 H   0  0  0  0  0  0  0  0  0  0  0  0
   10.0841   15.2176   22.7318 H   0  0  0  0  0  0  0  0  0  0  0  0
  1  7  1  1  0  0  0
  1 16  2  0  0  0  0
  1 19  1  0  0  0  0
  2 15  1  0  0  0  0
  2 17  2  0  0  0  0
  2 20  1  0  0  0  0
  3  7  1  0  0  0  0
  3  9  1  0  0  0  0
  4  7  1  0  0  0  0
  4  9  1  0  0  0  0
  5  8  1  0  0  0  0
  5 15  1  0  0  0  0
  6  8  1  0  0  0  0
  6 15  1  0  0  0  0
  7  8  1  0  0  0  0
  8 18  1  0  0  0  0
  9 10  1  1  0  0  0
  9 18  1  0  0  0  0
 11 14  1  0  0  0  0
 12 14  1  0  0  0  0
 13 14  1  0  0  0  0
 14 20  1  0  0  0  0
  3 21  1  0  0  0  0
  3 22  1  0  0  0  0
  4 23  1  0  0  0  0
  4 24  1  0  0  0  0
  5 25  1  0  0  0  0
  5 26  1  0  0  0  0
  6 27  1  0  0  0  0
  6 28  1  0  0  0  0
 10 29  1  0  0  0  0
 10 30  1  0  0  0  0
 10 31  1  0  0  0  0
 11 32  1  0  0  0  0
 11 33  1  0  0  0  0
 11 34  1  0  0  0  0
 12 35  1  0  0  0  0
 12 36  1  0  0  0  0
 12 37  1  0  0  0  0
 13 38  1  0  0  0  0
 13 39  1  0  0  0  0
 13 40  1  0  0  0  0
 19 41  1  0  0  0  0
M  END
> <id>
EN300-37375215

> <smiles>
CC(C)(C)OC(=O)N1CC2(C1)O[C@]3(C)C[C@]2(C3)C(=O)O

> <IUPAC Name>
1-[(tert-butoxy)carbonyl]-4'-methyl-3'-oxaspiro[azetidine-3,2'-bicyclo[2.1.1]hexane]-1'-carboxylic acid

> <CAS>
2490400-53-6

> <URL>
https://www.enaminestore.com/catalog/EN300-37375215

> <ROCS_ShapeQuery>
x0446_0A_x1080_0A_x0929_0A_x0812_0A_x0719_0A_x1140_0A_x0528_0A_x0310_0A

> <ROCS_TanimotoCombo>
0.417 

> <ROCS_ShapeTanimoto>
0.205 

> <ROCS_ColorTanimoto>
0.212 

> <ROCS_RefTversky>
0.191 

> <ROCS_RefColorTversky>
0.248 

> <ROCS_RefTverskyCombo>
0.439 

> <ROCS_FitTversky>
1.524 

> <ROCS_FitColorTversky>
0.597 

> <ROCS_FitTverskyCombo>
2.121 

> <ROCS_ColorScore>
-8.930

> <ROCS_Overlap>
2256.196

> <ROCS_Rank>
270                 

$$$$
untitled-dbase-41222_0
  -OEChem-02082415563D

 38 39  0     0  0  0  0  0  0999 V2000
   12.7829   15.2476   22.3780 C   0  0  0  0  0  0  0  0  0  0  0  0
   12.3994   13.9736   22.7969 C   0  0  0  0  0  0  0  0  0  0  0  0
   11.8464   16.1014   21.7951 C   0  0  0  0  0  0  0  0  0  0  0  0
   10.1431   14.4071   22.0498 C   0  0  0  0  0  0  0  0  0  0  0  0
    8.4736   12.1891   24.2437 C   0  0  0  0  0  0  0  0  0  0  0  0
   11.0795   13.5533   22.6328 C   0  0  0  0  0  0  0  0  0  0  0  0
   10.5265   15.6811   21.6310 C   0  0  0  0  0  0  0  0  0  0  0  0
    7.6039   11.0927   24.3959 C   0  0  0  0  0  0  0  0  0  0  0  0
    9.5341   11.6895   23.5280 C   0  0  0  0  0  0  0  0  0  0  0  0
    8.3262   13.5725   24.7233 C   0  0  0  0  0  0  0  0  0  0  0  0
    6.3034   11.0598   25.0881 C   0  0  0  0  0  0  0  0  0  0  0  0
    9.1785   15.4500   26.0733 C   0  0  0  0  0  0  0  0  0  0  0  0
   10.4460   13.3306   26.0954 C   0  0  0  0  0  0  0  0  0  0  0  0
    8.2812   16.0212   20.9247 C   0  0  0  0  0  0  0  0  0  0  0  0
    8.0713    9.9804   23.8228 N   0  0  0  0  0  0  0  0  0  0  0  0
    9.2462   10.3754   23.3035 N   0  0  0  0  0  0  0  0  0  0  0  0
   10.6808   12.2268   23.0677 N   0  0  0  0  0  0  0  0  0  0  0  0
    9.2933   14.0784   25.5979 N   0  0  0  0  0  0  0  0  0  0  0  0
    7.3523   14.1944   24.3004 O   0  0  0  0  0  0  0  0  0  0  0  0
    9.6129   16.5145   21.0623 O   0  0  0  0  0  0  0  0  0  0  0  0
   13.8106   15.5748   22.5056 H   0  0  0  0  0  0  0  0  0  0  0  0
   13.1377   13.3159   23.2486 H   0  0  0  0  0  0  0  0  0  0  0  0
   12.1510   17.0929   21.4714 H   0  0  0  0  0  0  0  0  0  0  0  0
    9.1129   14.0839   21.9196 H   0  0  0  0  0  0  0  0  0  0  0  0
    5.4775   11.3045   24.3989 H   0  0  0  0  0  0  0  0  0  0  0  0
    6.0896   10.0686   25.5255 H   0  0  0  0  0  0  0  0  0  0  0  0
    6.2604   11.7765   25.9273 H   0  0  0  0  0  0  0  0  0  0  0  0
    8.5893   15.4686   27.0020 H   0  0  0  0  0  0  0  0  0  0  0  0
   10.1822   15.8557   26.2678 H   0  0  0  0  0  0  0  0  0  0  0  0
    8.6773   16.0621   25.3090 H   0  0  0  0  0  0  0  0  0  0  0  0
   11.2964   13.4690   25.4115 H   0  0  0  0  0  0  0  0  0  0  0  0
   10.7170   13.6978   27.0962 H   0  0  0  0  0  0  0  0  0  0  0  0
   10.1923   12.2618   26.1532 H   0  0  0  0  0  0  0  0  0  0  0  0
    7.6554   16.7851   20.4569 H   0  0  0  0  0  0  0  0  0  0  0  0
    7.8841   15.7624   21.9095 H   0  0  0  0  0  0  0  0  0  0  0  0
    8.2960   15.1291   20.2940 H   0  0  0  0  0  0  0  0  0  0  0  0
    9.8048    9.6941   22.8052 H   0  0  0  0  0  0  0  0  0  0  0  0
   11.5001   11.5871   22.9864 H   0  0  0  0  0  0  0  0  0  0  0  0
  1  2  1  0  0  0  0
  1  3  2  0  0  0  0
  2  6  2  0  0  0  0
  3  7  1  0  0  0  0
  4  6  1  0  0  0  0
  4  7  2  0  0  0  0
  5  8  1  0  0  0  0
  5  9  2  0  0  0  0
  5 10  1  0  0  0  0
  6 17  1  0  0  0  0
  7 20  1  0  0  0  0
  8 11  1  0  0  0  0
  8 15  2  0  0  0  0
  9 16  1  0  0  0  0
  9 17  1  0  0  0  0
 10 18  1  0  0  0  0
 10 19  2  0  0  0  0
 12 18  1  0  0  0  0
 13 18  1  0  0  0  0
 14 20  1  0  0  0  0
 15 16  1  0  0  0  0
  1 21  1  0  0  0  0
  2 22  1  0  0  0  0
  3 23  1  0  0  0  0
  4 24  1  0  0  0  0
 11 25  1  0  0  0  0
 11 26  1  0  0  0  0
 11 27  1  0  0  0  0
 12 28  1  0  0  0  0
 12 29  1  0  0  0  0
 12 30  1  0  0  0  0
 13 31  1  0  0  0  0
 13 32  1  0  0  0  0
 13 33  1  0  0  0  0
 14 34  1  0  0  0  0
 14 35  1  0  0  0  0
 14 36  1  0  0  0  0
 16 37  1  0  0  0  0
 17 38  1  0  0  0  0
M  END
> <id>
EN300-195638

> <smiles>
COC=1C=CC=C(NC=2NN=C(C)C2C(=O)N(C)C)C1

> <MDLNUMBER>
MFCD28383724

> <IUPAC Name>
5-[(3-methoxyphenyl)amino]-N,N,3-trimethyl-1H-pyrazole-4-carboxamide

> <Purity>
95

> <URL>
https://www.enaminestore.com/catalog/EN300-195638

> <ROCS_ShapeQuery>
x0446_0A_x1080_0A_x0929_0A_x0812_0A_x0719_0A_x1140_0A_x0528_0A_x0310_0A

> <ROCS_TanimotoCombo>
0.417 

> <ROCS_ShapeTanimoto>
0.242 

> <ROCS_ColorTanimoto>
0.175 

> <ROCS_RefTversky>
0.219 

> <ROCS_RefColorTversky>
0.185 

> <ROCS_RefTverskyCombo>
0.404 

> <ROCS_FitTversky>
1.753 

> <ROCS_FitColorTversky>
0.773 

> <ROCS_FitTverskyCombo>
2.526 

> <ROCS_ColorScore>
-6.585

> <ROCS_Overlap>
2585.885

> <ROCS_Rank>
271                 

$$$$
untitled-dbase-395735_9
  -OEChem-02082415563D

 37 38  0     1  0  0  0  0  0999 V2000
    6.2877   10.8394   24.7538 C   0  0  0  0  0  0  0  0  0  0  0  0
   10.4440   13.7835   22.3950 C   0  0  0  0  0  0  0  0  0  0  0  0
    8.6361   11.3669   25.5644 C   0  0  0  0  0  0  0  0  0  0  0  0
    9.8798   11.9006   24.8331 C   0  0  0  0  0  0  0  0  0  0  0  0
    8.0345   12.0271   23.3375 C   0  0  0  0  0  0  0  0  0  0  0  0
    9.4294   10.1705   23.0861 C   0  0  0  0  0  0  0  0  0  0  0  0
    7.7279   10.9748   24.3934 C   0  0  2  0  0  0  0  0  0  0  0  0
    9.5167   11.6787   23.3495 C   0  0  2  0  0  0  0  0  0  0  0  0
   12.8307   14.4601   23.2266 C   0  0  0  0  0  0  0  0  0  0  0  0
   13.5768   14.5940   20.8319 C   0  0  0  0  0  0  0  0  0  0  0  0
   12.1111   16.3957   21.7878 C   0  0  0  0  0  0  0  0  0  0  0  0
   12.4510   14.9062   21.8154 C   0  0  0  0  0  0  0  0  0  0  0  0
   10.3291   12.3978   22.4277 N   0  0  0  0  0  0  0  0  0  0  0  0
    5.6272    9.8183   24.6336 O   0  0  0  0  0  0  0  0  0  0  0  0
    9.8639   14.5558   23.1511 O   0  0  0  0  0  0  0  0  0  0  0  0
    8.2566    9.7625   23.8333 O   0  0  0  0  0  0  0  0  0  0  0  0
    5.8024   12.0101   25.2346 O   0  0  0  0  0  0  0  0  0  0  0  0
   11.2971   14.1675   21.3989 O   0  0  0  0  0  0  0  0  0  0  0  0
    8.8931   10.5072   26.1927 H   0  0  0  0  0  0  0  0  0  0  0  0
    8.1926   12.1443   26.1960 H   0  0  0  0  0  0  0  0  0  0  0  0
   10.0159   12.9646   25.0605 H   0  0  0  0  0  0  0  0  0  0  0  0
   10.7877   11.3650   25.1296 H   0  0  0  0  0  0  0  0  0  0  0  0
    7.5536   11.8196   22.3745 H   0  0  0  0  0  0  0  0  0  0  0  0
    7.8043   13.0501   23.6545 H   0  0  0  0  0  0  0  0  0  0  0  0
    9.2491    9.9335   22.0319 H   0  0  0  0  0  0  0  0  0  0  0  0
   10.3001    9.6112   23.4418 H   0  0  0  0  0  0  0  0  0  0  0  0
   12.0252   14.6825   23.9356 H   0  0  0  0  0  0  0  0  0  0  0  0
   13.0429   13.3867   23.2670 H   0  0  0  0  0  0  0  0  0  0  0  0
   13.7145   15.0013   23.5833 H   0  0  0  0  0  0  0  0  0  0  0  0
   13.3087   14.9124   19.8181 H   0  0  0  0  0  0  0  0  0  0  0  0
   13.7600   13.5147   20.7782 H   0  0  0  0  0  0  0  0  0  0  0  0
   14.5104   15.0904   21.1157 H   0  0  0  0  0  0  0  0  0  0  0  0
   11.8387   16.7160   20.7757 H   0  0  0  0  0  0  0  0  0  0  0  0
   11.2803   16.6323   22.4605 H   0  0  0  0  0  0  0  0  0  0  0  0
   12.9784   16.9988   22.0801 H   0  0  0  0  0  0  0  0  0  0  0  0
   10.8661   11.8574   21.7413 H   0  0  0  0  0  0  0  0  0  0  0  0
    4.8541   11.9420   25.4761 H   0  0  0  0  0  0  0  0  0  0  0  0
  1  7  1  0  0  0  0
  1 14  2  0  0  0  0
  1 17  1  0  0  0  0
  2 13  1  0  0  0  0
  2 15  2  0  0  0  0
  2 18  1  0  0  0  0
  3  4  1  0  0  0  0
  3  7  1  0  0  0  0
  4  8  1  0  0  0  0
  5  7  1  0  0  0  0
  5  8  1  0  0  0  0
  6  8  1  0  0  0  0
  6 16  1  0  0  0  0
  7 16  1  0  0  0  0
  8 13  1  0  0  0  0
  9 12  1  0  0  0  0
 10 12  1  0  0  0  0
 11 12  1  0  0  0  0
 12 18  1  0  0  0  0
  3 19  1  0  0  0  0
  3 20  1  0  0  0  0
  4 21  1  0  0  0  0
  4 22  1  0  0  0  0
  5 23  1  0  0  0  0
  5 24  1  0  0  0  0
  6 25  1  0  0  0  0
  6 26  1  0  0  0  0
  9 27  1  0  0  0  0
  9 28  1  0  0  0  0
  9 29  1  0  0  0  0
 10 30  1  0  0  0  0
 10 31  1  0  0  0  0
 10 32  1  0  0  0  0
 11 33  1  0  0  0  0
 11 34  1  0  0  0  0
 11 35  1  0  0  0  0
 13 36  1  0  0  0  0
 17 37  1  0  0  0  0
M  END
> <id>
EN300-7457059

> <smiles>
CC(C)(C)OC(=O)NC1(CCC2(C1)C(=O)O)CO2

> <MDLNUMBER>
MFCD32648885

> <IUPAC Name>
4-{[(tert-butoxy)carbonyl]amino}-2-oxabicyclo[2.2.1]heptane-1-carboxylic acid

> <CAS>
2411196-08-0

> <Purity>
95

> <URL>
https://www.enaminestore.com/catalog/EN300-7457059

> <ROCS_ShapeQuery>
x0446_0A_x1080_0A_x0929_0A_x0812_0A_x0719_0A_x1140_0A_x0528_0A_x0310_0A

> <ROCS_TanimotoCombo>
0.417 

> <ROCS_ShapeTanimoto>
0.225 

> <ROCS_ColorTanimoto>
0.191 

> <ROCS_RefTversky>
0.206 

> <ROCS_RefColorTversky>
0.226 

> <ROCS_RefTverskyCombo>
0.431 

> <ROCS_FitTversky>
1.743 

> <ROCS_FitColorTversky>
0.557 

> <ROCS_FitTverskyCombo>
2.301 

> <ROCS_ColorScore>
-8.131

> <ROCS_Overlap>
2426.290

> <ROCS_Rank>
272                 

$$$$
untitled-dbase-404427_5
  -OEChem-02082415563D

 33 35  0     0  0  0  0  0  0999 V2000
    9.6118   10.8651   23.3550 C   0  0  0  0  0  0  0  0  0  0  0  0
    9.3535   12.2200   23.3050 C   0  0  0  0  0  0  0  0  0  0  0  0
    7.7354   11.1104   24.3042 C   0  0  0  0  0  0  0  0  0  0  0  0
    6.4783   10.9640   24.9830 C   0  0  0  0  0  0  0  0  0  0  0  0
    6.1754   13.2400   24.8310 C   0  0  0  0  0  0  0  0  0  0  0  0
    7.3411   13.4565   24.1905 C   0  0  0  0  0  0  0  0  0  0  0  0
    9.2933   14.0378   21.6549 C   0  0  0  0  0  0  0  0  0  0  0  0
   10.4727   14.4172   23.8502 C   0  0  0  0  0  0  0  0  0  0  0  0
   11.4757   12.9717   22.0149 C   0  0  0  0  0  0  0  0  0  0  0  0
   11.8044   15.1623   23.7039 C   0  0  0  0  0  0  0  0  0  0  0  0
   12.2897   14.1432   21.4455 C   0  0  0  0  0  0  0  0  0  0  0  0
   10.1621   13.3905   22.7195 C   0  0  0  0  0  0  0  0  0  0  0  0
   12.1591   15.4212   22.2568 C   0  0  0  0  0  0  0  0  0  0  0  0
    8.5964   10.1770   23.9809 N   0  0  0  0  0  0  0  0  0  0  0  0
    5.7168   11.9933   25.2414 N   0  0  0  0  0  0  0  0  0  0  0  0
    8.1424   12.3629   23.9199 N   0  0  0  0  0  0  0  0  0  0  0  0
    8.9175   15.2005   21.6672 O   0  0  0  0  0  0  0  0  0  0  0  0
    8.9849   13.1463   20.6816 O   0  0  0  0  0  0  0  0  0  0  0  0
   13.3200   16.1196   22.1856 F   0  0  0  0  0  0  0  0  0  0  0  0
   11.2068   16.2168   21.7032 F   0  0  0  0  0  0  0  0  0  0  0  0
   10.4794   10.3470   22.9718 H   0  0  0  0  0  0  0  0  0  0  0  0
    6.1525    9.9584   25.2930 H   0  0  0  0  0  0  0  0  0  0  0  0
    5.5210   14.0743   25.0605 H   0  0  0  0  0  0  0  0  0  0  0  0
    7.6759   14.4386   23.8820 H   0  0  0  0  0  0  0  0  0  0  0  0
   10.4691   13.8960   24.8239 H   0  0  0  0  0  0  0  0  0  0  0  0
    9.6609   15.1621   23.9156 H   0  0  0  0  0  0  0  0  0  0  0  0
   11.2662   12.2635   21.1992 H   0  0  0  0  0  0  0  0  0  0  0  0
   12.1146   12.4262   22.7268 H   0  0  0  0  0  0  0  0  0  0  0  0
   11.7682   16.1133   24.2566 H   0  0  0  0  0  0  0  0  0  0  0  0
   12.6008   14.5681   24.1760 H   0  0  0  0  0  0  0  0  0  0  0  0
   13.3505   13.8505   21.3963 H   0  0  0  0  0  0  0  0  0  0  0  0
   11.9861   14.3373   20.4040 H   0  0  0  0  0  0  0  0  0  0  0  0
    8.4219   13.5453   19.9843 H   0  0  0  0  0  0  0  0  0  0  0  0
  1  2  2  0  0  0  0
  1 14  1  0  0  0  0
  2 12  1  0  0  0  0
  2 16  1  0  0  0  0
  3  4  1  0  0  0  0
  3 14  2  0  0  0  0
  3 16  1  0  0  0  0
  4 15  2  0  0  0  0
  5  6  2  0  0  0  0
  5 15  1  0  0  0  0
  6 16  1  0  0  0  0
  7 12  1  0  0  0  0
  7 17  2  0  0  0  0
  7 18  1  0  0  0  0
  8 10  1  0  0  0  0
  8 12  1  0  0  0  0
  9 11  1  0  0  0  0
  9 12  1  0  0  0  0
 10 13  1  0  0  0  0
 11 13  1  0  0  0  0
 13 19  1  0  0  0  0
 13 20  1  0  0  0  0
  1 21  1  0  0  0  0
  4 22  1  0  0  0  0
  5 23  1  0  0  0  0
  6 24  1  0  0  0  0
  8 25  1  0  0  0  0
  8 26  1  0  0  0  0
  9 27  1  0  0  0  0
  9 28  1  0  0  0  0
 10 29  1  0  0  0  0
 10 30  1  0  0  0  0
 11 31  1  0  0  0  0
 11 32  1  0  0  0  0
 18 33  1  0  0  0  0
M  END
> <id>
EN300-1971914

> <smiles>
OC(=O)C1(CCC(F)(F)CC1)C2=CN=C3C=NC=CN23

> <IUPAC Name>
4,4-difluoro-1-{imidazo[1,2-a]pyrazin-3-yl}cyclohexane-1-carboxylic acid

> <CAS>
2228768-16-7

> <URL>
https://www.enaminestore.com/catalog/EN300-1971914

> <ROCS_ShapeQuery>
x0446_0A_x1080_0A_x0929_0A_x0812_0A_x0719_0A_x1140_0A_x0528_0A_x0310_0A

> <ROCS_TanimotoCombo>
0.417 

> <ROCS_ShapeTanimoto>
0.256 

> <ROCS_ColorTanimoto>
0.161 

> <ROCS_RefTversky>
0.230 

> <ROCS_RefColorTversky>
0.179 

> <ROCS_RefTverskyCombo>
0.409 

> <ROCS_FitTversky>
1.799 

> <ROCS_FitColorTversky>
0.614 

> <ROCS_FitTverskyCombo>
2.413 

> <ROCS_ColorScore>
-6.417

> <ROCS_Overlap>
2710.670

> <ROCS_Rank>
273                 

$$$$
untitled-dbase-499515_4
  -OEChem-02082415563D

 24 25  0     0  0  0  0  0  0999 V2000
    6.9420   11.1862   25.7154 C   0  0  0  0  0  0  0  0  0  0  0  0
   10.5629   13.7077   22.5963 C   0  0  0  0  0  0  0  0  0  0  0  0
    9.4413   11.7415   24.8951 C   0  0  0  0  0  0  0  0  0  0  0  0
    7.9980   12.2082   23.4651 C   0  0  0  0  0  0  0  0  0  0  0  0
    9.2442   10.1298   23.0478 C   0  0  0  0  0  0  0  0  0  0  0  0
    8.0036   11.1385   24.6296 C   0  0  0  0  0  0  0  0  0  0  0  0
    9.4337   11.6185   23.3436 C   0  0  0  0  0  0  0  0  0  0  0  0
   11.6697   14.1788   21.6995 C   0  0  0  0  0  0  0  0  0  0  0  0
   10.4197   12.3251   22.5787 N   0  0  0  0  0  0  0  0  0  0  0  0
    7.0422   10.6691   26.8181 O   0  0  0  0  0  0  0  0  0  0  0  0
    9.8808   14.4890   23.2532 O   0  0  0  0  0  0  0  0  0  0  0  0
    8.2048    9.8371   24.0016 O   0  0  0  0  0  0  0  0  0  0  0  0
    5.8578   11.8824   25.2946 O   0  0  0  0  0  0  0  0  0  0  0  0
   12.2855   13.1461   21.0696 F   0  0  0  0  0  0  0  0  0  0  0  0
   12.6289   14.8517   22.3849 F   0  0  0  0  0  0  0  0  0  0  0  0
   11.2194   15.0164   20.7311 F   0  0  0  0  0  0  0  0  0  0  0  0
    9.4895   12.7496   25.3219 H   0  0  0  0  0  0  0  0  0  0  0  0
   10.1408   11.0891   25.4260 H   0  0  0  0  0  0  0  0  0  0  0  0
    7.3206   12.0010   22.6315 H   0  0  0  0  0  0  0  0  0  0  0  0
    7.9062   13.2610   23.7547 H   0  0  0  0  0  0  0  0  0  0  0  0
    8.8808    9.9346   22.0348 H   0  0  0  0  0  0  0  0  0  0  0  0
   10.1303    9.5294   23.2722 H   0  0  0  0  0  0  0  0  0  0  0  0
   11.0517   11.7825   21.9883 H   0  0  0  0  0  0  0  0  0  0  0  0
    5.1591   11.9231   25.9820 H   0  0  0  0  0  0  0  0  0  0  0  0
  1  6  1  0  0  0  0
  1 10  2  0  0  0  0
  1 13  1  0  0  0  0
  2  8  1  0  0  0  0
  2  9  1  0  0  0  0
  2 11  2  0  0  0  0
  3  6  1  0  0  0  0
  3  7  1  0  0  0  0
  4  6  1  0  0  0  0
  4  7  1  0  0  0  0
  5  7  1  0  0  0  0
  5 12  1  0  0  0  0
  6 12  1  0  0  0  0
  7  9  1  0  0  0  0
  8 14  1  0  0  0  0
  8 15  1  0  0  0  0
  8 16  1  0  0  0  0
  3 17  1  0  0  0  0
  3 18  1  0  0  0  0
  4 19  1  0  0  0  0
  4 20  1  0  0  0  0
  5 21  1  0  0  0  0
  5 22  1  0  0  0  0
  9 23  1  0  0  0  0
 13 24  1  0  0  0  0
M  END
> <id>
EN300-28276566

> <smiles>
OC(=O)C1(CC2(C1)NC(=O)C(F)(F)F)OC2

> <IUPAC Name>
4-(2,2,2-trifluoroacetamido)-2-oxabicyclo[2.1.1]hexane-1-carboxylic acid

> <CAS>
2680790-60-5

> <URL>
https://www.enaminestore.com/catalog/EN300-28276566

> <ROCS_ShapeQuery>
x0446_0A_x1080_0A_x0929_0A_x0812_0A_x0719_0A_x1140_0A_x0528_0A_x0310_0A

> <ROCS_TanimotoCombo>
0.417 

> <ROCS_ShapeTanimoto>
0.211 

> <ROCS_ColorTanimoto>
0.205 

> <ROCS_RefTversky>
0.194 

> <ROCS_RefColorTversky>
0.237 

> <ROCS_RefTverskyCombo>
0.431 

> <ROCS_FitTversky>
1.742 

> <ROCS_FitColorTversky>
0.608 

> <ROCS_FitTverskyCombo>
2.350 

> <ROCS_ColorScore>
-8.517

> <ROCS_Overlap>
2286.549

> <ROCS_Rank>
274                 

$$$$
untitled-dbase-479575_3
  -OEChem-02082415563D

 38 39  0     1  0  0  0  0  0999 V2000
   10.4513   13.7829   22.4047 C   0  0  0  0  0  0  0  0  0  0  0  0
    9.8747   11.8956   24.8339 C   0  0  0  0  0  0  0  0  0  0  0  0
    8.6259   11.3639   25.5567 C   0  0  0  0  0  0  0  0  0  0  0  0
    8.0370   12.0166   23.3219 C   0  0  0  0  0  0  0  0  0  0  0  0
    9.4500   10.1664   23.0874 C   0  0  0  0  0  0  0  0  0  0  0  0
    9.5222   11.6744   23.3491 C   0  0  2  0  0  0  0  0  0  0  0  0
    7.7197   10.9664   24.3799 C   0  0  2  0  0  0  0  0  0  0  0  0
   12.0817   16.1187   22.5936 C   0  0  0  0  0  0  0  0  0  0  0  0
   12.5014   15.7986   20.1379 C   0  0  0  0  0  0  0  0  0  0  0  0
   10.1695   16.2370   20.9614 C   0  0  0  0  0  0  0  0  0  0  0  0
    6.2625   10.7867   24.7290 C   0  0  0  0  0  0  0  0  0  0  0  0
   11.5124   15.5819   21.2812 C   0  0  0  0  0  0  0  0  0  0  0  0
   10.3398   12.3971   22.4342 N   0  0  0  0  0  0  0  0  0  0  0  0
    9.8638   14.5526   23.1577 O   0  0  0  0  0  0  0  0  0  0  0  0
    8.2731    9.7495   23.8208 O   0  0  0  0  0  0  0  0  0  0  0  0
    5.7549   12.0049   25.2564 O   0  0  0  0  0  0  0  0  0  0  0  0
   11.3107   14.1705   21.4155 O   0  0  0  0  0  0  0  0  0  0  0  0
   10.0097   12.9596   25.0621 H   0  0  0  0  0  0  0  0  0  0  0  0
   10.7807   11.3607   25.1376 H   0  0  0  0  0  0  0  0  0  0  0  0
    8.8776   10.5079   26.1915 H   0  0  0  0  0  0  0  0  0  0  0  0
    8.1800   12.1507   26.1746 H   0  0  0  0  0  0  0  0  0  0  0  0
    7.8041   13.0401   23.6342 H   0  0  0  0  0  0  0  0  0  0  0  0
    7.5728   11.8015   22.3528 H   0  0  0  0  0  0  0  0  0  0  0  0
    9.2834    9.9272   22.0314 H   0  0  0  0  0  0  0  0  0  0  0  0
   10.3209    9.6136   23.4526 H   0  0  0  0  0  0  0  0  0  0  0  0
   11.3747   15.9651   23.4168 H   0  0  0  0  0  0  0  0  0  0  0  0
   13.0276   15.6317   22.8521 H   0  0  0  0  0  0  0  0  0  0  0  0
   12.2542   17.1993   22.5320 H   0  0  0  0  0  0  0  0  0  0  0  0
   12.0970   15.4149   19.1942 H   0  0  0  0  0  0  0  0  0  0  0  0
   13.4336   15.2515   20.3193 H   0  0  0  0  0  0  0  0  0  0  0  0
   12.7413   16.8586   20.0067 H   0  0  0  0  0  0  0  0  0  0  0  0
    9.7609   15.8521   20.0200 H   0  0  0  0  0  0  0  0  0  0  0  0
    9.4356   16.0604   21.7544 H   0  0  0  0  0  0  0  0  0  0  0  0
   10.2854   17.3187   20.8288 H   0  0  0  0  0  0  0  0  0  0  0  0
    6.1377   10.0010   25.4825 H   0  0  0  0  0  0  0  0  0  0  0  0
    5.6797   10.5212   23.8399 H   0  0  0  0  0  0  0  0  0  0  0  0
   10.8829   11.8592   21.7509 H   0  0  0  0  0  0  0  0  0  0  0  0
    4.8200   11.8506   25.4680 H   0  0  0  0  0  0  0  0  0  0  0  0
  1 13  1  0  0  0  0
  1 14  2  0  0  0  0
  1 17  1  0  0  0  0
  2  3  1  0  0  0  0
  2  6  1  0  0  0  0
  3  7  1  0  0  0  0
  4  6  1  0  0  0  0
  4  7  1  0  0  0  0
  5  6  1  0  0  0  0
  5 15  1  0  0  0  0
  6 13  1  0  0  0  0
  7 11  1  0  0  0  0
  7 15  1  0  0  0  0
  8 12  1  0  0  0  0
  9 12  1  0  0  0  0
 10 12  1  0  0  0  0
 11 16  1  0  0  0  0
 12 17  1  0  0  0  0
  2 18  1  0  0  0  0
  2 19  1  0  0  0  0
  3 20  1  0  0  0  0
  3 21  1  0  0  0  0
  4 22  1  0  0  0  0
  4 23  1  0  0  0  0
  5 24  1  0  0  0  0
  5 25  1  0  0  0  0
  8 26  1  0  0  0  0
  8 27  1  0  0  0  0
  8 28  1  0  0  0  0
  9 29  1  0  0  0  0
  9 30  1  0  0  0  0
  9 31  1  0  0  0  0
 10 32  1  0  0  0  0
 10 33  1  0  0  0  0
 10 34  1  0  0  0  0
 11 35  1  0  0  0  0
 11 36  1  0  0  0  0
 13 37  1  0  0  0  0
 16 38  1  0  0  0  0
M  END
> <id>
EN300-7563710

> <smiles>
CC(C)(C)OC(=O)NC1(CCC2(CO)C1)CO2

> <IUPAC Name>
tert-butyl N-[1-(hydroxymethyl)-2-oxabicyclo[2.2.1]heptan-4-yl]carbamate

> <CAS>
2580185-38-0

> <URL>
https://www.enaminestore.com/catalog/EN300-7563710

> <ROCS_ShapeQuery>
x0446_0A_x1080_0A_x0929_0A_x0812_0A_x0719_0A_x1140_0A_x0528_0A_x0310_0A

> <ROCS_TanimotoCombo>
0.417 

> <ROCS_ShapeTanimoto>
0.220 

> <ROCS_ColorTanimoto>
0.197 

> <ROCS_RefTversky>
0.201 

> <ROCS_RefColorTversky>
0.227 

> <ROCS_RefTverskyCombo>
0.427 

> <ROCS_FitTversky>
1.767 

> <ROCS_FitColorTversky>
0.599 

> <ROCS_FitTverskyCombo>
2.366 

> <ROCS_ColorScore>
-8.155

> <ROCS_Overlap>
2367.054

> <ROCS_Rank>
275                 

$$$$
untitled-dbase-274168_7
  -OEChem-02082415563D

 65 68  0     1  0  0  0  0  0999 V2000
    7.0319   12.6972   23.0021 C   0  0  0  0  0  0  0  0  0  0  0  0
   11.2099   11.6214   21.6246 C   0  0  0  0  0  0  0  0  0  0  0  0
    7.5277   13.8365   22.4860 C   0  0  0  0  0  0  0  0  0  0  0  0
   11.8745   12.7131   21.2389 C   0  0  0  0  0  0  0  0  0  0  0  0
    8.9003   11.1373   22.2315 C   0  0  0  0  0  0  0  0  0  0  0  0
   14.1401   14.9038   25.1459 C   0  0  0  0  0  0  0  0  0  0  0  0
   12.9716   15.5061   24.8579 C   0  0  0  0  0  0  0  0  0  0  0  0
   12.5464   15.4534   23.4261 C   0  0  0  0  0  0  0  0  0  0  0  0
    9.7227   11.4309   25.2682 C   0  0  0  0  0  0  0  0  0  0  0  0
    7.5834   11.3100   22.9773 C   0  0  1  0  0  0  0  0  0  0  0  0
    8.8687   13.9464   21.7720 C   0  0  2  0  0  0  0  0  0  0  0  0
   11.4441   13.9051   22.0163 C   0  0  1  0  0  0  0  0  0  0  0  0
    8.5977   10.4471   25.2621 C   0  0  2  0  0  0  0  0  0  0  0  0
    7.5243   10.4353   24.2014 C   0  0  1  0  0  0  0  0  0  0  0  0
   10.6992   11.2943   24.0790 C   0  0  2  0  0  0  0  0  0  0  0  0
   10.1727   11.8719   22.7201 C   0  0  1  0  0  0  0  0  0  0  0  0
   10.0766   13.4564   22.6304 C   0  0  2  0  0  0  0  0  0  0  0  0
    7.1685   10.8083   25.6458 C   0  0  0  0  0  0  0  0  0  0  0  0
   12.9531   12.7863   20.2195 C   0  0  0  0  0  0  0  0  0  0  0  0
   15.0509   14.1936   24.1954 C   0  0  0  0  0  0  0  0  0  0  0  0
   12.0991   16.2397   25.8328 C   0  0  0  0  0  0  0  0  0  0  0  0
   11.2079    9.8414   23.9811 C   0  0  0  0  0  0  0  0  0  0  0  0
    6.8285   12.2089   26.0850 C   0  0  0  0  0  0  0  0  0  0  0  0
    6.3937    9.7679   26.4270 C   0  0  0  0  0  0  0  0  0  0  0  0
    6.7007   15.0963   22.6059 C   0  0  0  0  0  0  0  0  0  0  0  0
    8.9221   10.3606   21.2684 O   0  0  0  0  0  0  0  0  0  0  0  0
   12.3550   16.4338   22.7209 O   0  0  0  0  0  0  0  0  0  0  0  0
    9.0736   15.3221   21.4193 O   0  0  0  0  0  0  0  0  0  0  0  0
    9.9555   14.1036   23.8981 O   0  0  0  0  0  0  0  0  0  0  0  0
    6.4075   15.5857   21.3150 O   0  0  0  0  0  0  0  0  0  0  0  0
   12.4126   14.1534   23.0332 O   0  0  0  0  0  0  0  0  0  0  0  0
    6.0428   12.7531   23.4575 H   0  0  0  0  0  0  0  0  0  0  0  0
   11.4164   10.6416   21.2103 H   0  0  0  0  0  0  0  0  0  0  0  0
   14.5164   14.9252   26.1674 H   0  0  0  0  0  0  0  0  0  0  0  0
    9.3599   12.4514   25.3536 H   0  0  0  0  0  0  0  0  0  0  0  0
   10.2896   11.2633   26.1943 H   0  0  0  0  0  0  0  0  0  0  0  0
    6.8591   10.8199   22.3029 H   0  0  0  0  0  0  0  0  0  0  0  0
    8.8079   13.3997   20.8223 H   0  0  0  0  0  0  0  0  0  0  0  0
   11.3789   14.7931   21.3889 H   0  0  0  0  0  0  0  0  0  0  0  0
    8.9542    9.4733   25.5896 H   0  0  0  0  0  0  0  0  0  0  0  0
    7.2242    9.4341   23.8866 H   0  0  0  0  0  0  0  0  0  0  0  0
   11.5832   11.8874   24.3560 H   0  0  0  0  0  0  0  0  0  0  0  0
   12.5260   12.9737   19.2316 H   0  0  0  0  0  0  0  0  0  0  0  0
   13.5102   11.8467   20.1913 H   0  0  0  0  0  0  0  0  0  0  0  0
   13.6482   13.5933   20.4632 H   0  0  0  0  0  0  0  0  0  0  0  0
   14.7858   13.1318   24.1620 H   0  0  0  0  0  0  0  0  0  0  0  0
   16.1058   14.2549   24.4697 H   0  0  0  0  0  0  0  0  0  0  0  0
   14.9307   14.6047   23.1885 H   0  0  0  0  0  0  0  0  0  0  0  0
   12.3410   17.3026   25.9068 H   0  0  0  0  0  0  0  0  0  0  0  0
   11.0491   16.1852   25.5243 H   0  0  0  0  0  0  0  0  0  0  0  0
   12.1909   15.8008   26.8317 H   0  0  0  0  0  0  0  0  0  0  0  0
   10.3817    9.1950   23.7091 H   0  0  0  0  0  0  0  0  0  0  0  0
   11.6094    9.5418   24.9420 H   0  0  0  0  0  0  0  0  0  0  0  0
   11.9823    9.7880   23.2249 H   0  0  0  0  0  0  0  0  0  0  0  0
    5.7621   12.2947   26.3227 H   0  0  0  0  0  0  0  0  0  0  0  0
    7.0600   12.9321   25.2949 H   0  0  0  0  0  0  0  0  0  0  0  0
    7.3995   12.4865   26.9783 H   0  0  0  0  0  0  0  0  0  0  0  0
    5.3858   10.1287   26.6485 H   0  0  0  0  0  0  0  0  0  0  0  0
    6.8974    9.5462   27.3716 H   0  0  0  0  0  0  0  0  0  0  0  0
    6.3116    8.8415   25.8524 H   0  0  0  0  0  0  0  0  0  0  0  0
    7.2562   15.8420   23.1648 H   0  0  0  0  0  0  0  0  0  0  0  0
    5.7757   14.8602   23.1210 H   0  0  0  0  0  0  0  0  0  0  0  0
    8.3373   15.5611   20.8397 H   0  0  0  0  0  0  0  0  0  0  0  0
    9.9888   15.0559   23.7228 H   0  0  0  0  0  0  0  0  0  0  0  0
    5.8760   16.3942   21.4252 H   0  0  0  0  0  0  0  0  0  0  0  0
  1  3  2  0  0  0  0
  1 10  1  0  0  0  0
  2  4  2  0  0  0  0
  2 16  1  0  0  0  0
  3 11  1  0  0  0  0
  3 25  1  0  0  0  0
  4 12  1  0  0  0  0
  4 19  1  0  0  0  0
  5 10  1  6  0  0  0
  5 16  1  1  0  0  0
  5 26  2  0  0  0  0
  6  7  2  0  0  0  0
  6 20  1  0  0  0  0
  7  8  1  0  0  0  0
  7 21  1  0  0  0  0
  8 27  2  0  0  0  0
  8 31  1  0  0  0  0
  9 13  1  6  0  0  0
  9 15  1  0  0  0  0
 10 14  1  0  0  0  0
 11 17  1  0  0  0  0
 11 28  1  6  0  0  0
 12 17  1  0  0  0  0
 12 31  1  6  0  0  0
 13 14  1  6  0  0  0
 13 18  1  0  0  0  0
 14 18  1  0  0  0  0
 15 16  1  0  0  0  0
 15 22  1  1  0  0  0
 16 17  1  0  0  0  0
 17 29  1  6  0  0  0
 18 23  1  0  0  0  0
 18 24  1  0  0  0  0
 25 30  1  0  0  0  0
  1 32  1  0  0  0  0
  2 33  1  0  0  0  0
  6 34  1  0  0  0  0
  9 35  1  0  0  0  0
  9 36  1  0  0  0  0
 10 37  1  0  0  0  0
 11 38  1  0  0  0  0
 12 39  1  0  0  0  0
 13 40  1  0  0  0  0
 14 41  1  0  0  0  0
 15 42  1  0  0  0  0
 19 43  1  0  0  0  0
 19 44  1  0  0  0  0
 19 45  1  0  0  0  0
 20 46  1  0  0  0  0
 20 47  1  0  0  0  0
 20 48  1  0  0  0  0
 21 49  1  0  0  0  0
 21 50  1  0  0  0  0
 21 51  1  0  0  0  0
 22 52  1  0  0  0  0
 22 53  1  0  0  0  0
 22 54  1  0  0  0  0
 23 55  1  0  0  0  0
 23 56  1  0  0  0  0
 23 57  1  0  0  0  0
 24 58  1  0  0  0  0
 24 59  1  0  0  0  0
 24 60  1  0  0  0  0
 25 61  1  0  0  0  0
 25 62  1  0  0  0  0
 28 63  1  0  0  0  0
 29 64  1  0  0  0  0
 30 65  1  0  0  0  0
M  END
> <id>
EN300-21680958

> <smiles>
C/C=C(/C)\C(=O)O[C@H]1C(=C[C@]2([C@H](C)C[C@@H]3[C@H]([C@H]4C=C(CO)[C@@H](O)[C@]12O)C3(C)C)C4=O)C

> <MDLNUMBER>
MFCD07784504

> <IUPAC Name>
(1S,4S,5S,6R,9R,10R,12R,14R)-5,6-dihydroxy-7-(hydroxymethyl)-3,11,11,14-tetramethyl-15-oxotetracyclo[7.5.1.0^{1,5}.0^{10,12}]pentadeca-2,7-dien-4-yl (2Z)-2-methylbut-2-enoate

> <CAS>
1217464-33-9

> <URL>
https://www.enaminestore.com/catalog/EN300-21680958

> <ROCS_ShapeQuery>
x0446_0A_x1080_0A_x0929_0A_x0812_0A_x0719_0A_x1140_0A_x0528_0A_x0310_0A

> <ROCS_TanimotoCombo>
0.417 

> <ROCS_ShapeTanimoto>
0.261 

> <ROCS_ColorTanimoto>
0.156 

> <ROCS_RefTversky>
0.240 

> <ROCS_RefColorTversky>
0.192 

> <ROCS_RefTverskyCombo>
0.432 

> <ROCS_FitTversky>
1.471 

> <ROCS_FitColorTversky>
0.455 

> <ROCS_FitTverskyCombo>
1.926 

> <ROCS_ColorScore>
-6.917

> <ROCS_Overlap>
2845.128

> <ROCS_Rank>
276                 

$$$$
untitled-dbase-367297_7
  -OEChem-02082415563D

 37 39  0     0  0  0  0  0  0999 V2000
   10.2499   14.3021   21.5749 C   0  0  0  0  0  0  0  0  0  0  0  0
    8.5535   10.5539   25.4275 C   0  0  0  0  0  0  0  0  0  0  0  0
   10.3468   10.6007   23.6793 C   0  0  0  0  0  0  0  0  0  0  0  0
    9.5606   12.7414   24.7389 C   0  0  0  0  0  0  0  0  0  0  0  0
    7.9999   10.0530   23.0381 C   0  0  0  0  0  0  0  0  0  0  0  0
    7.2118   12.1987   24.1002 C   0  0  0  0  0  0  0  0  0  0  0  0
    9.8503   11.2502   24.9827 C   0  0  0  0  0  0  0  0  0  0  0  0
    7.4820   10.7017   24.3340 C   0  0  0  0  0  0  0  0  0  0  0  0
    9.2873   10.7618   22.5626 C   0  0  0  0  0  0  0  0  0  0  0  0
    8.4997   12.9064   23.6242 C   0  0  0  0  0  0  0  0  0  0  0  0
    9.0193   12.2752   22.2957 C   0  0  0  0  0  0  0  0  0  0  0  0
   11.6190   14.7921   21.1779 C   0  0  0  0  0  0  0  0  0  0  0  0
    8.0131   12.4719   21.1428 C   0  0  0  0  0  0  0  0  0  0  0  0
   10.2385   12.9583   21.8689 N   0  0  0  0  0  0  0  0  0  0  0  0
    9.2816   15.0581   21.6322 O   0  0  0  0  0  0  0  0  0  0  0  0
    7.4643   13.7658   21.2625 O   0  0  0  0  0  0  0  0  0  0  0  0
   12.1023   16.0483   22.3282 Cl  0  0  0  0  0  0  0  0  0  0  0  0
    8.7453    9.4921   25.6251 H   0  0  0  0  0  0  0  0  0  0  0  0
    8.1948   10.9919   26.3670 H   0  0  0  0  0  0  0  0  0  0  0  0
   11.3109   11.0274   23.3854 H   0  0  0  0  0  0  0  0  0  0  0  0
   10.5351    9.5329   23.8511 H   0  0  0  0  0  0  0  0  0  0  0  0
    9.1987   13.2051   25.6653 H   0  0  0  0  0  0  0  0  0  0  0  0
   10.4858   13.2664   24.4748 H   0  0  0  0  0  0  0  0  0  0  0  0
    8.2092    8.9903   23.2165 H   0  0  0  0  0  0  0  0  0  0  0  0
    7.2255   10.0790   22.2648 H   0  0  0  0  0  0  0  0  0  0  0  0
    6.4005   12.3293   23.3765 H   0  0  0  0  0  0  0  0  0  0  0  0
    6.8611   12.6601   25.0326 H   0  0  0  0  0  0  0  0  0  0  0  0
   10.6111   11.1432   25.7638 H   0  0  0  0  0  0  0  0  0  0  0  0
    6.5596   10.2045   24.6545 H   0  0  0  0  0  0  0  0  0  0  0  0
    9.6483   10.2751   21.6482 H   0  0  0  0  0  0  0  0  0  0  0  0
    8.2887   13.9732   23.4793 H   0  0  0  0  0  0  0  0  0  0  0  0
   12.3694   13.9979   21.1909 H   0  0  0  0  0  0  0  0  0  0  0  0
   11.5734   15.2239   20.1743 H   0  0  0  0  0  0  0  0  0  0  0  0
    7.2295   11.7270   21.2248 H   0  0  0  0  0  0  0  0  0  0  0  0
    8.5338   12.3752   20.1967 H   0  0  0  0  0  0  0  0  0  0  0  0
   11.0934   12.4311   21.7878 H   0  0  0  0  0  0  0  0  0  0  0  0
    6.8308   13.8819   20.5318 H   0  0  0  0  0  0  0  0  0  0  0  0
  1 12  1  0  0  0  0
  1 14  1  0  0  0  0
  1 15  2  0  0  0  0
  2  7  1  0  0  0  0
  2  8  1  0  0  0  0
  3  7  1  0  0  0  0
  3  9  1  0  0  0  0
  4  7  1  0  0  0  0
  4 10  1  0  0  0  0
  5  8  1  0  0  0  0
  5  9  1  0  0  0  0
  6  8  1  0  0  0  0
  6 10  1  0  0  0  0
  9 11  1  0  0  0  0
 10 11  1  0  0  0  0
 11 13  1  0  0  0  0
 11 14  1  0  0  0  0
 12 17  1  0  0  0  0
 13 16  1  0  0  0  0
  2 18  1  0  0  0  0
  2 19  1  0  0  0  0
  3 20  1  0  0  0  0
  3 21  1  0  0  0  0
  4 22  1  0  0  0  0
  4 23  1  0  0  0  0
  5 24  1  0  0  0  0
  5 25  1  0  0  0  0
  6 26  1  0  0  0  0
  6 27  1  0  0  0  0
  7 28  1  0  0  0  0
  8 29  1  0  0  0  0
  9 30  1  0  0  0  0
 10 31  1  0  0  0  0
 12 32  1  0  0  0  0
 12 33  1  0  0  0  0
 13 34  1  0  0  0  0
 13 35  1  0  0  0  0
 14 36  1  0  0  0  0
 16 37  1  0  0  0  0
M  END
> <id>
EN300-26976238

> <smiles>
OCC1(NC(=O)CCl)C2CC3CC(C2)CC1C3

> <IUPAC Name>
2-chloro-N-[2-(hydroxymethyl)adamantan-2-yl]acetamide

> <CAS>
2445794-49-8

> <Purity>
95

> <URL>
https://www.enaminestore.com/catalog/EN300-26976238

> <ROCS_ShapeQuery>
x0446_0A_x1080_0A_x0929_0A_x0812_0A_x0719_0A_x1140_0A_x0528_0A_x0310_0A

> <ROCS_TanimotoCombo>
0.417 

> <ROCS_ShapeTanimoto>
0.224 

> <ROCS_ColorTanimoto>
0.193 

> <ROCS_RefTversky>
0.204 

> <ROCS_RefColorTversky>
0.215 

> <ROCS_RefTverskyCombo>
0.418 

> <ROCS_FitTversky>
1.804 

> <ROCS_FitColorTversky>
0.653 

> <ROCS_FitTverskyCombo>
2.457 

> <ROCS_ColorScore>
-7.698

> <ROCS_Overlap>
2401.616

> <ROCS_Rank>
277                 

$$$$
untitled-dbase-67186_4
  -OEChem-02082415563D

 26 28  0     0  0  0  0  0  0999 V2000
   11.4068   16.0472   20.6505 C   0  0  0  0  0  0  0  0  0  0  0  0
   10.7888   14.8622   21.0339 C   0  0  0  0  0  0  0  0  0  0  0  0
   12.2377   16.6713   21.5669 C   0  0  0  0  0  0  0  0  0  0  0  0
   11.8657   15.0451   23.1465 C   0  0  0  0  0  0  0  0  0  0  0  0
    7.3751   10.3523   24.5010 C   0  0  0  0  0  0  0  0  0  0  0  0
   11.0173   14.3448   22.3041 C   0  0  0  0  0  0  0  0  0  0  0  0
    7.3724   11.7303   24.3894 C   0  0  0  0  0  0  0  0  0  0  0  0
    8.5775   12.0424   23.7448 C   0  0  0  0  0  0  0  0  0  0  0  0
    9.2327   10.8679   23.5073 C   0  0  0  0  0  0  0  0  0  0  0  0
   10.3795   13.0983   22.7359 C   0  0  0  0  0  0  0  0  0  0  0  0
   10.5079   10.7439   22.8696 C   0  0  0  0  0  0  0  0  0  0  0  0
    6.3307   12.5963   24.8527 C   0  0  0  0  0  0  0  0  0  0  0  0
   12.4839   16.1991   22.8095 N   0  0  0  0  0  0  0  0  0  0  0  0
   11.0316   11.9799   22.4997 N   0  0  0  0  0  0  0  0  0  0  0  0
    9.1332   13.2049   23.3662 N   0  0  0  0  0  0  0  0  0  0  0  0
   11.0732    9.6754   22.6717 O   0  0  0  0  0  0  0  0  0  0  0  0
    5.2765   12.2448   25.4222 O   0  0  0  0  0  0  0  0  0  0  0  0
    8.5119    9.8147   23.9632 O   0  0  0  0  0  0  0  0  0  0  0  0
    6.5817   13.9224   24.6167 O   0  0  0  0  0  0  0  0  0  0  0  0
   11.2440   16.4689   19.6653 H   0  0  0  0  0  0  0  0  0  0  0  0
   10.1310   14.3508   20.3361 H   0  0  0  0  0  0  0  0  0  0  0  0
   12.7430   17.5983   21.3166 H   0  0  0  0  0  0  0  0  0  0  0  0
   12.0833   14.6905   24.1495 H   0  0  0  0  0  0  0  0  0  0  0  0
    6.6807    9.6351   24.9156 H   0  0  0  0  0  0  0  0  0  0  0  0
    8.6988   14.1111   23.5125 H   0  0  0  0  0  0  0  0  0  0  0  0
    5.8740   14.5244   24.9314 H   0  0  0  0  0  0  0  0  0  0  0  0
  1  2  2  0  0  0  0
  1  3  1  0  0  0  0
  2  6  1  0  0  0  0
  3 13  2  0  0  0  0
  4  6  2  0  0  0  0
  4 13  1  0  0  0  0
  5  7  2  0  0  0  0
  5 18  1  0  0  0  0
  6 10  1  0  0  0  0
  7  8  1  0  0  0  0
  7 12  1  0  0  0  0
  8  9  2  0  0  0  0
  8 15  1  0  0  0  0
  9 11  1  0  0  0  0
  9 18  1  0  0  0  0
 10 14  2  0  0  0  0
 10 15  1  0  0  0  0
 11 14  1  0  0  0  0
 11 16  2  0  0  0  0
 12 17  2  0  0  0  0
 12 19  1  0  0  0  0
  1 20  1  0  0  0  0
  2 21  1  0  0  0  0
  3 22  1  0  0  0  0
  4 23  1  0  0  0  0
  5 24  1  0  0  0  0
 15 25  1  0  0  0  0
 19 26  1  0  0  0  0
M  END
> <id>
EN300-318531

> <smiles>
OC(=O)C1=COC=2C(=O)N=C(NC12)C=3C=CC=NC3

> <MDLNUMBER>
MFCD30476608

> <IUPAC Name>
4-oxo-2-(pyridin-3-yl)-1H,4H-furo[3,2-d]pyrimidine-7-carboxylic acid

> <CAS>
2059993-96-1

> <URL>
https://www.enaminestore.com/catalog/EN300-318531

> <ROCS_ShapeQuery>
x0446_0A_x1080_0A_x0929_0A_x0812_0A_x0719_0A_x1140_0A_x0528_0A_x0310_0A

> <ROCS_TanimotoCombo>
0.417 

> <ROCS_ShapeTanimoto>
0.255 

> <ROCS_ColorTanimoto>
0.161 

> <ROCS_RefTversky>
0.229 

> <ROCS_RefColorTversky>
0.190 

> <ROCS_RefTverskyCombo>
0.419 

> <ROCS_FitTversky>
1.828 

> <ROCS_FitColorTversky>
0.513 

> <ROCS_FitTverskyCombo>
2.342 

> <ROCS_ColorScore>
-6.833

> <ROCS_Overlap>
2703.201

> <ROCS_Rank>
278                 

$$$$
untitled-dbase-317930_2
  -OEChem-02082415563D

 33 35  0     1  0  0  0  0  0999 V2000
    9.9041   17.0669   22.5955 C   0  0  0  0  0  0  0  0  0  0  0  0
    8.5486   15.3733   22.5372 C   0  0  0  0  0  0  0  0  0  0  0  0
   10.5181   11.0190   24.5607 C   0  0  0  0  0  0  0  0  0  0  0  0
    9.3314   10.6407   25.4508 C   0  0  0  0  0  0  0  0  0  0  0  0
    9.3581   12.3402   22.7045 C   0  0  0  0  0  0  0  0  0  0  0  0
    7.3885   11.7157   24.1832 C   0  0  0  0  0  0  0  0  0  0  0  0
    9.9580   10.9914   23.1390 C   0  0  2  0  0  0  0  0  0  0  0  0
    8.1728   10.4250   24.4778 C   0  0  1  0  0  0  0  0  0  0  0  0
    8.2951   12.8498   23.6868 C   0  0  0  0  0  0  0  0  0  0  0  0
    8.5674   16.6922   24.6804 C   0  0  0  0  0  0  0  0  0  0  0  0
   10.0270   16.5034   21.4149 N   0  0  0  0  0  0  0  0  0  0  0  0
    9.1646   15.4259   21.3778 N   0  0  0  0  0  0  0  0  0  0  0  0
    8.9838   16.3878   23.3348 N   0  0  0  0  0  0  0  0  0  0  0  0
    8.8786   10.0019   23.2606 N   0  0  0  0  0  0  0  0  0  0  0  0
    6.5021   14.7369   24.0004 O   0  0  0  0  0  0  0  0  0  0  0  0
    6.7553   13.6501   21.7420 O   0  0  0  0  0  0  0  0  0  0  0  0
    7.3418   14.1570   22.9688 S   0  0  0  0  0  0  0  0  0  0  0  0
   10.4373   17.9359   22.9537 H   0  0  0  0  0  0  0  0  0  0  0  0
   10.9404   11.9920   24.8317 H   0  0  0  0  0  0  0  0  0  0  0  0
   11.3103   10.2690   24.6764 H   0  0  0  0  0  0  0  0  0  0  0  0
    9.5623    9.7114   25.9856 H   0  0  0  0  0  0  0  0  0  0  0  0
    9.1187   11.4108   26.1995 H   0  0  0  0  0  0  0  0  0  0  0  0
   10.1541   13.0893   22.6096 H   0  0  0  0  0  0  0  0  0  0  0  0
    8.9211   12.2300   21.7029 H   0  0  0  0  0  0  0  0  0  0  0  0
    6.6150   11.4991   23.4342 H   0  0  0  0  0  0  0  0  0  0  0  0
    6.8569   12.0435   25.0851 H   0  0  0  0  0  0  0  0  0  0  0  0
   10.7136   10.6671   22.4167 H   0  0  0  0  0  0  0  0  0  0  0  0
    7.4916    9.6452   24.8324 H   0  0  0  0  0  0  0  0  0  0  0  0
    8.7955   13.3099   24.5477 H   0  0  0  0  0  0  0  0  0  0  0  0
    7.7180   17.3780   24.6237 H   0  0  0  0  0  0  0  0  0  0  0  0
    8.2797   15.7686   25.1903 H   0  0  0  0  0  0  0  0  0  0  0  0
    9.3985   17.1551   25.2199 H   0  0  0  0  0  0  0  0  0  0  0  0
    8.2595   10.0436   22.4523 H   0  0  0  0  0  0  0  0  0  0  0  0
  1 11  2  0  0  0  0
  1 13  1  0  0  0  0
  2 12  2  0  0  0  0
  2 13  1  0  0  0  0
  2 17  1  0  0  0  0
  3  4  1  0  0  0  0
  3  7  1  0  0  0  0
  4  8  1  0  0  0  0
  5  7  1  0  0  0  0
  5  9  1  0  0  0  0
  6  8  1  0  0  0  0
  6  9  1  0  0  0  0
  7 14  1  0  0  0  0
  8 14  1  0  0  0  0
  9 17  1  0  0  0  0
 10 13  1  0  0  0  0
 11 12  1  0  0  0  0
 15 17  2  0  0  0  0
 16 17  2  0  0  0  0
  1 18  1  0  0  0  0
  3 19  1  0  0  0  0
  3 20  1  0  0  0  0
  4 21  1  0  0  0  0
  4 22  1  0  0  0  0
  5 23  1  0  0  0  0
  5 24  1  0  0  0  0
  6 25  1  0  0  0  0
  6 26  1  0  0  0  0
  7 27  1  0  0  0  0
  8 28  1  0  0  0  0
  9 29  1  0  0  0  0
 10 30  1  0  0  0  0
 10 31  1  0  0  0  0
 10 32  1  0  0  0  0
 14 33  1  0  0  0  0
M  END
> <id>
EN300-241388

> <smiles>
Cl.CN1C=NN=C1S(=O)(=O)C2CC3CCC(C2)N3

> <MDLNUMBER>
MFCD26792986

> <IUPAC Name>
3-[(4-methyl-4H-1,2,4-triazol-3-yl)sulfonyl]-8-azabicyclo[3.2.1]octane hydrochloride

> <CAS>
1955530-96-7

> <URL>
https://www.enaminestore.com/catalog/EN300-241388

> <Saltdate>
Cl

> <ROCS_ShapeQuery>
x0446_0A_x1080_0A_x0929_0A_x0812_0A_x0719_0A_x1140_0A_x0528_0A_x0310_0A

> <ROCS_TanimotoCombo>
0.417 

> <ROCS_ShapeTanimoto>
0.191 

> <ROCS_ColorTanimoto>
0.225 

> <ROCS_RefTversky>
0.179 

> <ROCS_RefColorTversky>
0.257 

> <ROCS_RefTverskyCombo>
0.436 

> <ROCS_FitTversky>
1.579 

> <ROCS_FitColorTversky>
0.646 

> <ROCS_FitTverskyCombo>
2.225 

> <ROCS_ColorScore>
-9.257

> <ROCS_Overlap>
2106.574

> <ROCS_Rank>
279                 

$$$$
untitled-dbase-49191_2
  -OEChem-02082415563D

 33 35  0     1  0  0  0  0  0999 V2000
    9.9041   17.0669   22.5955 C   0  0  0  0  0  0  0  0  0  0  0  0
    8.5486   15.3733   22.5372 C   0  0  0  0  0  0  0  0  0  0  0  0
   10.5181   11.0190   24.5607 C   0  0  0  0  0  0  0  0  0  0  0  0
    9.3314   10.6407   25.4508 C   0  0  0  0  0  0  0  0  0  0  0  0
    9.3581   12.3402   22.7045 C   0  0  0  0  0  0  0  0  0  0  0  0
    7.3885   11.7157   24.1832 C   0  0  0  0  0  0  0  0  0  0  0  0
    9.9580   10.9914   23.1390 C   0  0  2  0  0  0  0  0  0  0  0  0
    8.1728   10.4250   24.4778 C   0  0  1  0  0  0  0  0  0  0  0  0
    8.2951   12.8498   23.6868 C   0  0  0  0  0  0  0  0  0  0  0  0
    8.5674   16.6922   24.6804 C   0  0  0  0  0  0  0  0  0  0  0  0
   10.0270   16.5034   21.4149 N   0  0  0  0  0  0  0  0  0  0  0  0
    9.1646   15.4259   21.3778 N   0  0  0  0  0  0  0  0  0  0  0  0
    8.9838   16.3878   23.3348 N   0  0  0  0  0  0  0  0  0  0  0  0
    8.8786   10.0019   23.2606 N   0  0  0  0  0  0  0  0  0  0  0  0
    6.5021   14.7369   24.0004 O   0  0  0  0  0  0  0  0  0  0  0  0
    6.7553   13.6501   21.7420 O   0  0  0  0  0  0  0  0  0  0  0  0
    7.3418   14.1570   22.9688 S   0  0  0  0  0  0  0  0  0  0  0  0
   10.4373   17.9359   22.9537 H   0  0  0  0  0  0  0  0  0  0  0  0
   10.9404   11.9920   24.8317 H   0  0  0  0  0  0  0  0  0  0  0  0
   11.3103   10.2690   24.6764 H   0  0  0  0  0  0  0  0  0  0  0  0
    9.5623    9.7114   25.9856 H   0  0  0  0  0  0  0  0  0  0  0  0
    9.1187   11.4108   26.1995 H   0  0  0  0  0  0  0  0  0  0  0  0
   10.1541   13.0893   22.6096 H   0  0  0  0  0  0  0  0  0  0  0  0
    8.9211   12.2300   21.7029 H   0  0  0  0  0  0  0  0  0  0  0  0
    6.6150   11.4991   23.4342 H   0  0  0  0  0  0  0  0  0  0  0  0
    6.8569   12.0435   25.0851 H   0  0  0  0  0  0  0  0  0  0  0  0
   10.7136   10.6671   22.4167 H   0  0  0  0  0  0  0  0  0  0  0  0
    7.4916    9.6452   24.8324 H   0  0  0  0  0  0  0  0  0  0  0  0
    8.7955   13.3099   24.5477 H   0  0  0  0  0  0  0  0  0  0  0  0
    7.7180   17.3780   24.6237 H   0  0  0  0  0  0  0  0  0  0  0  0
    8.2797   15.7686   25.1903 H   0  0  0  0  0  0  0  0  0  0  0  0
    9.3985   17.1551   25.2199 H   0  0  0  0  0  0  0  0  0  0  0  0
    8.2595   10.0436   22.4523 H   0  0  0  0  0  0  0  0  0  0  0  0
  1 11  2  0  0  0  0
  1 13  1  0  0  0  0
  2 12  2  0  0  0  0
  2 13  1  0  0  0  0
  2 17  1  0  0  0  0
  3  4  1  0  0  0  0
  3  7  1  0  0  0  0
  4  8  1  0  0  0  0
  5  7  1  0  0  0  0
  5  9  1  0  0  0  0
  6  8  1  0  0  0  0
  6  9  1  0  0  0  0
  7 14  1  0  0  0  0
  8 14  1  0  0  0  0
  9 17  1  0  0  0  0
 10 13  1  0  0  0  0
 11 12  1  0  0  0  0
 15 17  2  0  0  0  0
 16 17  2  0  0  0  0
  1 18  1  0  0  0  0
  3 19  1  0  0  0  0
  3 20  1  0  0  0  0
  4 21  1  0  0  0  0
  4 22  1  0  0  0  0
  5 23  1  0  0  0  0
  5 24  1  0  0  0  0
  6 25  1  0  0  0  0
  6 26  1  0  0  0  0
  7 27  1  0  0  0  0
  8 28  1  0  0  0  0
  9 29  1  0  0  0  0
 10 30  1  0  0  0  0
 10 31  1  0  0  0  0
 10 32  1  0  0  0  0
 14 33  1  0  0  0  0
M  END
> <id>
EN300-234588

> <smiles>
CN1C=NN=C1S(=O)(=O)C2CC3CCC(C2)N3

> <MDLNUMBER>
MFCD29034707

> <IUPAC Name>
3-[(4-methyl-4H-1,2,4-triazol-3-yl)sulfonyl]-8-azabicyclo[3.2.1]octane

> <CAS>
1706450-52-3

> <URL>
https://www.enaminestore.com/catalog/EN300-234588

> <ROCS_ShapeQuery>
x0446_0A_x1080_0A_x0929_0A_x0812_0A_x0719_0A_x1140_0A_x0528_0A_x0310_0A

> <ROCS_TanimotoCombo>
0.417 

> <ROCS_ShapeTanimoto>
0.191 

> <ROCS_ColorTanimoto>
0.225 

> <ROCS_RefTversky>
0.179 

> <ROCS_RefColorTversky>
0.257 

> <ROCS_RefTverskyCombo>
0.436 

> <ROCS_FitTversky>
1.579 

> <ROCS_FitColorTversky>
0.646 

> <ROCS_FitTverskyCombo>
2.225 

> <ROCS_ColorScore>
-9.257

> <ROCS_Overlap>
2106.574

> <ROCS_Rank>
280                 

$$$$
untitled-dbase-5609_1
  -OEChem-02082415563D

 32 35  0     0  0  0  0  0  0999 V2000
    9.6169   14.1149   22.2111 C   0  0  0  0  0  0  0  0  0  0  0  0
   10.9864   15.4619   21.3589 C   0  0  0  0  0  0  0  0  0  0  0  0
    8.9419    9.8939   22.9870 C   0  0  0  0  0  0  0  0  0  0  0  0
    7.0306   11.1358   24.0305 C   0  0  0  0  0  0  0  0  0  0  0  0
    9.2383   11.0118   25.2106 C   0  0  0  0  0  0  0  0  0  0  0  0
    8.1771   12.0700   22.0075 C   0  0  0  0  0  0  0  0  0  0  0  0
   10.3883   11.9337   23.1806 C   0  0  0  0  0  0  0  0  0  0  0  0
    8.4592   13.1872   24.2338 C   0  0  0  0  0  0  0  0  0  0  0  0
    7.7186   10.7777   22.7057 C   0  0  0  0  0  0  0  0  0  0  0  0
    9.9315   10.6457   23.8880 C   0  0  0  0  0  0  0  0  0  0  0  0
    8.0095   11.8946   24.9373 C   0  0  0  0  0  0  0  0  0  0  0  0
    9.1805   12.8728   22.8900 C   0  0  0  0  0  0  0  0  0  0  0  0
    8.9051   15.1361   21.7948 N   0  0  0  0  0  0  0  0  0  0  0  0
    9.8061   16.0222   21.2341 N   0  0  0  0  0  0  0  0  0  0  0  0
   10.9502   14.2463   21.9703 O   0  0  0  0  0  0  0  0  0  0  0  0
   12.4635   16.1904   20.8023 S   0  0  0  0  0  0  0  0  0  0  0  0
    8.6276    8.9608   23.4708 H   0  0  0  0  0  0  0  0  0  0  0  0
    9.4289    9.6151   22.0444 H   0  0  0  0  0  0  0  0  0  0  0  0
    6.1426   11.7505   23.8387 H   0  0  0  0  0  0  0  0  0  0  0  0
    6.6840   10.2238   24.5320 H   0  0  0  0  0  0  0  0  0  0  0  0
    8.9330   10.0993   25.7374 H   0  0  0  0  0  0  0  0  0  0  0  0
    9.9401   11.5388   25.8688 H   0  0  0  0  0  0  0  0  0  0  0  0
    8.6405   11.8222   21.0428 H   0  0  0  0  0  0  0  0  0  0  0  0
    7.3022   12.6917   21.7734 H   0  0  0  0  0  0  0  0  0  0  0  0
   11.1252   12.4549   23.8067 H   0  0  0  0  0  0  0  0  0  0  0  0
   10.9046   11.6796   22.2451 H   0  0  0  0  0  0  0  0  0  0  0  0
    7.5895   13.8337   24.0550 H   0  0  0  0  0  0  0  0  0  0  0  0
    9.1305   13.7510   24.8957 H   0  0  0  0  0  0  0  0  0  0  0  0
    7.0162   10.2399   22.0591 H   0  0  0  0  0  0  0  0  0  0  0  0
   10.8009   10.0104   24.0915 H   0  0  0  0  0  0  0  0  0  0  0  0
    7.5175   12.1439   25.8841 H   0  0  0  0  0  0  0  0  0  0  0  0
   11.9613   17.3348   20.2975 H   0  0  0  0  0  0  0  0  0  0  0  0
  1 12  1  0  0  0  0
  1 13  2  0  0  0  0
  1 15  1  0  0  0  0
  2 14  2  0  0  0  0
  2 15  1  0  0  0  0
  2 16  1  0  0  0  0
  3  9  1  0  0  0  0
  3 10  1  0  0  0  0
  4  9  1  0  0  0  0
  4 11  1  0  0  0  0
  5 10  1  0  0  0  0
  5 11  1  0  0  0  0
  6  9  1  0  0  0  0
  6 12  1  0  0  0  0
  7 10  1  0  0  0  0
  7 12  1  0  0  0  0
  8 11  1  0  0  0  0
  8 12  1  0  0  0  0
 13 14  1  0  0  0  0
  3 17  1  0  0  0  0
  3 18  1  0  0  0  0
  4 19  1  0  0  0  0
  4 20  1  0  0  0  0
  5 21  1  0  0  0  0
  5 22  1  0  0  0  0
  6 23  1  0  0  0  0
  6 24  1  0  0  0  0
  7 25  1  0  0  0  0
  7 26  1  0  0  0  0
  8 27  1  0  0  0  0
  8 28  1  0  0  0  0
  9 29  1  0  0  0  0
 10 30  1  0  0  0  0
 11 31  1  0  0  0  0
 16 32  1  0  0  0  0
M  END
> <id>
EN300-15281

> <smiles>
SC1=NN=C(O1)C2(CC3CC4CC(C3)C2)C4

> <MDLNUMBER>
MFCD03819470

> <IUPAC Name>
5-(adamantan-1-yl)-1,3,4-oxadiazole-2-thiol

> <CAS>
197514-90-2

> <Purity>
95

> <URL>
https://www.enaminestore.com/catalog/EN300-15281

> <MP>
181-183

> <ROCS_ShapeQuery>
x0446_0A_x1080_0A_x0929_0A_x0812_0A_x0719_0A_x1140_0A_x0528_0A_x0310_0A

> <ROCS_TanimotoCombo>
0.416 

> <ROCS_ShapeTanimoto>
0.219 

> <ROCS_ColorTanimoto>
0.197 

> <ROCS_RefTversky>
0.200 

> <ROCS_RefColorTversky>
0.220 

> <ROCS_RefTverskyCombo>
0.420 

> <ROCS_FitTversky>
1.786 

> <ROCS_FitColorTversky>
0.654 

> <ROCS_FitTverskyCombo>
2.440 

> <ROCS_ColorScore>
-7.902

> <ROCS_Overlap>
2358.285

> <ROCS_Rank>
281                 

$$$$
untitled-dbase-504835_5
  -OEChem-02082415563D

 33 34  0     1  0  0  0  0  0999 V2000
    6.4398   12.6780   24.5966 C   0  0  0  0  0  0  0  0  0  0  0  0
    9.9822   14.5233   20.7793 C   0  0  0  0  0  0  0  0  0  0  0  0
    8.6148    9.9584   22.9104 C   0  0  0  0  0  0  0  0  0  0  0  0
    7.3580   10.6988   23.3821 C   0  0  0  0  0  0  0  0  0  0  0  0
    9.6806   10.8992   22.3334 C   0  0  0  0  0  0  0  0  0  0  0  0
    8.4394   12.9298   23.1165 C   0  0  0  0  0  0  0  0  0  0  0  0
    8.7423   11.8588   25.1734 C   0  0  0  0  0  0  0  0  0  0  0  0
    7.6867   12.0297   24.0809 C   0  0  1  0  0  0  0  0  0  0  0  0
    9.7875   12.2224   23.1191 C   0  0  2  0  0  0  0  0  0  0  0  0
   10.9156   13.0952   22.5924 C   0  0  0  0  0  0  0  0  0  0  0  0
    9.8968   14.6020   19.2834 C   0  0  0  0  0  0  0  0  0  0  0  0
   10.6921   13.4064   21.2184 N   0  0  0  0  0  0  0  0  0  0  0  0
    6.0328   13.7810   24.2634 O   0  0  0  0  0  0  0  0  0  0  0  0
    9.4668   15.3684   21.5056 O   0  0  0  0  0  0  0  0  0  0  0  0
   10.0242   11.9162   24.5105 O   0  0  0  0  0  0  0  0  0  0  0  0
    5.8173   11.8735   25.4925 O   0  0  0  0  0  0  0  0  0  0  0  0
   10.5328   13.5631   18.6844 F   0  0  0  0  0  0  0  0  0  0  0  0
   10.4580   15.7398   18.8005 F   0  0  0  0  0  0  0  0  0  0  0  0
    8.6127   14.5813   18.8443 F   0  0  0  0  0  0  0  0  0  0  0  0
    9.0475    9.4185   23.7623 H   0  0  0  0  0  0  0  0  0  0  0  0
    8.3481    9.1934   22.1724 H   0  0  0  0  0  0  0  0  0  0  0  0
    6.7106   10.8923   22.5163 H   0  0  0  0  0  0  0  0  0  0  0  0
    6.7831   10.0449   24.0499 H   0  0  0  0  0  0  0  0  0  0  0  0
   10.6425   10.3721   22.3449 H   0  0  0  0  0  0  0  0  0  0  0  0
    9.4427   11.1136   21.2839 H   0  0  0  0  0  0  0  0  0  0  0  0
    7.9834   12.9985   22.1227 H   0  0  0  0  0  0  0  0  0  0  0  0
    8.5189   13.9480   23.5201 H   0  0  0  0  0  0  0  0  0  0  0  0
    8.7161   12.6720   25.9079 H   0  0  0  0  0  0  0  0  0  0  0  0
    8.6575   10.9121   25.7165 H   0  0  0  0  0  0  0  0  0  0  0  0
   10.9328   14.0074   23.1900 H   0  0  0  0  0  0  0  0  0  0  0  0
   11.8455   12.5371   22.7084 H   0  0  0  0  0  0  0  0  0  0  0  0
   11.0760   12.7714   20.5119 H   0  0  0  0  0  0  0  0  0  0  0  0
    4.9977   12.2820   25.8442 H   0  0  0  0  0  0  0  0  0  0  0  0
  1  8  1  0  0  0  0
  1 13  2  0  0  0  0
  1 16  1  0  0  0  0
  2 11  1  0  0  0  0
  2 12  1  0  0  0  0
  2 14  2  0  0  0  0
  3  4  1  0  0  0  0
  3  5  1  0  0  0  0
  4  8  1  0  0  0  0
  5  9  1  0  0  0  0
  6  8  1  0  0  0  0
  6  9  1  0  0  0  0
  7  8  1  0  0  0  0
  7 15  1  0  0  0  0
  9 10  1  0  0  0  0
  9 15  1  0  0  0  0
 10 12  1  0  0  0  0
 11 17  1  0  0  0  0
 11 18  1  0  0  0  0
 11 19  1  0  0  0  0
  3 20  1  0  0  0  0
  3 21  1  0  0  0  0
  4 22  1  0  0  0  0
  4 23  1  0  0  0  0
  5 24  1  0  0  0  0
  5 25  1  0  0  0  0
  6 26  1  0  0  0  0
  6 27  1  0  0  0  0
  7 28  1  0  0  0  0
  7 29  1  0  0  0  0
 10 30  1  0  0  0  0
 10 31  1  0  0  0  0
 12 32  1  0  0  0  0
 16 33  1  0  0  0  0
M  END
> <id>
EN300-28286071

> <smiles>
OC(=O)C1(COC2(CNC(=O)C(F)(F)F)C1)CCC2

> <IUPAC Name>
5-[(2,2,2-trifluoroacetamido)methyl]-6-oxabicyclo[3.2.1]octane-1-carboxylic acid

> <CAS>
2680855-23-4

> <URL>
https://www.enaminestore.com/catalog/EN300-28286071

> <ROCS_ShapeQuery>
x0446_0A_x1080_0A_x0929_0A_x0812_0A_x0719_0A_x1140_0A_x0528_0A_x0310_0A

> <ROCS_TanimotoCombo>
0.416 

> <ROCS_ShapeTanimoto>
0.209 

> <ROCS_ColorTanimoto>
0.207 

> <ROCS_RefTversky>
0.194 

> <ROCS_RefColorTversky>
0.234 

> <ROCS_RefTverskyCombo>
0.429 

> <ROCS_FitTversky>
1.595 

> <ROCS_FitColorTversky>
0.640 

> <ROCS_FitTverskyCombo>
2.236 

> <ROCS_ColorScore>
-8.416

> <ROCS_Overlap>
2293.367

> <ROCS_Rank>
282                 

$$$$
untitled-dbase-419360_4
  -OEChem-02082415563D

 38 40  0     0  0  0  0  0  0999 V2000
    5.8553   13.2781   25.4669 C   0  0  0  0  0  0  0  0  0  0  0  0
    5.5154   11.9353   25.6141 C   0  0  0  0  0  0  0  0  0  0  0  0
    7.0360   13.6325   24.8136 C   0  0  0  0  0  0  0  0  0  0  0  0
    6.3551   10.9430   25.1083 C   0  0  0  0  0  0  0  0  0  0  0  0
   11.1876   14.4093   21.1135 C   0  0  0  0  0  0  0  0  0  0  0  0
   12.3704   14.3414   23.2191 C   0  0  0  0  0  0  0  0  0  0  0  0
   11.6066   15.7256   20.9204 C   0  0  0  0  0  0  0  0  0  0  0  0
   12.7895   15.6578   23.0260 C   0  0  0  0  0  0  0  0  0  0  0  0
    7.8820   12.6391   24.3042 C   0  0  0  0  0  0  0  0  0  0  0  0
    7.5410   11.2959   24.4519 C   0  0  0  0  0  0  0  0  0  0  0  0
   11.5694   13.7172   22.2628 C   0  0  0  0  0  0  0  0  0  0  0  0
   12.4076   16.3498   21.8767 C   0  0  0  0  0  0  0  0  0  0  0  0
    9.1270   13.0291   23.6156 C   0  0  0  0  0  0  0  0  0  0  0  0
    8.4202   10.2399   23.9212 C   0  0  0  0  0  0  0  0  0  0  0  0
   10.0147   11.9541   23.0801 C   0  0  0  0  0  0  0  0  0  0  0  0
    9.6646   10.6679   23.2349 C   0  0  0  0  0  0  0  0  0  0  0  0
   12.4408   18.4088   20.4912 C   0  0  0  0  0  0  0  0  0  0  0  0
   13.6527   18.3424   22.6765 C   0  0  0  0  0  0  0  0  0  0  0  0
   11.1477   12.3983   22.4566 N   0  0  0  0  0  0  0  0  0  0  0  0
   12.8317   17.6805   21.6819 N   0  0  0  0  0  0  0  0  0  0  0  0
    9.4191   14.2143   23.4901 O   0  0  0  0  0  0  0  0  0  0  0  0
    8.1218    9.0582   24.0496 O   0  0  0  0  0  0  0  0  0  0  0  0
   10.6648    9.3874   22.6292 Cl  0  0  0  0  0  0  0  0  0  0  0  0
    5.2009   14.0500   25.8612 H   0  0  0  0  0  0  0  0  0  0  0  0
    4.5960   11.6607   26.1229 H   0  0  0  0  0  0  0  0  0  0  0  0
    7.2777   14.6872   24.7119 H   0  0  0  0  0  0  0  0  0  0  0  0
    6.0678    9.9026   25.2354 H   0  0  0  0  0  0  0  0  0  0  0  0
   10.5645   13.9321   20.3613 H   0  0  0  0  0  0  0  0  0  0  0  0
   12.6745   13.8111   24.1179 H   0  0  0  0  0  0  0  0  0  0  0  0
   11.3033   16.2553   20.0210 H   0  0  0  0  0  0  0  0  0  0  0  0
   13.4140   16.1347   23.7771 H   0  0  0  0  0  0  0  0  0  0  0  0
   12.8677   19.4221   20.5238 H   0  0  0  0  0  0  0  0  0  0  0  0
   12.8141   17.8823   19.6004 H   0  0  0  0  0  0  0  0  0  0  0  0
   11.3437   18.4746   20.4454 H   0  0  0  0  0  0  0  0  0  0  0  0
   13.8774   19.3668   22.3445 H   0  0  0  0  0  0  0  0  0  0  0  0
   13.1118   18.3777   23.6337 H   0  0  0  0  0  0  0  0  0  0  0  0
   14.5920   17.7849   22.8064 H   0  0  0  0  0  0  0  0  0  0  0  0
   11.7432   11.6679   22.0977 H   0  0  0  0  0  0  0  0  0  0  0  0
  1  2  1  0  0  0  0
  1  3  2  0  0  0  0
  2  4  2  0  0  0  0
  3  9  1  0  0  0  0
  4 10  1  0  0  0  0
  5  7  2  0  0  0  0
  5 11  1  0  0  0  0
  6  8  1  0  0  0  0
  6 11  2  0  0  0  0
  7 12  1  0  0  0  0
  8 12  2  0  0  0  0
  9 10  2  0  0  0  0
  9 13  1  0  0  0  0
 10 14  1  0  0  0  0
 11 19  1  0  0  0  0
 12 20  1  0  0  0  0
 13 15  1  0  0  0  0
 13 21  2  0  0  0  0
 14 16  1  0  0  0  0
 14 22  2  0  0  0  0
 15 16  2  0  0  0  0
 15 19  1  0  0  0  0
 16 23  1  0  0  0  0
 17 20  1  0  0  0  0
 18 20  1  0  0  0  0
  1 24  1  0  0  0  0
  2 25  1  0  0  0  0
  3 26  1  0  0  0  0
  4 27  1  0  0  0  0
  5 28  1  0  0  0  0
  6 29  1  0  0  0  0
  7 30  1  0  0  0  0
  8 31  1  0  0  0  0
 17 32  1  0  0  0  0
 17 33  1  0  0  0  0
 17 34  1  0  0  0  0
 18 35  1  0  0  0  0
 18 36  1  0  0  0  0
 18 37  1  0  0  0  0
 19 38  1  0  0  0  0
M  END
> <id>
EN300-7438472

> <smiles>
CN(C)C=1C=CC(NC2=C(Cl)C(=O)C=3C=CC=CC3C2=O)=CC1

> <MDLNUMBER>
MFCD00559982

> <IUPAC Name>
2-chloro-3-{[4-(dimethylamino)phenyl]amino}-1,4-dihydronaphthalene-1,4-dione

> <CAS>
42262-96-4

> <Purity>
95

> <URL>
https://www.enaminestore.com/catalog/EN300-7438472

> <ROCS_ShapeQuery>
x0446_0A_x1080_0A_x0929_0A_x0812_0A_x0719_0A_x1140_0A_x0528_0A_x0310_0A

> <ROCS_TanimotoCombo>
0.416 

> <ROCS_ShapeTanimoto>
0.264 

> <ROCS_ColorTanimoto>
0.153 

> <ROCS_RefTversky>
0.237 

> <ROCS_RefColorTversky>
0.161 

> <ROCS_RefTverskyCombo>
0.398 

> <ROCS_FitTversky>
1.737 

> <ROCS_FitColorTversky>
0.757 

> <ROCS_FitTverskyCombo>
2.494 

> <ROCS_ColorScore>
-5.722

> <ROCS_Overlap>
2801.877

> <ROCS_Rank>
283                 

$$$$
untitled-dbase-498558_9
  -OEChem-02082415563D

 29 30  0     1  0  0  0  0  0999 V2000
   11.3785   13.6020   22.9754 C   0  0  0  0  0  0  0  0  0  0  0  0
    8.7043   13.8678   21.6455 C   0  0  0  0  0  0  0  0  0  0  0  0
    7.8550   10.7290   23.2021 C   0  0  0  0  0  0  0  0  0  0  0  0
    8.3915   12.4071   24.4014 C   0  0  0  0  0  0  0  0  0  0  0  0
    9.8216   10.8761   24.0102 C   0  0  0  0  0  0  0  0  0  0  0  0
    8.9855   11.8206   23.0627 C   0  0  0  0  0  0  0  0  0  0  0  0
    8.3932   10.8542   24.6797 C   0  0  0  0  0  0  0  0  0  0  0  0
   12.8512   13.8170   22.8613 C   0  0  0  0  0  0  0  0  0  0  0  0
    9.4291   12.5442   21.8514 C   0  0  2  0  0  0  0  0  0  0  0  0
    7.9498   10.1297   25.8907 C   0  0  0  0  0  0  0  0  0  0  0  0
   10.8806   12.8802   21.9403 N   0  0  0  0  0  0  0  0  0  0  0  0
   10.7731   14.0641   23.9355 O   0  0  0  0  0  0  0  0  0  0  0  0
    9.1967   14.9860   21.6871 O   0  0  0  0  0  0  0  0  0  0  0  0
    7.3855   13.6421   21.4099 O   0  0  0  0  0  0  0  0  0  0  0  0
    8.1032    8.7856   25.7631 F   0  0  0  0  0  0  0  0  0  0  0  0
    8.6516   10.5045   26.9922 F   0  0  0  0  0  0  0  0  0  0  0  0
    6.6375   10.3530   26.1638 F   0  0  0  0  0  0  0  0  0  0  0  0
    6.8258   11.0562   23.0208 H   0  0  0  0  0  0  0  0  0  0  0  0
    8.0231    9.7743   22.6927 H   0  0  0  0  0  0  0  0  0  0  0  0
    9.0615   13.0202   25.0134 H   0  0  0  0  0  0  0  0  0  0  0  0
    7.4147   12.8977   24.3372 H   0  0  0  0  0  0  0  0  0  0  0  0
   10.1820    9.9358   23.5801 H   0  0  0  0  0  0  0  0  0  0  0  0
   10.6299   11.3411   24.5844 H   0  0  0  0  0  0  0  0  0  0  0  0
   13.1003   14.7375   22.3092 H   0  0  0  0  0  0  0  0  0  0  0  0
   13.3376   13.9263   23.8439 H   0  0  0  0  0  0  0  0  0  0  0  0
   13.4066   13.0139   22.3510 H   0  0  0  0  0  0  0  0  0  0  0  0
    9.3042   11.9563   20.9180 H   0  0  0  0  0  0  0  0  0  0  0  0
   11.4968   12.5678   21.2246 H   0  0  0  0  0  0  0  0  0  0  0  0
    6.8891   14.4781   21.2799 H   0  0  0  0  0  0  0  0  0  0  0  0
  1  8  1  0  0  0  0
  1 11  1  0  0  0  0
  1 12  2  0  0  0  0
  2  9  1  0  0  0  0
  2 13  2  0  0  0  0
  2 14  1  0  0  0  0
  3  6  1  0  0  0  0
  3  7  1  0  0  0  0
  4  6  1  0  0  0  0
  4  7  1  0  0  0  0
  5  6  1  0  0  0  0
  5  7  1  0  0  0  0
  6  9  1  0  0  0  0
  7 10  1  0  0  0  0
  9 11  1  1  0  0  0
 10 15  1  0  0  0  0
 10 16  1  0  0  0  0
 10 17  1  0  0  0  0
  3 18  1  0  0  0  0
  3 19  1  0  0  0  0
  4 20  1  0  0  0  0
  4 21  1  0  0  0  0
  5 22  1  0  0  0  0
  5 23  1  0  0  0  0
  8 24  1  0  0  0  0
  8 25  1  0  0  0  0
  8 26  1  0  0  0  0
  9 27  1  0  0  0  0
 11 28  1  0  0  0  0
 14 29  1  0  0  0  0
M  END
> <id>
EN300-28278730

> <smiles>
CC(=O)N[C@H](C(=O)O)C1(CC2(C1)C(F)(F)F)C2

> <IUPAC Name>
(2S)-2-acetamido-2-[3-(trifluoromethyl)bicyclo[1.1.1]pentan-1-yl]acetic acid

> <CAS>
2679930-43-7

> <URL>
https://www.enaminestore.com/catalog/EN300-28278730

> <ROCS_ShapeQuery>
x0446_0A_x1080_0A_x0929_0A_x0812_0A_x0719_0A_x1140_0A_x0528_0A_x0310_0A

> <ROCS_TanimotoCombo>
0.416 

> <ROCS_ShapeTanimoto>
0.195 

> <ROCS_ColorTanimoto>
0.221 

> <ROCS_RefTversky>
0.182 

> <ROCS_RefColorTversky>
0.251 

> <ROCS_RefTverskyCombo>
0.432 

> <ROCS_FitTversky>
1.606 

> <ROCS_FitColorTversky>
0.655 

> <ROCS_FitTverskyCombo>
2.261 

> <ROCS_ColorScore>
-9.008

> <ROCS_Overlap>
2144.472

> <ROCS_Rank>
284                 

$$$$
untitled-dbase-301829_0
  -OEChem-02082415563D

 43 46  0     0  0  0  0  0  0999 V2000
    9.5768   14.3448   22.3132 C   0  0  0  0  0  0  0  0  0  0  0  0
   13.6657   15.3200   22.0900 C   0  0  0  0  0  0  0  0  0  0  0  0
   12.5788   15.9885   21.2497 C   0  0  0  0  0  0  0  0  0  0  0  0
   13.1760   13.9883   22.6570 C   0  0  0  0  0  0  0  0  0  0  0  0
    7.5107   11.3586   24.6545 C   0  0  0  0  0  0  0  0  0  0  0  0
    8.3699   10.1960   22.6047 C   0  0  0  0  0  0  0  0  0  0  0  0
    9.9113   10.6414   24.5321 C   0  0  0  0  0  0  0  0  0  0  0  0
    7.7804   12.6315   22.5105 C   0  0  0  0  0  0  0  0  0  0  0  0
    9.3245   13.0776   24.4414 C   0  0  0  0  0  0  0  0  0  0  0  0
   10.1845   11.9144   22.3880 C   0  0  0  0  0  0  0  0  0  0  0  0
   11.2770   16.1208   22.0351 C   0  0  0  0  0  0  0  0  0  0  0  0
   11.8615   14.1576   23.4156 C   0  0  0  0  0  0  0  0  0  0  0  0
    7.3997   11.2722   23.1225 C   0  0  0  0  0  0  0  0  0  0  0  0
    8.9498   11.7200   25.0610 C   0  0  0  0  0  0  0  0  0  0  0  0
    9.8141   10.5515   22.9991 C   0  0  0  0  0  0  0  0  0  0  0  0
    9.2238   13.0034   22.9047 C   0  0  0  0  0  0  0  0  0  0  0  0
   10.8586   14.8263   22.5771 N   0  0  0  0  0  0  0  0  0  0  0  0
    8.7379   14.9440   21.6355 O   0  0  0  0  0  0  0  0  0  0  0  0
   14.5615   15.1586   21.4800 H   0  0  0  0  0  0  0  0  0  0  0  0
   13.9524   15.9852   22.9137 H   0  0  0  0  0  0  0  0  0  0  0  0
   12.9194   16.9795   20.9294 H   0  0  0  0  0  0  0  0  0  0  0  0
   12.4009   15.4001   20.3412 H   0  0  0  0  0  0  0  0  0  0  0  0
   13.0375   13.2683   21.8407 H   0  0  0  0  0  0  0  0  0  0  0  0
   13.9375   13.5726   23.3262 H   0  0  0  0  0  0  0  0  0  0  0  0
    6.8127   12.1126   25.0385 H   0  0  0  0  0  0  0  0  0  0  0  0
    7.2245   10.4003   25.1047 H   0  0  0  0  0  0  0  0  0  0  0  0
    8.0988    9.2173   23.0193 H   0  0  0  0  0  0  0  0  0  0  0  0
    8.2895   10.1131   21.5139 H   0  0  0  0  0  0  0  0  0  0  0  0
   10.9404   10.8789   24.8288 H   0  0  0  0  0  0  0  0  0  0  0  0
    9.6673    9.6704   24.9803 H   0  0  0  0  0  0  0  0  0  0  0  0
    7.6817   12.5912   21.4178 H   0  0  0  0  0  0  0  0  0  0  0  0
    7.0789   13.4036   22.8534 H   0  0  0  0  0  0  0  0  0  0  0  0
    8.6612   13.8609   24.8315 H   0  0  0  0  0  0  0  0  0  0  0  0
   10.3417   13.3592   24.7438 H   0  0  0  0  0  0  0  0  0  0  0  0
   11.2222   12.1677   22.6421 H   0  0  0  0  0  0  0  0  0  0  0  0
   10.1422   11.8558   21.2924 H   0  0  0  0  0  0  0  0  0  0  0  0
   11.4088   16.8028   22.8835 H   0  0  0  0  0  0  0  0  0  0  0  0
   10.4993   16.5453   21.3924 H   0  0  0  0  0  0  0  0  0  0  0  0
   11.5187   13.1827   23.7665 H   0  0  0  0  0  0  0  0  0  0  0  0
   12.0111   14.7860   24.3018 H   0  0  0  0  0  0  0  0  0  0  0  0
    6.3737   11.0128   22.8395 H   0  0  0  0  0  0  0  0  0  0  0  0
    9.0229   11.7782   26.1526 H   0  0  0  0  0  0  0  0  0  0  0  0
   10.4995    9.7813   22.6290 H   0  0  0  0  0  0  0  0  0  0  0  0
  1 16  1  0  0  0  0
  1 17  1  0  0  0  0
  1 18  2  0  0  0  0
  2  3  1  0  0  0  0
  2  4  1  0  0  0  0
  3 11  1  0  0  0  0
  4 12  1  0  0  0  0
  5 13  1  0  0  0  0
  5 14  1  0  0  0  0
  6 13  1  0  0  0  0
  6 15  1  0  0  0  0
  7 14  1  0  0  0  0
  7 15  1  0  0  0  0
  8 13  1  0  0  0  0
  8 16  1  0  0  0  0
  9 14  1  0  0  0  0
  9 16  1  0  0  0  0
 10 15  1  0  0  0  0
 10 16  1  0  0  0  0
 11 17  1  0  0  0  0
 12 17  1  0  0  0  0
  2 19  1  0  0  0  0
  2 20  1  0  0  0  0
  3 21  1  0  0  0  0
  3 22  1  0  0  0  0
  4 23  1  0  0  0  0
  4 24  1  0  0  0  0
  5 25  1  0  0  0  0
  5 26  1  0  0  0  0
  6 27  1  0  0  0  0
  6 28  1  0  0  0  0
  7 29  1  0  0  0  0
  7 30  1  0  0  0  0
  8 31  1  0  0  0  0
  8 32  1  0  0  0  0
  9 33  1  0  0  0  0
  9 34  1  0  0  0  0
 10 35  1  0  0  0  0
 10 36  1  0  0  0  0
 11 37  1  0  0  0  0
 11 38  1  0  0  0  0
 12 39  1  0  0  0  0
 12 40  1  0  0  0  0
 13 41  1  0  0  0  0
 14 42  1  0  0  0  0
 15 43  1  0  0  0  0
M  END
> <id>
EN300-15027076

> <smiles>
O=C(N1CCCCC1)C2(CC3CC4CC(C3)C2)C4

> <IUPAC Name>
1-(adamantane-1-carbonyl)piperidine

> <CAS>
22508-49-2

> <URL>
https://www.enaminestore.com/catalog/EN300-15027076

> <ROCS_ShapeQuery>
x0446_0A_x1080_0A_x0929_0A_x0812_0A_x0719_0A_x1140_0A_x0528_0A_x0310_0A

> <ROCS_TanimotoCombo>
0.416 

> <ROCS_ShapeTanimoto>
0.232 

> <ROCS_ColorTanimoto>
0.184 

> <ROCS_RefTversky>
0.211 

> <ROCS_RefColorTversky>
0.199 

> <ROCS_RefTverskyCombo>
0.409 

> <ROCS_FitTversky>
1.785 

> <ROCS_FitColorTversky>
0.717 

> <ROCS_FitTverskyCombo>
2.503 

> <ROCS_ColorScore>
-7.106

> <ROCS_Overlap>
2484.789

> <ROCS_Rank>
285                 

$$$$
untitled-dbase-305416_5
  -OEChem-02082415563D

 41 45  0     1  0  0  0  0  0999 V2000
    8.4224   21.3767   22.1384 C   0  0  0  0  0  0  0  0  0  0  0  0
    8.3752   20.6906   23.3519 C   0  0  0  0  0  0  0  0  0  0  0  0
    8.7523   20.6974   20.9655 C   0  0  0  0  0  0  0  0  0  0  0  0
    8.6581   19.3253   23.3927 C   0  0  0  0  0  0  0  0  0  0  0  0
    9.0352   19.3322   21.0063 C   0  0  0  0  0  0  0  0  0  0  0  0
    8.9880   18.6461   22.2198 C   0  0  0  0  0  0  0  0  0  0  0  0
    9.2793   17.2353   22.2620 C   0  0  0  0  0  0  0  0  0  0  0  0
    9.8475   15.0328   22.8892 C   0  0  0  0  0  0  0  0  0  0  0  0
    7.5753   11.4515   22.2861 C   0  0  0  0  0  0  0  0  0  0  0  0
    9.5977   10.1630   23.0319 C   0  0  0  0  0  0  0  0  0  0  0  0
    7.5869   10.3136   24.5164 C   0  0  0  0  0  0  0  0  0  0  0  0
    7.6531   12.7245   24.4408 C   0  0  0  0  0  0  0  0  0  0  0  0
    9.5962   11.4857   25.1572 C   0  0  0  0  0  0  0  0  0  0  0  0
    8.0595   10.2084   23.0536 C   0  0  0  0  0  0  0  0  0  0  0  0
    8.1294   12.7115   22.9724 C   0  0  1  0  0  0  0  0  0  0  0  0
   10.1462   11.4268   23.7157 C   0  0  2  0  0  0  0  0  0  0  0  0
    9.6689   12.6617   22.9285 C   0  0  0  0  0  0  0  0  0  0  0  0
    9.2387   16.4104   21.2373 N   0  0  0  0  0  0  0  0  0  0  0  0
    9.5710   15.1184   21.6054 N   0  0  0  0  0  0  0  0  0  0  0  0
    8.1183   11.5273   25.1733 N   0  0  0  0  0  0  0  0  0  0  0  0
   10.2045   13.8548   23.4900 O   0  0  0  0  0  0  0  0  0  0  0  0
    9.7257   16.5106   23.7511 S   0  0  0  0  0  0  0  0  0  0  0  0
    8.2016   22.4396   22.1066 H   0  0  0  0  0  0  0  0  0  0  0  0
    8.1185   21.2197   24.2650 H   0  0  0  0  0  0  0  0  0  0  0  0
    8.7879   21.2314   20.0204 H   0  0  0  0  0  0  0  0  0  0  0  0
    8.6145   18.8042   24.3460 H   0  0  0  0  0  0  0  0  0  0  0  0
    9.2917   18.8173   20.0835 H   0  0  0  0  0  0  0  0  0  0  0  0
    7.9070   11.4083   21.2419 H   0  0  0  0  0  0  0  0  0  0  0  0
    6.4789   11.4815   22.2747 H   0  0  0  0  0  0  0  0  0  0  0  0
    9.9537    9.2675   23.5559 H   0  0  0  0  0  0  0  0  0  0  0  0
    9.9628   10.0979   21.9999 H   0  0  0  0  0  0  0  0  0  0  0  0
    6.4904   10.3240   24.5595 H   0  0  0  0  0  0  0  0  0  0  0  0
    7.9004    9.4252   25.0795 H   0  0  0  0  0  0  0  0  0  0  0  0
    8.0071   13.6280   24.9527 H   0  0  0  0  0  0  0  0  0  0  0  0
    6.5572   12.7723   24.4796 H   0  0  0  0  0  0  0  0  0  0  0  0
    9.9431   10.6144   25.7279 H   0  0  0  0  0  0  0  0  0  0  0  0
    9.9935   12.3620   25.6843 H   0  0  0  0  0  0  0  0  0  0  0  0
    7.6525    9.3024   22.5914 H   0  0  0  0  0  0  0  0  0  0  0  0
    7.7663   13.6147   22.4688 H   0  0  0  0  0  0  0  0  0  0  0  0
   11.2412   11.3986   23.7499 H   0  0  0  0  0  0  0  0  0  0  0  0
   10.0128   12.6095   21.8885 H   0  0  0  0  0  0  0  0  0  0  0  0
  1  2  1  0  0  0  0
  1  3  2  0  0  0  0
  2  4  2  0  0  0  0
  3  5  1  0  0  0  0
  4  6  1  0  0  0  0
  5  6  2  0  0  0  0
  6  7  1  0  0  0  0
  7 18  2  0  0  0  0
  7 22  1  0  0  0  0
  8 19  2  0  0  0  0
  8 21  1  0  0  0  0
  8 22  1  0  0  0  0
  9 14  1  0  0  0  0
  9 15  1  0  0  0  0
 10 14  1  0  0  0  0
 10 16  1  0  0  0  0
 11 14  1  0  0  0  0
 11 20  1  0  0  0  0
 12 15  1  0  0  0  0
 12 20  1  0  0  0  0
 13 16  1  0  0  0  0
 13 20  1  0  0  0  0
 15 17  1  0  0  0  0
 16 17  1  0  0  0  0
 17 21  1  0  0  0  0
 18 19  1  0  0  0  0
  1 23  1  0  0  0  0
  2 24  1  0  0  0  0
  3 25  1  0  0  0  0
  4 26  1  0  0  0  0
  5 27  1  0  0  0  0
  9 28  1  0  0  0  0
  9 29  1  0  0  0  0
 10 30  1  0  0  0  0
 10 31  1  0  0  0  0
 11 32  1  0  0  0  0
 11 33  1  0  0  0  0
 12 34  1  0  0  0  0
 12 35  1  0  0  0  0
 13 36  1  0  0  0  0
 13 37  1  0  0  0  0
 14 38  1  0  0  0  0
 15 39  1  0  0  0  0
 16 40  1  0  0  0  0
 17 41  1  0  0  0  0
M  END
> <id>
EN300-1387199

> <smiles>
C1C2CC3CN(C2)CC1C3OC4=NN=C(S4)C=5C=CC=CC5

> <MDLNUMBER>
MFCD31811103

> <IUPAC Name>
4-[(5-phenyl-1,3,4-thiadiazol-2-yl)oxy]-1-azatricyclo[3.3.1.1,3,7]decane

> <CAS>
1620388-44-4

> <Purity>
95

> <URL>
https://www.enaminestore.com/catalog/EN300-1387199

> <ROCS_ShapeQuery>
x0446_0A_x1080_0A_x0929_0A_x0812_0A_x0719_0A_x1140_0A_x0528_0A_x0310_0A

> <ROCS_TanimotoCombo>
0.416 

> <ROCS_ShapeTanimoto>
0.200 

> <ROCS_ColorTanimoto>
0.217 

> <ROCS_RefTversky>
0.189 

> <ROCS_RefColorTversky>
0.248 

> <ROCS_RefTverskyCombo>
0.436 

> <ROCS_FitTversky>
1.408 

> <ROCS_FitColorTversky>
0.633 

> <ROCS_FitTverskyCombo>
2.041 

> <ROCS_ColorScore>
-8.911

> <ROCS_Overlap>
2229.277

> <ROCS_Rank>
286                 

$$$$
untitled-dbase-403114_2
  -OEChem-02082415563D

 22 23  0     0  0  0  0  0  0999 V2000
    9.5789   10.9396   23.5867 C   0  0  0  0  0  0  0  0  0  0  0  0
    7.6849   11.0169   24.4209 C   0  0  0  0  0  0  0  0  0  0  0  0
    6.3872   10.7906   24.9825 C   0  0  0  0  0  0  0  0  0  0  0  0
    6.1253   13.0651   25.1787 C   0  0  0  0  0  0  0  0  0  0  0  0
    7.3361   13.3687   24.6578 C   0  0  0  0  0  0  0  0  0  0  0  0
    8.0526   14.6059   21.9873 C   0  0  0  0  0  0  0  0  0  0  0  0
    7.8366   14.7680   24.4888 C   0  0  0  0  0  0  0  0  0  0  0  0
    7.4816   15.3875   23.1428 C   0  0  0  0  0  0  0  0  0  0  0  0
    8.5581   10.1364   24.0063 N   0  0  0  0  0  0  0  0  0  0  0  0
    9.3885   12.2560   23.7168 N   0  0  0  0  0  0  0  0  0  0  0  0
    5.6245   11.7813   25.3526 N   0  0  0  0  0  0  0  0  0  0  0  0
    8.1505   12.3045   24.2621 N   0  0  0  0  0  0  0  0  0  0  0  0
    7.4673   13.6885   21.4269 O   0  0  0  0  0  0  0  0  0  0  0  0
    9.2821   15.0432   21.6204 O   0  0  0  0  0  0  0  0  0  0  0  0
    6.1301   15.5197   23.0498 F   0  0  0  0  0  0  0  0  0  0  0  0
    7.9768   16.6581   23.1297 F   0  0  0  0  0  0  0  0  0  0  0  0
   10.4971   10.5529   23.1699 H   0  0  0  0  0  0  0  0  0  0  0  0
    6.0279    9.7564   25.1034 H   0  0  0  0  0  0  0  0  0  0  0  0
    5.4558   13.8564   25.5013 H   0  0  0  0  0  0  0  0  0  0  0  0
    7.4088   15.3799   25.2893 H   0  0  0  0  0  0  0  0  0  0  0  0
    8.9227   14.7763   24.6284 H   0  0  0  0  0  0  0  0  0  0  0  0
    9.6748   14.5626   20.8604 H   0  0  0  0  0  0  0  0  0  0  0  0
  1  9  1  0  0  0  0
  1 10  2  0  0  0  0
  2  3  1  0  0  0  0
  2  9  2  0  0  0  0
  2 12  1  0  0  0  0
  3 11  2  0  0  0  0
  4  5  2  0  0  0  0
  4 11  1  0  0  0  0
  5  7  1  0  0  0  0
  5 12  1  0  0  0  0
  6  8  1  0  0  0  0
  6 13  2  0  0  0  0
  6 14  1  0  0  0  0
  7  8  1  0  0  0  0
  8 15  1  0  0  0  0
  8 16  1  0  0  0  0
 10 12  1  0  0  0  0
  1 17  1  0  0  0  0
  3 18  1  0  0  0  0
  4 19  1  0  0  0  0
  7 20  1  0  0  0  0
  7 21  1  0  0  0  0
 14 22  1  0  0  0  0
M  END
> <id>
EN300-1139661

> <smiles>
OC(=O)C(F)(F)CC1=CN=CC2=NC=NN12

> <MDLNUMBER>
MFCD31609124

> <IUPAC Name>
2,2-difluoro-3-{[1,2,4]triazolo[1,5-a]pyrazin-5-yl}propanoic acid

> <CAS>
2138535-68-7

> <URL>
https://www.enaminestore.com/catalog/EN300-1139661

> <ROCS_ShapeQuery>
x0446_0A_x1080_0A_x0929_0A_x0812_0A_x0719_0A_x1140_0A_x0528_0A_x0310_0A

> <ROCS_TanimotoCombo>
0.416 

> <ROCS_ShapeTanimoto>
0.205 

> <ROCS_ColorTanimoto>
0.211 

> <ROCS_RefTversky>
0.189 

> <ROCS_RefColorTversky>
0.221 

> <ROCS_RefTverskyCombo>
0.410 

> <ROCS_FitTversky>
1.679 

> <ROCS_FitColorTversky>
0.829 

> <ROCS_FitTverskyCombo>
2.509 

> <ROCS_ColorScore>
-7.883

> <ROCS_Overlap>
2235.890

> <ROCS_Rank>
287                 

$$$$
untitled-dbase-47812_1
  -OEChem-02082415563D

 45 47  0     0  0  0  0  0  0999 V2000
    6.6780   14.2920   22.4711 C   0  0  0  0  0  0  0  0  0  0  0  0
   10.5409   11.3166   24.5348 C   0  0  0  0  0  0  0  0  0  0  0  0
    9.6221   10.5080   22.3460 C   0  0  0  0  0  0  0  0  0  0  0  0
    8.5612    9.7777   24.4978 C   0  0  0  0  0  0  0  0  0  0  0  0
    9.3347   12.9082   23.0166 C   0  0  0  0  0  0  0  0  0  0  0  0
    8.2721   12.1766   25.1735 C   0  0  0  0  0  0  0  0  0  0  0  0
    7.3517   11.3668   22.9796 C   0  0  0  0  0  0  0  0  0  0  0  0
   10.2817   11.6955   23.0669 C   0  0  0  0  0  0  0  0  0  0  0  0
    9.2157   10.9614   25.2300 C   0  0  0  0  0  0  0  0  0  0  0  0
    8.2922   10.1489   23.0298 C   0  0  0  0  0  0  0  0  0  0  0  0
    7.9945   12.5691   23.7062 C   0  0  0  0  0  0  0  0  0  0  0  0
    6.3650   16.7837   20.8189 C   0  0  0  0  0  0  0  0  0  0  0  0
    4.3893   17.2726   22.2781 C   0  0  0  0  0  0  0  0  0  0  0  0
    4.3892   15.2437   20.7612 C   0  0  0  0  0  0  0  0  0  0  0  0
    5.2425   16.1579   21.6577 C   0  0  0  0  0  0  0  0  0  0  0  0
    7.1076   13.7112   23.6600 N   0  0  0  0  0  0  0  0  0  0  0  0
    5.8338   15.3723   22.7152 N   0  0  0  0  0  0  0  0  0  0  0  0
    6.9998   13.9035   21.3490 O   0  0  0  0  0  0  0  0  0  0  0  0
    3.3223   14.6456   21.4887 O   0  0  0  0  0  0  0  0  0  0  0  0
   11.2301   10.4647   24.5854 H   0  0  0  0  0  0  0  0  0  0  0  0
   11.0264   12.1502   25.0570 H   0  0  0  0  0  0  0  0  0  0  0  0
    9.4462   10.7596   21.2930 H   0  0  0  0  0  0  0  0  0  0  0  0
   10.2951    9.6419   22.3582 H   0  0  0  0  0  0  0  0  0  0  0  0
    9.2156    8.8987   24.5477 H   0  0  0  0  0  0  0  0  0  0  0  0
    7.6218    9.5037   24.9934 H   0  0  0  0  0  0  0  0  0  0  0  0
    9.8124   13.7647   23.5101 H   0  0  0  0  0  0  0  0  0  0  0  0
    9.1635   13.1964   21.9712 H   0  0  0  0  0  0  0  0  0  0  0  0
    7.3330   11.9350   25.6881 H   0  0  0  0  0  0  0  0  0  0  0  0
    8.7257   13.0176   25.7142 H   0  0  0  0  0  0  0  0  0  0  0  0
    7.1390   11.6227   21.9334 H   0  0  0  0  0  0  0  0  0  0  0  0
    6.3927   11.1065   23.4463 H   0  0  0  0  0  0  0  0  0  0  0  0
   11.2291   11.9458   22.5766 H   0  0  0  0  0  0  0  0  0  0  0  0
    9.4069   10.6903   26.2743 H   0  0  0  0  0  0  0  0  0  0  0  0
    7.8275    9.3017   22.5131 H   0  0  0  0  0  0  0  0  0  0  0  0
    6.9957   16.0142   20.3598 H   0  0  0  0  0  0  0  0  0  0  0  0
    5.9575   17.4093   20.0162 H   0  0  0  0  0  0  0  0  0  0  0  0
    7.0086   17.4242   21.4333 H   0  0  0  0  0  0  0  0  0  0  0  0
    3.5738   16.8663   22.8870 H   0  0  0  0  0  0  0  0  0  0  0  0
    3.9480   17.9111   21.5049 H   0  0  0  0  0  0  0  0  0  0  0  0
    4.9923   17.9088   22.9367 H   0  0  0  0  0  0  0  0  0  0  0  0
    3.9430   15.8127   19.9384 H   0  0  0  0  0  0  0  0  0  0  0  0
    4.9907   14.4391   20.3228 H   0  0  0  0  0  0  0  0  0  0  0  0
    6.7837   14.1072   24.5358 H   0  0  0  0  0  0  0  0  0  0  0  0
    5.5862   15.5922   23.6749 H   0  0  0  0  0  0  0  0  0  0  0  0
    2.8348   14.0892   20.8608 H   0  0  0  0  0  0  0  0  0  0  0  0
  1 16  1  0  0  0  0
  1 17  1  0  0  0  0
  1 18  2  0  0  0  0
  2  8  1  1  0  0  0
  2  9  1  0  0  0  0
  3  8  1  0  0  0  0
  3 10  1  6  0  0  0
  4  9  1  0  0  0  0
  4 10  1  0  0  0  0
  5  8  1  0  0  0  0
  5 11  1  0  0  0  0
  6  9  1  6  0  0  0
  6 11  1  0  0  0  0
  7 10  1  0  0  0  0
  7 11  1  0  0  0  0
 11 16  1  6  0  0  0
 12 15  1  0  0  0  0
 13 15  1  0  0  0  0
 14 15  1  0  0  0  0
 14 19  1  0  0  0  0
 15 17  1  0  0  0  0
  2 20  1  0  0  0  0
  2 21  1  0  0  0  0
  3 22  1  0  0  0  0
  3 23  1  0  0  0  0
  4 24  1  0  0  0  0
  4 25  1  0  0  0  0
  5 26  1  0  0  0  0
  5 27  1  0  0  0  0
  6 28  1  0  0  0  0
  6 29  1  0  0  0  0
  7 30  1  0  0  0  0
  7 31  1  0  0  0  0
  8 32  1  0  0  0  0
  9 33  1  0  0  0  0
 10 34  1  0  0  0  0
 12 35  1  0  0  0  0
 12 36  1  0  0  0  0
 12 37  1  0  0  0  0
 13 38  1  0  0  0  0
 13 39  1  0  0  0  0
 13 40  1  0  0  0  0
 14 41  1  0  0  0  0
 14 42  1  0  0  0  0
 16 43  1  0  0  0  0
 17 44  1  0  0  0  0
 19 45  1  0  0  0  0
M  END
> <id>
EN300-236177

> <smiles>
CC(C)(CO)NC(=O)N[C@]1(C[C@@H]2C[C@H]3C[C@@H](C2)C1)C3

> <IUPAC Name>
3-(1-hydroxy-2-methylpropan-2-yl)-1-[(3R,5S,7s)-adamantan-1-yl]urea

> <CAS>
330202-17-0

> <URL>
https://www.enaminestore.com/catalog/EN300-236177

> <ROCS_ShapeQuery>
x0446_0A_x1080_0A_x0929_0A_x0812_0A_x0719_0A_x1140_0A_x0528_0A_x0310_0A

> <ROCS_TanimotoCombo>
0.416 

> <ROCS_ShapeTanimoto>
0.210 

> <ROCS_ColorTanimoto>
0.206 

> <ROCS_RefTversky>
0.194 

> <ROCS_RefColorTversky>
0.236 

> <ROCS_RefTverskyCombo>
0.431 

> <ROCS_FitTversky>
1.616 

> <ROCS_FitColorTversky>
0.619 

> <ROCS_FitTverskyCombo>
2.235 

> <ROCS_ColorScore>
-8.492

> <ROCS_Overlap>
2295.175

> <ROCS_Rank>
288                 

$$$$
untitled-dbase-588397_8
  -OEChem-02082415563D

 26 27  0     1  0  0  0  0  0999 V2000
   11.3811   13.6033   22.9750 C   0  0  0  0  0  0  0  0  0  0  0  0
    8.7023   13.8665   21.6469 C   0  0  0  0  0  0  0  0  0  0  0  0
    8.3917   12.4029   24.4063 C   0  0  0  0  0  0  0  0  0  0  0  0
    7.8557   10.7264   23.2094 C   0  0  0  0  0  0  0  0  0  0  0  0
    9.8204   10.8744   24.0147 C   0  0  0  0  0  0  0  0  0  0  0  0
    8.3986   10.8586   24.6737 C   0  0  0  0  0  0  0  0  0  0  0  0
    8.9858   11.8198   23.0644 C   0  0  0  0  0  0  0  0  0  0  0  0
    9.4279   12.5433   21.8526 C   0  0  2  0  0  0  0  0  0  0  0  0
   12.8594   13.7966   22.8073 C   0  0  0  0  0  0  0  0  0  0  0  0
   10.8794   12.8801   21.9402 N   0  0  0  0  0  0  0  0  0  0  0  0
   10.7696   14.0636   23.9350 O   0  0  0  0  0  0  0  0  0  0  0  0
    9.1942   14.9850   21.6878 O   0  0  0  0  0  0  0  0  0  0  0  0
    7.3835   13.6400   21.4123 O   0  0  0  0  0  0  0  0  0  0  0  0
   13.3222   13.2070   21.6756 F   0  0  0  0  0  0  0  0  0  0  0  0
   13.5625   13.2703   23.8425 F   0  0  0  0  0  0  0  0  0  0  0  0
   13.1966   15.1091   22.7316 F   0  0  0  0  0  0  0  0  0  0  0  0
    7.4133   12.8907   24.3437 H   0  0  0  0  0  0  0  0  0  0  0  0
    9.0610   13.0154   25.0194 H   0  0  0  0  0  0  0  0  0  0  0  0
    8.0237    9.7703   22.7027 H   0  0  0  0  0  0  0  0  0  0  0  0
    6.8256   11.0524   23.0312 H   0  0  0  0  0  0  0  0  0  0  0  0
   10.6285   11.3386   24.5898 H   0  0  0  0  0  0  0  0  0  0  0  0
   10.1786    9.9326   23.5860 H   0  0  0  0  0  0  0  0  0  0  0  0
    8.0762   10.3308   25.5574 H   0  0  0  0  0  0  0  0  0  0  0  0
    9.3026   11.9551   20.9195 H   0  0  0  0  0  0  0  0  0  0  0  0
   11.4943   12.5675   21.2236 H   0  0  0  0  0  0  0  0  0  0  0  0
    6.8865   14.4757   21.2825 H   0  0  0  0  0  0  0  0  0  0  0  0
  1  9  1  0  0  0  0
  1 10  1  0  0  0  0
  1 11  2  0  0  0  0
  2  8  1  0  0  0  0
  2 12  2  0  0  0  0
  2 13  1  0  0  0  0
  3  6  1  0  0  0  0
  3  7  1  0  0  0  0
  4  6  1  0  0  0  0
  4  7  1  0  0  0  0
  5  6  1  0  0  0  0
  5  7  1  0  0  0  0
  7  8  1  0  0  0  0
  8 10  1  6  0  0  0
  9 14  1  0  0  0  0
  9 15  1  0  0  0  0
  9 16  1  0  0  0  0
  3 17  1  0  0  0  0
  3 18  1  0  0  0  0
  4 19  1  0  0  0  0
  4 20  1  0  0  0  0
  5 21  1  0  0  0  0
  5 22  1  0  0  0  0
  6 23  1  0  0  0  0
  8 24  1  0  0  0  0
 10 25  1  0  0  0  0
 13 26  1  0  0  0  0
M  END
> <id>
EN300-37101500

> <smiles>
OC(=O)[C@@H](NC(=O)C(F)(F)F)C1(CC2C1)C2

> <IUPAC Name>
(2S)-2-{bicyclo[1.1.1]pentan-1-yl}-2-(2,2,2-trifluoroacetamido)acetic acid

> <URL>
https://www.enaminestore.com/catalog/EN300-37101500

> <ROCS_ShapeQuery>
x0446_0A_x1080_0A_x0929_0A_x0812_0A_x0719_0A_x1140_0A_x0528_0A_x0310_0A

> <ROCS_TanimotoCombo>
0.416 

> <ROCS_ShapeTanimoto>
0.195 

> <ROCS_ColorTanimoto>
0.221 

> <ROCS_RefTversky>
0.181 

> <ROCS_RefColorTversky>
0.251 

> <ROCS_RefTverskyCombo>
0.432 

> <ROCS_FitTversky>
1.644 

> <ROCS_FitColorTversky>
0.655 

> <ROCS_FitTverskyCombo>
2.299 

> <ROCS_ColorScore>
-9.011

> <ROCS_Overlap>
2136.092

> <ROCS_Rank>
289                 

$$$$
untitled-dbase-562254_4
  -OEChem-02082415563D

 54 59  0     1  0  0  0  0  0999 V2000
    3.9761   11.2134   18.2653 C   0  0  0  0  0  0  0  0  0  0  0  0
    6.1221   16.2426   20.6916 C   0  0  0  0  0  0  0  0  0  0  0  0
    3.1321   10.5891   19.1988 C   0  0  0  0  0  0  0  0  0  0  0  0
    5.6005   16.3731   21.9894 C   0  0  0  0  0  0  0  0  0  0  0  0
    4.6197   12.4160   18.5712 C   0  0  0  0  0  0  0  0  0  0  0  0
    5.7855   15.1484   19.8893 C   0  0  0  0  0  0  0  0  0  0  0  0
    2.9164   11.1542   20.4570 C   0  0  0  0  0  0  0  0  0  0  0  0
    4.7335   15.4114   22.5110 C   0  0  0  0  0  0  0  0  0  0  0  0
   10.9429   14.3916   23.1920 C   0  0  0  0  0  0  0  0  0  0  0  0
   11.1182   12.8232   21.4127 C   0  0  0  0  0  0  0  0  0  0  0  0
   12.1184   14.8786   21.1828 C   0  0  0  0  0  0  0  0  0  0  0  0
    4.4060   12.9772   19.8198 C   0  0  0  0  0  0  0  0  0  0  0  0
    4.9252   14.1936   20.4067 C   0  0  0  0  0  0  0  0  0  0  0  0
    3.5606   12.3432   20.7581 C   0  0  0  0  0  0  0  0  0  0  0  0
    4.4068   14.3258   21.7147 C   0  0  0  0  0  0  0  0  0  0  0  0
   10.6458   13.1345   22.6775 C   0  0  0  0  0  0  0  0  0  0  0  0
   11.6927   15.2863   22.4367 C   0  0  0  0  0  0  0  0  0  0  0  0
    6.0565   11.8331   24.1951 C   0  0  0  0  0  0  0  0  0  0  0  0
    9.2558   10.1679   24.2437 C   0  0  0  0  0  0  0  0  0  0  0  0
    9.3655   12.4739   24.7486 C   0  0  0  0  0  0  0  0  0  0  0  0
    7.8968   11.1569   22.5734 C   0  0  0  0  0  0  0  0  0  0  0  0
    3.4849   13.1594   22.0406 C   0  0  0  0  0  0  0  0  0  0  0  0
    8.4148   11.2647   24.8966 C   0  0  1  0  0  0  0  0  0  0  0  0
    9.3812   10.9410   22.9153 C   0  0  1  0  0  0  0  0  0  0  0  0
    3.9403   12.3746   23.2642 C   0  0  0  0  0  0  0  0  0  0  0  0
   11.8495   13.6659   20.6493 N   0  0  0  0  0  0  0  0  0  0  0  0
    9.9079   12.2310   23.3999 N   0  0  3  0  0  0  0  0  0  0  0  0
    7.3425   11.4313   23.9039 N   0  0  0  0  0  0  0  0  0  0  0  0
    5.6399   12.0507   25.3302 O   0  0  0  0  0  0  0  0  0  0  0  0
   11.9977   16.5189   22.9126 O   0  0  0  0  0  0  0  0  0  0  0  0
    5.2963   11.9605   23.0639 O   0  0  0  0  0  0  0  0  0  0  0  0
    4.1282   10.7552   17.2915 H   0  0  0  0  0  0  0  0  0  0  0  0
    6.7955   17.0037   20.3063 H   0  0  0  0  0  0  0  0  0  0  0  0
    2.6406    9.6563   18.9351 H   0  0  0  0  0  0  0  0  0  0  0  0
    5.8758   17.2347   22.5919 H   0  0  0  0  0  0  0  0  0  0  0  0
    5.2673   12.8872   17.8393 H   0  0  0  0  0  0  0  0  0  0  0  0
    6.1949   15.0622   18.8882 H   0  0  0  0  0  0  0  0  0  0  0  0
    2.2606   10.6710   21.1727 H   0  0  0  0  0  0  0  0  0  0  0  0
    4.3293   15.5189   23.5116 H   0  0  0  0  0  0  0  0  0  0  0  0
   10.5923   14.6782   24.1805 H   0  0  0  0  0  0  0  0  0  0  0  0
   10.9186   11.8576   20.9578 H   0  0  0  0  0  0  0  0  0  0  0  0
   12.7068   15.5357   20.5499 H   0  0  0  0  0  0  0  0  0  0  0  0
   10.2198   10.0004   24.7361 H   0  0  0  0  0  0  0  0  0  0  0  0
    8.7223    9.2166   24.1422 H   0  0  0  0  0  0  0  0  0  0  0  0
    8.8266   13.4252   24.8251 H   0  0  0  0  0  0  0  0  0  0  0  0
   10.1732   12.4472   25.4878 H   0  0  0  0  0  0  0  0  0  0  0  0
    7.6997   11.9883   21.8902 H   0  0  0  0  0  0  0  0  0  0  0  0
    7.4239   10.2477   22.1872 H   0  0  0  0  0  0  0  0  0  0  0  0
    2.4625   13.5346   22.1676 H   0  0  0  0  0  0  0  0  0  0  0  0
    8.0513   11.0818   25.9091 H   0  0  0  0  0  0  0  0  0  0  0  0
    9.9859   10.4589   22.1441 H   0  0  0  0  0  0  0  0  0  0  0  0
    3.3120   11.4931   23.3985 H   0  0  0  0  0  0  0  0  0  0  0  0
    3.8846   13.0029   24.1541 H   0  0  0  0  0  0  0  0  0  0  0  0
   11.6247   16.6435   23.8018 H   0  0  0  0  0  0  0  0  0  0  0  0
  1  3  1  0  0  0  0
  1  5  2  0  0  0  0
  2  4  1  0  0  0  0
  2  6  2  0  0  0  0
  3  7  2  0  0  0  0
  4  8  2  0  0  0  0
  5 12  1  0  0  0  0
  6 13  1  0  0  0  0
  7 14  1  0  0  0  0
  8 15  1  0  0  0  0
  9 16  1  0  0  0  0
  9 17  2  0  0  0  0
 10 16  2  0  0  0  0
 10 26  1  0  0  0  0
 11 17  1  0  0  0  0
 11 26  2  0  0  0  0
 12 13  1  0  0  0  0
 12 14  2  0  0  0  0
 13 15  2  0  0  0  0
 14 22  1  0  0  0  0
 15 22  1  0  0  0  0
 16 27  1  0  0  0  0
 17 30  1  0  0  0  0
 18 28  1  0  0  0  0
 18 29  2  0  0  0  0
 18 31  1  0  0  0  0
 19 23  1  1  0  0  0
 19 24  1  1  0  0  0
 20 23  1  0  0  0  0
 20 27  1  0  0  0  0
 21 24  1  0  0  0  0
 21 28  1  0  0  0  0
 22 25  1  0  0  0  0
 23 28  1  0  0  0  0
 24 27  1  0  0  0  0
 25 31  1  0  0  0  0
  1 32  1  0  0  0  0
  2 33  1  0  0  0  0
  3 34  1  0  0  0  0
  4 35  1  0  0  0  0
  5 36  1  0  0  0  0
  6 37  1  0  0  0  0
  7 38  1  0  0  0  0
  8 39  1  0  0  0  0
  9 40  1  0  0  0  0
 10 41  1  0  0  0  0
 11 42  1  0  0  0  0
 19 43  1  0  0  0  0
 19 44  1  0  0  0  0
 20 45  1  0  0  0  0
 20 46  1  0  0  0  0
 21 47  1  0  0  0  0
 21 48  1  0  0  0  0
 22 49  1  0  0  0  0
 23 50  1  0  0  0  0
 24 51  1  0  0  0  0
 25 52  1  0  0  0  0
 25 53  1  0  0  0  0
 30 54  1  0  0  0  0
M  END
> <id>
EN300-37389446

> <smiles>
OC=1C=NC=C(C1)N2C[C@@H]3C[C@H]2CN3C(=O)OCC4C=5C=CC=CC5C=6C=CC=CC46

> <IUPAC Name>
(9H-fluoren-9-yl)methyl (1S,4S)-5-(5-hydroxypyridin-3-yl)-2,5-diazabicyclo[2.2.1]heptane-2-carboxylate

> <CAS>
2763891-72-9

> <URL>
https://www.enaminestore.com/catalog/EN300-37389446

> <ROCS_ShapeQuery>
x0446_0A_x1080_0A_x0929_0A_x0812_0A_x0719_0A_x1140_0A_x0528_0A_x0310_0A

> <ROCS_TanimotoCombo>
0.416 

> <ROCS_ShapeTanimoto>
0.245 

> <ROCS_ColorTanimoto>
0.171 

> <ROCS_RefTversky>
0.230 

> <ROCS_RefColorTversky>
0.209 

> <ROCS_RefTverskyCombo>
0.440 

> <ROCS_FitTversky>
1.354 

> <ROCS_FitColorTversky>
0.484 

> <ROCS_FitTverskyCombo>
1.838 

> <ROCS_ColorScore>
-7.541

> <ROCS_Overlap>
2727.171

> <ROCS_Rank>
290                 

$$$$
untitled-dbase-48713_1
  -OEChem-02082415563D

 45 47  0     0  0  0  0  0  0999 V2000
    6.6774   14.2921   22.4711 C   0  0  0  0  0  0  0  0  0  0  0  0
   10.5437   11.3169   24.5330 C   0  0  0  0  0  0  0  0  0  0  0  0
    9.6214   10.5075   22.3458 C   0  0  0  0  0  0  0  0  0  0  0  0
    8.5640    9.7775   24.4994 C   0  0  0  0  0  0  0  0  0  0  0  0
    9.3347   12.9065   23.0166 C   0  0  0  0  0  0  0  0  0  0  0  0
    8.2763   12.1757   25.1724 C   0  0  0  0  0  0  0  0  0  0  0  0
    7.3522   11.3646   22.9823 C   0  0  0  0  0  0  0  0  0  0  0  0
   10.2823   11.6955   23.0654 C   0  0  0  0  0  0  0  0  0  0  0  0
    9.2195   10.9617   25.2300 C   0  0  0  0  0  0  0  0  0  0  0  0
    8.2923   10.1478   23.0314 C   0  0  0  0  0  0  0  0  0  0  0  0
    7.9938   12.5686   23.7053 C   0  0  0  0  0  0  0  0  0  0  0  0
    6.3645   16.7848   20.8205 C   0  0  0  0  0  0  0  0  0  0  0  0
    4.3885   17.2727   22.2796 C   0  0  0  0  0  0  0  0  0  0  0  0
    4.3888   15.2447   20.7614 C   0  0  0  0  0  0  0  0  0  0  0  0
    5.2419   16.1585   21.6587 C   0  0  0  0  0  0  0  0  0  0  0  0
    7.1071   13.7103   23.6597 N   0  0  0  0  0  0  0  0  0  0  0  0
    5.8331   15.3722   22.7158 N   0  0  0  0  0  0  0  0  0  0  0  0
    6.9994   13.9044   21.3488 O   0  0  0  0  0  0  0  0  0  0  0  0
    3.3218   14.6462   21.4884 O   0  0  0  0  0  0  0  0  0  0  0  0
   11.2331   10.4653   24.5828 H   0  0  0  0  0  0  0  0  0  0  0  0
   11.0298   12.1506   25.0544 H   0  0  0  0  0  0  0  0  0  0  0  0
    9.4441   10.7589   21.2928 H   0  0  0  0  0  0  0  0  0  0  0  0
   10.2945    9.6414   22.3574 H   0  0  0  0  0  0  0  0  0  0  0  0
    9.2188    8.8987   24.5484 H   0  0  0  0  0  0  0  0  0  0  0  0
    7.6257    9.5034   24.9969 H   0  0  0  0  0  0  0  0  0  0  0  0
    9.8119   13.7633   23.5101 H   0  0  0  0  0  0  0  0  0  0  0  0
    9.1632   13.1950   21.9713 H   0  0  0  0  0  0  0  0  0  0  0  0
    7.3382   11.9350   25.6896 H   0  0  0  0  0  0  0  0  0  0  0  0
    8.7303   13.0175   25.7115 H   0  0  0  0  0  0  0  0  0  0  0  0
    7.1374   11.6192   21.9363 H   0  0  0  0  0  0  0  0  0  0  0  0
    6.3939   11.1045   23.4507 H   0  0  0  0  0  0  0  0  0  0  0  0
   11.2291   11.9458   22.5740 H   0  0  0  0  0  0  0  0  0  0  0  0
    9.4118   10.6918   26.2744 H   0  0  0  0  0  0  0  0  0  0  0  0
    7.8276    9.2999   22.5160 H   0  0  0  0  0  0  0  0  0  0  0  0
    6.9953   16.0157   20.3610 H   0  0  0  0  0  0  0  0  0  0  0  0
    5.9571   17.4109   20.0180 H   0  0  0  0  0  0  0  0  0  0  0  0
    7.0080   17.4250   21.4353 H   0  0  0  0  0  0  0  0  0  0  0  0
    3.5729   16.8660   22.8881 H   0  0  0  0  0  0  0  0  0  0  0  0
    3.9474   17.9116   21.5067 H   0  0  0  0  0  0  0  0  0  0  0  0
    4.9913   17.9086   22.9387 H   0  0  0  0  0  0  0  0  0  0  0  0
    3.9427   15.8143   19.9389 H   0  0  0  0  0  0  0  0  0  0  0  0
    4.9905   14.4404   20.3226 H   0  0  0  0  0  0  0  0  0  0  0  0
    6.7830   14.1057   24.5360 H   0  0  0  0  0  0  0  0  0  0  0  0
    5.5854   15.5915   23.6755 H   0  0  0  0  0  0  0  0  0  0  0  0
    2.8345   14.0901   20.8601 H   0  0  0  0  0  0  0  0  0  0  0  0
  1 16  1  0  0  0  0
  1 17  1  0  0  0  0
  1 18  2  0  0  0  0
  2  8  1  0  0  0  0
  2  9  1  0  0  0  0
  3  8  1  0  0  0  0
  3 10  1  0  0  0  0
  4  9  1  0  0  0  0
  4 10  1  0  0  0  0
  5  8  1  0  0  0  0
  5 11  1  0  0  0  0
  6  9  1  0  0  0  0
  6 11  1  0  0  0  0
  7 10  1  0  0  0  0
  7 11  1  0  0  0  0
 11 16  1  0  0  0  0
 12 15  1  0  0  0  0
 13 15  1  0  0  0  0
 14 15  1  0  0  0  0
 14 19  1  0  0  0  0
 15 17  1  0  0  0  0
  2 20  1  0  0  0  0
  2 21  1  0  0  0  0
  3 22  1  0  0  0  0
  3 23  1  0  0  0  0
  4 24  1  0  0  0  0
  4 25  1  0  0  0  0
  5 26  1  0  0  0  0
  5 27  1  0  0  0  0
  6 28  1  0  0  0  0
  6 29  1  0  0  0  0
  7 30  1  0  0  0  0
  7 31  1  0  0  0  0
  8 32  1  0  0  0  0
  9 33  1  0  0  0  0
 10 34  1  0  0  0  0
 12 35  1  0  0  0  0
 12 36  1  0  0  0  0
 12 37  1  0  0  0  0
 13 38  1  0  0  0  0
 13 39  1  0  0  0  0
 13 40  1  0  0  0  0
 14 41  1  0  0  0  0
 14 42  1  0  0  0  0
 16 43  1  0  0  0  0
 17 44  1  0  0  0  0
 19 45  1  0  0  0  0
M  END
> <id>
EN300-234855

> <smiles>
CC(C)(CO)NC(=O)NC1(CC2CC3CC(C2)C1)C3

> <MDLNUMBER>
MFCD01932301

> <IUPAC Name>
1-(adamantan-1-yl)-3-(1-hydroxy-2-methylpropan-2-yl)urea

> <CAS>
330202-17-0

> <Purity>
95

> <URL>
https://www.enaminestore.com/catalog/EN300-234855

> <ROCS_ShapeQuery>
x0446_0A_x1080_0A_x0929_0A_x0812_0A_x0719_0A_x1140_0A_x0528_0A_x0310_0A

> <ROCS_TanimotoCombo>
0.416 

> <ROCS_ShapeTanimoto>
0.210 

> <ROCS_ColorTanimoto>
0.206 

> <ROCS_RefTversky>
0.194 

> <ROCS_RefColorTversky>
0.236 

> <ROCS_RefTverskyCombo>
0.431 

> <ROCS_FitTversky>
1.615 

> <ROCS_FitColorTversky>
0.619 

> <ROCS_FitTverskyCombo>
2.234 

> <ROCS_ColorScore>
-8.491

> <ROCS_Overlap>
2295.030

> <ROCS_Rank>
291                 

$$$$
untitled-dbase-399384_0
  -OEChem-02082415563D

 29 31  0     0  0  0  0  0  0999 V2000
   12.8315   16.4815   21.7958 C   0  0  0  0  0  0  0  0  0  0  0  0
   13.5304   15.3544   22.2279 C   0  0  0  0  0  0  0  0  0  0  0  0
   11.4377   16.4606   21.7441 C   0  0  0  0  0  0  0  0  0  0  0  0
   12.8355   14.2063   22.6082 C   0  0  0  0  0  0  0  0  0  0  0  0
   10.7429   15.3125   22.1244 C   0  0  0  0  0  0  0  0  0  0  0  0
    7.5264   10.3421   24.5197 C   0  0  0  0  0  0  0  0  0  0  0  0
   11.4417   14.1853   22.5565 C   0  0  0  0  0  0  0  0  0  0  0  0
    7.6187   11.7310   24.3733 C   0  0  0  0  0  0  0  0  0  0  0  0
    8.8608   11.9461   23.8212 C   0  0  0  0  0  0  0  0  0  0  0  0
   11.4036   11.6570   22.7442 C   0  0  0  0  0  0  0  0  0  0  0  0
   10.7011   12.9614   22.9618 C   0  0  0  0  0  0  0  0  0  0  0  0
   10.7316   10.5555   23.1159 C   0  0  0  0  0  0  0  0  0  0  0  0
    6.5773   12.7709   24.7427 C   0  0  0  0  0  0  0  0  0  0  0  0
   11.3045    9.1791   22.9577 C   0  0  0  0  0  0  0  0  0  0  0  0
    8.6166    9.7039   24.0984 N   0  0  0  0  0  0  0  0  0  0  0  0
    9.5041   13.0887   23.4582 N   0  0  0  0  0  0  0  0  0  0  0  0
    9.4488   10.6909   23.6642 N   0  0  0  0  0  0  0  0  0  0  0  0
    5.4936   12.3461   25.2421 O   0  5  0  0  0  0  0  0  0  0  0  0
    6.8726   13.9828   24.5227 O   0  0  0  0  0  0  0  0  0  0  0  0
   12.5358    9.2305   22.4113 F   0  0  0  0  0  0  0  0  0  0  0  0
   11.4056    8.5581   24.1500 F   0  0  0  0  0  0  0  0  0  0  0  0
   10.5281    8.4191   22.1594 F   0  0  0  0  0  0  0  0  0  0  0  0
   13.3726   17.3754   21.4997 H   0  0  0  0  0  0  0  0  0  0  0  0
   14.6156   15.3708   22.2679 H   0  0  0  0  0  0  0  0  0  0  0  0
   10.8936   17.3384   21.4080 H   0  0  0  0  0  0  0  0  0  0  0  0
   13.3901   13.3335   22.9433 H   0  0  0  0  0  0  0  0  0  0  0  0
    9.6568   15.3075   22.0800 H   0  0  0  0  0  0  0  0  0  0  0  0
    6.7078    9.7599   24.9185 H   0  0  0  0  0  0  0  0  0  0  0  0
   12.3968   11.6370   22.3137 H   0  0  0  0  0  0  0  0  0  0  0  0
  1  2  1  0  0  0  0
  1  3  2  0  0  0  0
  2  4  2  0  0  0  0
  3  5  1  0  0  0  0
  4  7  1  0  0  0  0
  5  7  2  0  0  0  0
  6  8  1  0  0  0  0
  6 15  2  0  0  0  0
  7 11  1  0  0  0  0
  8  9  2  0  0  0  0
  8 13  1  0  0  0  0
  9 16  1  0  0  0  0
  9 17  1  0  0  0  0
 10 11  1  0  0  0  0
 10 12  2  0  0  0  0
 11 16  2  0  0  0  0
 12 14  1  0  0  0  0
 12 17  1  0  0  0  0
 13 18  1  0  0  0  0
 13 19  2  0  0  0  0
 14 20  1  0  0  0  0
 14 21  1  0  0  0  0
 14 22  1  0  0  0  0
 15 17  1  0  0  0  0
  1 23  1  0  0  0  0
  2 24  1  0  0  0  0
  3 25  1  0  0  0  0
  4 26  1  0  0  0  0
  5 27  1  0  0  0  0
  6 28  1  0  0  0  0
 10 29  1  0  0  0  0
M  CHG  1  18  -1
M  END
> <id>
EN300-255480

> <smiles>
[Na+].[O-]C(=O)C=1C=NN2C(=CC(=NC12)C=3C=CC=CC3)C(F)(F)F

> <MDLNUMBER>
MFCD04971106

> <IUPAC Name>
sodium 5-phenyl-7-(trifluoromethyl)pyrazolo[1,5-a]pyrimidine-3-carboxylate

> <CAS>
1147198-16-0

> <Purity>
95

> <URL>
https://www.enaminestore.com/catalog/EN300-255480

> <Saltdate>
[Na+]

> <ROCS_ShapeQuery>
x0446_0A_x1080_0A_x0929_0A_x0812_0A_x0719_0A_x1140_0A_x0528_0A_x0310_0A

> <ROCS_TanimotoCombo>
0.416 

> <ROCS_ShapeTanimoto>
0.262 

> <ROCS_ColorTanimoto>
0.154 

> <ROCS_RefTversky>
0.236 

> <ROCS_RefColorTversky>
0.169 

> <ROCS_RefTverskyCombo>
0.405 

> <ROCS_FitTversky>
1.733 

> <ROCS_FitColorTversky>
0.636 

> <ROCS_FitTverskyCombo>
2.369 

> <ROCS_ColorScore>
-6.040

> <ROCS_Overlap>
2785.907

> <ROCS_Rank>
292                 

$$$$
untitled-dbase-327829_1
  -OEChem-02082415563D

 45 47  0     1  0  0  0  0  0999 V2000
   13.1062   16.1016   22.1847 C   0  0  0  0  0  0  0  0  0  0  0  0
   11.7970   16.5732   22.2800 C   0  0  0  0  0  0  0  0  0  0  0  0
   13.3471   14.7340   22.0528 C   0  0  0  0  0  0  0  0  0  0  0  0
   10.7286   15.6773   22.2434 C   0  0  0  0  0  0  0  0  0  0  0  0
   12.2786   13.8380   22.0163 C   0  0  0  0  0  0  0  0  0  0  0  0
   10.9694   14.3097   22.1116 C   0  0  0  0  0  0  0  0  0  0  0  0
    7.0582   13.3600   23.4341 C   0  0  0  0  0  0  0  0  0  0  0  0
    8.2232   11.7049   24.9389 C   0  0  0  0  0  0  0  0  0  0  0  0
   10.3536   11.8009   23.8859 C   0  0  0  0  0  0  0  0  0  0  0  0
    7.8825   11.0455   22.7010 C   0  0  0  0  0  0  0  0  0  0  0  0
    9.3576   10.8008   24.4988 C   0  0  2  0  0  0  0  0  0  0  0  0
    8.1007   12.3046   23.5467 C   0  0  1  0  0  0  0  0  0  0  0  0
    6.1137   15.7293   22.1729 C   0  0  0  0  0  0  0  0  0  0  0  0
    5.1024   14.1939   20.4614 C   0  0  0  0  0  0  0  0  0  0  0  0
    4.3557   14.0626   22.8558 C   0  0  0  0  0  0  0  0  0  0  0  0
    9.8198   13.3447   22.0724 C   0  0  0  0  0  0  0  0  0  0  0  0
    5.5313   14.3394   21.9198 C   0  0  0  0  0  0  0  0  0  0  0  0
    8.7159   10.0411   23.3993 N   0  0  0  0  0  0  0  0  0  0  0  0
    9.4576   12.8752   23.4009 N   0  0  2  0  0  0  0  0  0  0  0  0
    6.7261   14.0958   24.3535 O   0  0  0  0  0  0  0  0  0  0  0  0
    6.5507   13.3663   22.1686 O   0  0  0  0  0  0  0  0  0  0  0  0
   13.9380   16.7995   22.2119 H   0  0  0  0  0  0  0  0  0  0  0  0
   11.6093   17.6382   22.3816 H   0  0  0  0  0  0  0  0  0  0  0  0
   14.3662   14.3665   21.9775 H   0  0  0  0  0  0  0  0  0  0  0  0
    9.7118   16.0538   22.3185 H   0  0  0  0  0  0  0  0  0  0  0  0
   12.4758   12.7742   21.9134 H   0  0  0  0  0  0  0  0  0  0  0  0
    7.3252   11.1698   25.2713 H   0  0  0  0  0  0  0  0  0  0  0  0
    8.5084   12.4257   25.7152 H   0  0  0  0  0  0  0  0  0  0  0  0
   11.0184   12.2104   24.6540 H   0  0  0  0  0  0  0  0  0  0  0  0
   10.9649   11.3361   23.1028 H   0  0  0  0  0  0  0  0  0  0  0  0
    6.8313   10.7330   22.7143 H   0  0  0  0  0  0  0  0  0  0  0  0
    8.1804   11.1507   21.6545 H   0  0  0  0  0  0  0  0  0  0  0  0
    9.7842   10.1588   25.2722 H   0  0  0  0  0  0  0  0  0  0  0  0
    6.4227   15.8378   23.2187 H   0  0  0  0  0  0  0  0  0  0  0  0
    6.9793   15.9267   21.5322 H   0  0  0  0  0  0  0  0  0  0  0  0
    5.3632   16.5069   21.9901 H   0  0  0  0  0  0  0  0  0  0  0  0
    4.6840   13.1982   20.2753 H   0  0  0  0  0  0  0  0  0  0  0  0
    5.9621   14.2979   19.7895 H   0  0  0  0  0  0  0  0  0  0  0  0
    4.3530   14.9423   20.1840 H   0  0  0  0  0  0  0  0  0  0  0  0
    3.9378   13.0658   22.6745 H   0  0  0  0  0  0  0  0  0  0  0  0
    4.6537   14.1264   23.9074 H   0  0  0  0  0  0  0  0  0  0  0  0
    3.5419   14.7756   22.6807 H   0  0  0  0  0  0  0  0  0  0  0  0
    8.9358   13.8152   21.6283 H   0  0  0  0  0  0  0  0  0  0  0  0
   10.0629   12.4684   21.4623 H   0  0  0  0  0  0  0  0  0  0  0  0
    8.1021    9.3325   23.8025 H   0  0  0  0  0  0  0  0  0  0  0  0
  1  2  1  0  0  0  0
  1  3  2  0  0  0  0
  2  4  2  0  0  0  0
  3  5  1  0  0  0  0
  4  6  1  0  0  0  0
  5  6  2  0  0  0  0
  6 16  1  0  0  0  0
  7 12  1  0  0  0  0
  7 20  2  0  0  0  0
  7 21  1  0  0  0  0
  8 11  1  0  0  0  0
  8 12  1  0  0  0  0
  9 11  1  0  0  0  0
  9 19  1  0  0  0  0
 10 12  1  0  0  0  0
 10 18  1  0  0  0  0
 11 18  1  0  0  0  0
 12 19  1  0  0  0  0
 13 17  1  0  0  0  0
 14 17  1  0  0  0  0
 15 17  1  0  0  0  0
 16 19  1  0  0  0  0
 17 21  1  0  0  0  0
  1 22  1  0  0  0  0
  2 23  1  0  0  0  0
  3 24  1  0  0  0  0
  4 25  1  0  0  0  0
  5 26  1  0  0  0  0
  8 27  1  0  0  0  0
  8 28  1  0  0  0  0
  9 29  1  0  0  0  0
  9 30  1  0  0  0  0
 10 31  1  0  0  0  0
 10 32  1  0  0  0  0
 11 33  1  0  0  0  0
 13 34  1  0  0  0  0
 13 35  1  0  0  0  0
 13 36  1  0  0  0  0
 14 37  1  0  0  0  0
 14 38  1  0  0  0  0
 14 39  1  0  0  0  0
 15 40  1  0  0  0  0
 15 41  1  0  0  0  0
 15 42  1  0  0  0  0
 16 43  1  0  0  0  0
 16 44  1  0  0  0  0
 18 45  1  0  0  0  0
M  END
> <id>
EN300-37101993

> <smiles>
CC(C)(C)OC(=O)C1(CNC2CN1CC=3C=CC=CC3)C2

> <IUPAC Name>
tert-butyl 2-benzyl-2,5-diazabicyclo[2.2.1]heptane-1-carboxylate

> <CAS>
2757894-64-5

> <URL>
https://www.enaminestore.com/catalog/EN300-37101993

> <ROCS_ShapeQuery>
x0446_0A_x1080_0A_x0929_0A_x0812_0A_x0719_0A_x1140_0A_x0528_0A_x0310_0A

> <ROCS_TanimotoCombo>
0.416 

> <ROCS_ShapeTanimoto>
0.242 

> <ROCS_ColorTanimoto>
0.174 

> <ROCS_RefTversky>
0.220 

> <ROCS_RefColorTversky>
0.204 

> <ROCS_RefTverskyCombo>
0.424 

> <ROCS_FitTversky>
1.703 

> <ROCS_FitColorTversky>
0.539 

> <ROCS_FitTverskyCombo>
2.242 

> <ROCS_ColorScore>
-7.340

> <ROCS_Overlap>
2600.173

> <ROCS_Rank>
293                 

$$$$
untitled-dbase-436278_3
  -OEChem-02082415563D

 39 42  0     1  0  0  0  0  0999 V2000
    8.4693   14.7464   21.2756 C   0  0  0  0  0  0  0  0  0  0  0  0
    9.1593    9.8737   24.0872 C   0  0  0  0  0  0  0  0  0  0  0  0
   10.0107   13.0453   22.2300 C   0  0  0  0  0  0  0  0  0  0  0  0
    7.7631   12.3487   21.6053 C   0  0  0  0  0  0  0  0  0  0  0  0
    9.9541   11.2004   24.1183 C   0  0  1  0  0  0  0  0  0  0  0  0
    7.8836   10.5578   23.5421 C   0  0  2  0  0  0  0  0  0  0  0  0
    9.8771   11.5851   22.6205 C   0  0  1  0  0  0  0  0  0  0  0  0
    8.4445   11.1408   22.2217 C   0  0  2  0  0  0  0  0  0  0  0  0
    9.0498   12.0335   25.0102 C   0  0  2  0  0  0  0  0  0  0  0  0
    7.6567   11.6012   24.6225 C   0  0  1  0  0  0  0  0  0  0  0  0
    7.0322   17.2134   21.4085 C   0  0  0  0  0  0  0  0  0  0  0  0
    5.0106   15.8565   20.7910 C   0  0  0  0  0  0  0  0  0  0  0  0
    6.2257   15.3845   22.9379 C   0  0  0  0  0  0  0  0  0  0  0  0
    6.3703   15.8384   21.4861 C   0  0  0  0  0  0  0  0  0  0  0  0
    8.7227   13.4446   21.6826 N   0  0  0  0  0  0  0  0  0  0  0  0
    9.2882   15.6607   21.3378 O   0  0  0  0  0  0  0  0  0  0  0  0
    8.1125   12.9341   24.4368 O   0  0  0  0  0  0  0  0  0  0  0  0
    7.1962   14.8955   20.7937 O   0  0  0  0  0  0  0  0  0  0  0  0
    9.5806    9.1212   23.4125 H   0  0  0  0  0  0  0  0  0  0  0  0
    9.0162    9.4409   25.0840 H   0  0  0  0  0  0  0  0  0  0  0  0
   10.2905   13.7062   23.0563 H   0  0  0  0  0  0  0  0  0  0  0  0
   10.7588   13.1745   21.4394 H   0  0  0  0  0  0  0  0  0  0  0  0
    7.5425   12.1774   20.5456 H   0  0  0  0  0  0  0  0  0  0  0  0
    6.8264   12.6298   22.0967 H   0  0  0  0  0  0  0  0  0  0  0  0
   10.9727   11.1072   24.5010 H   0  0  0  0  0  0  0  0  0  0  0  0
    7.0343    9.8851   23.4049 H   0  0  0  0  0  0  0  0  0  0  0  0
   10.6088   10.9876   22.0601 H   0  0  0  0  0  0  0  0  0  0  0  0
    8.5109   10.3372   21.4760 H   0  0  0  0  0  0  0  0  0  0  0  0
    9.3055   12.0733   26.0574 H   0  0  0  0  0  0  0  0  0  0  0  0
    6.9596   11.3448   25.4047 H   0  0  0  0  0  0  0  0  0  0  0  0
    8.0085   17.2046   21.9063 H   0  0  0  0  0  0  0  0  0  0  0  0
    7.1735   17.5351   20.3715 H   0  0  0  0  0  0  0  0  0  0  0  0
    6.4284   17.9678   21.9257 H   0  0  0  0  0  0  0  0  0  0  0  0
    4.5321   14.8719   20.8443 H   0  0  0  0  0  0  0  0  0  0  0  0
    5.1200   16.0893   19.7256 H   0  0  0  0  0  0  0  0  0  0  0  0
    4.3373   16.5939   21.2398 H   0  0  0  0  0  0  0  0  0  0  0  0
    5.7509   14.3982   22.9938 H   0  0  0  0  0  0  0  0  0  0  0  0
    7.1960   15.3300   23.4420 H   0  0  0  0  0  0  0  0  0  0  0  0
    5.5802   16.0705   23.4982 H   0  0  0  0  0  0  0  0  0  0  0  0
  1 15  1  0  0  0  0
  1 16  2  0  0  0  0
  1 18  1  0  0  0  0
  2  5  1  1  0  0  0
  2  6  1  1  0  0  0
  3  7  1  6  0  0  0
  3 15  1  0  0  0  0
  4  8  1  6  0  0  0
  4 15  1  0  0  0  0
  5  7  1  0  0  0  0
  5  9  1  0  0  0  0
  6  8  1  0  0  0  0
  6 10  1  0  0  0  0
  7  8  1  0  0  0  0
  9 10  1  0  0  0  0
  9 17  1  6  0  0  0
 10 17  1  6  0  0  0
 11 14  1  0  0  0  0
 12 14  1  0  0  0  0
 13 14  1  0  0  0  0
 14 18  1  0  0  0  0
  2 19  1  0  0  0  0
  2 20  1  0  0  0  0
  3 21  1  0  0  0  0
  3 22  1  0  0  0  0
  4 23  1  0  0  0  0
  4 24  1  0  0  0  0
  5 25  1  0  0  0  0
  6 26  1  0  0  0  0
  7 27  1  0  0  0  0
  8 28  1  0  0  0  0
  9 29  1  0  0  0  0
 10 30  1  0  0  0  0
 11 31  1  0  0  0  0
 11 32  1  0  0  0  0
 11 33  1  0  0  0  0
 12 34  1  0  0  0  0
 12 35  1  0  0  0  0
 12 36  1  0  0  0  0
 13 37  1  0  0  0  0
 13 38  1  0  0  0  0
 13 39  1  0  0  0  0
M  END
> <id>
EN300-383916

> <smiles>
CC(C)(C)OC(=O)N1C[C@H]2[C@@H]3C[C@@H]([C@@H]4O[C@@H]43)[C@H]2C1

> <MDLNUMBER>
MFCD30750666

> <IUPAC Name>
tert-butyl (1R,2S,6R,7S,8R,10S)-9-oxa-4-azatetracyclo[5.3.1.0^{2,6}.0^{8,10}]undecane-4-carboxylate

> <CAS>
2126143-04-0

> <Purity>
95

> <URL>
https://www.enaminestore.com/catalog/EN300-383916

> <ROCS_ShapeQuery>
x0446_0A_x1080_0A_x0929_0A_x0812_0A_x0719_0A_x1140_0A_x0528_0A_x0310_0A

> <ROCS_TanimotoCombo>
0.416 

> <ROCS_ShapeTanimoto>
0.213 

> <ROCS_ColorTanimoto>
0.203 

> <ROCS_RefTversky>
0.197 

> <ROCS_RefColorTversky>
0.272 

> <ROCS_RefTverskyCombo>
0.468 

> <ROCS_FitTversky>
1.645 

> <ROCS_FitColorTversky>
0.444 

> <ROCS_FitTverskyCombo>
2.090 

> <ROCS_ColorScore>
-9.885

> <ROCS_Overlap>
2323.365

> <ROCS_Rank>
294                 

$$$$
untitled-dbase-64862_6
  -OEChem-02082415563D

 37 38  0     1  0  0  0  0  0999 V2000
    9.4159   11.3437   22.6036 C   0  0  0  0  0  0  0  0  0  0  0  0
    9.3720    9.9853   23.2749 C   0  0  0  0  0  0  0  0  0  0  0  0
    7.4311   10.8852   24.5574 C   0  0  0  0  0  0  0  0  0  0  0  0
    7.5284   12.2360   23.8134 C   0  0  0  0  0  0  0  0  0  0  0  0
    8.9111   10.4413   24.6815 C   0  0  2  0  0  0  0  0  0  0  0  0
    9.0528   12.4200   23.6320 C   0  0  1  0  0  0  0  0  0  0  0  0
    9.6601   11.7834   24.9125 C   0  0  0  0  0  0  0  0  0  0  0  0
    9.2823   12.4872   26.2304 C   0  0  0  0  0  0  0  0  0  0  0  0
   11.1977   11.6628   24.9041 C   0  0  0  0  0  0  0  0  0  0  0  0
    5.6086   15.7477   21.6261 C   0  0  0  0  0  0  0  0  0  0  0  0
    9.4890   13.8172   23.2628 C   0  0  0  0  0  0  0  0  0  0  0  0
    6.4658   16.2216   22.7803 C   0  0  0  0  0  0  0  0  0  0  0  0
    9.6786   11.5331   21.4262 O   0  0  0  0  0  0  0  0  0  0  0  0
    9.0801   15.6471   21.4365 O   0  0  0  0  0  0  0  0  0  0  0  0
    7.7412   13.4971   21.3408 O   0  0  0  0  0  0  0  0  0  0  0  0
    7.3277   15.1671   23.1795 O   0  0  0  0  0  0  0  0  0  0  0  0
    8.3887   14.5543   22.0969 S   0  0  0  0  0  0  0  0  0  0  0  0
    8.6515    9.3262   22.7854 H   0  0  0  0  0  0  0  0  0  0  0  0
   10.3664    9.5341   23.2894 H   0  0  0  0  0  0  0  0  0  0  0  0
    6.9693   11.0170   25.5416 H   0  0  0  0  0  0  0  0  0  0  0  0
    6.8226   10.1614   24.0051 H   0  0  0  0  0  0  0  0  0  0  0  0
    6.9974   12.1922   22.8553 H   0  0  0  0  0  0  0  0  0  0  0  0
    7.0800   13.0398   24.4071 H   0  0  0  0  0  0  0  0  0  0  0  0
    9.0660    9.6788   25.4488 H   0  0  0  0  0  0  0  0  0  0  0  0
    9.8453   13.4099   26.3145 H   0  0  0  0  0  0  0  0  0  0  0  0
    9.5203   11.8345   27.0626 H   0  0  0  0  0  0  0  0  0  0  0  0
    8.2200   12.7041   26.2255 H   0  0  0  0  0  0  0  0  0  0  0  0
   11.6306   12.6421   25.0718 H   0  0  0  0  0  0  0  0  0  0  0  0
   11.5174   11.2785   23.9426 H   0  0  0  0  0  0  0  0  0  0  0  0
   11.5039   10.9848   25.6922 H   0  0  0  0  0  0  0  0  0  0  0  0
    6.2281   15.4610   20.7718 H   0  0  0  0  0  0  0  0  0  0  0  0
    4.9993   14.8884   21.9252 H   0  0  0  0  0  0  0  0  0  0  0  0
    4.9156   16.5351   21.3115 H   0  0  0  0  0  0  0  0  0  0  0  0
   10.4835   13.8118   22.8058 H   0  0  0  0  0  0  0  0  0  0  0  0
    9.5088   14.4691   24.1415 H   0  0  0  0  0  0  0  0  0  0  0  0
    5.8401   16.5068   23.6313 H   0  0  0  0  0  0  0  0  0  0  0  0
    7.0745   17.0796   22.4795 H   0  0  0  0  0  0  0  0  0  0  0  0
  1  2  1  0  0  0  0
  1  6  1  0  0  0  0
  1 13  2  0  0  0  0
  2  5  1  0  0  0  0
  3  4  1  0  0  0  0
  3  5  1  0  0  0  0
  4  6  1  0  0  0  0
  5  7  1  0  0  0  0
  6  7  1  0  0  0  0
  6 11  1  0  0  0  0
  7  8  1  0  0  0  0
  7  9  1  0  0  0  0
 10 12  1  0  0  0  0
 11 17  1  0  0  0  0
 12 16  1  0  0  0  0
 14 17  2  0  0  0  0
 15 17  2  0  0  0  0
 16 17  1  0  0  0  0
  2 18  1  0  0  0  0
  2 19  1  0  0  0  0
  3 20  1  0  0  0  0
  3 21  1  0  0  0  0
  4 22  1  0  0  0  0
  4 23  1  0  0  0  0
  5 24  1  0  0  0  0
  8 25  1  0  0  0  0
  8 26  1  0  0  0  0
  8 27  1  0  0  0  0
  9 28  1  0  0  0  0
  9 29  1  0  0  0  0
  9 30  1  0  0  0  0
 10 31  1  0  0  0  0
 10 32  1  0  0  0  0
 10 33  1  0  0  0  0
 11 34  1  0  0  0  0
 11 35  1  0  0  0  0
 12 36  1  0  0  0  0
 12 37  1  0  0  0  0
M  END
> <id>
EN300-266605

> <smiles>
CCOS(=O)(=O)CC1(CCC2CC1=O)C2(C)C

> <MDLNUMBER>
MFCD29918886

> <IUPAC Name>
ethyl {7,7-dimethyl-2-oxobicyclo[2.2.1]heptan-1-yl}methanesulfonate

> <CAS>
108481-13-6

> <URL>
https://www.enaminestore.com/catalog/EN300-266605

> <ROCS_ShapeQuery>
x0446_0A_x1080_0A_x0929_0A_x0812_0A_x0719_0A_x1140_0A_x0528_0A_x0310_0A

> <ROCS_TanimotoCombo>
0.416 

> <ROCS_ShapeTanimoto>
0.212 

> <ROCS_ColorTanimoto>
0.204 

> <ROCS_RefTversky>
0.194 

> <ROCS_RefColorTversky>
0.225 

> <ROCS_RefTverskyCombo>
0.419 

> <ROCS_FitTversky>
1.748 

> <ROCS_FitColorTversky>
0.690 

> <ROCS_FitTverskyCombo>
2.438 

> <ROCS_ColorScore>
-8.068

> <ROCS_Overlap>
2289.255

> <ROCS_Rank>
295                 

$$$$
untitled-dbase-523985_3
  -OEChem-02082415563D

 33 35  0     1  0  0  0  0  0999 V2000
    7.6839   11.0902   24.0921 C   0  0  0  0  0  0  0  0  0  0  0  0
    8.3978   12.2297   23.8102 C   0  0  0  0  0  0  0  0  0  0  0  0
    9.6412   10.4239   23.6577 C   0  0  0  0  0  0  0  0  0  0  0  0
    6.2926   11.2003   24.4331 C   0  0  0  0  0  0  0  0  0  0  0  0
    6.7089   13.6458   24.1098 C   0  0  0  0  0  0  0  0  0  0  0  0
   11.6894   14.2251   21.6908 C   0  0  1  0  0  0  0  0  0  0  0  0
   10.8967   12.9331   21.6803 C   0  0  2  0  0  0  0  0  0  0  0  0
   11.1400   14.9338   22.9249 C   0  0  1  0  0  0  0  0  0  0  0  0
   10.8034   12.6232   23.1666 C   0  0  2  0  0  0  0  0  0  0  0  0
    9.9439   15.8230   22.6154 C   0  0  0  0  0  0  0  0  0  0  0  0
    8.4521    9.9675   23.9988 N   0  0  0  0  0  0  0  0  0  0  0  0
    7.9808   13.5150   23.8006 N   0  0  0  0  0  0  0  0  0  0  0  0
    9.6587   11.7914   23.5308 N   0  0  0  0  0  0  0  0  0  0  0  0
    5.8808   12.5403   24.4173 N   0  0  0  0  0  0  0  0  0  0  0  0
    6.0938   14.8699   24.1562 N   0  0  0  0  0  0  0  0  0  0  0  0
    5.5784   10.2418   24.6989 O   0  0  0  0  0  0  0  0  0  0  0  0
   10.7125   13.8953   23.8365 O   0  0  0  0  0  0  0  0  0  0  0  0
   13.0708   13.9342   21.9038 O   0  0  0  0  0  0  0  0  0  0  0  0
   11.5374   11.8964   20.9651 O   0  0  0  0  0  0  0  0  0  0  0  0
    9.1220   15.1641   21.6679 O   0  0  0  0  0  0  0  0  0  0  0  0
   11.1385    9.2784   23.3821 Br  0  0  0  0  0  0  0  0  0  0  0  0
   11.6061   14.7939   20.7596 H   0  0  0  0  0  0  0  0  0  0  0  0
    9.9042   13.1007   21.2456 H   0  0  0  0  0  0  0  0  0  0  0  0
   11.9134   15.5232   23.4365 H   0  0  0  0  0  0  0  0  0  0  0  0
   11.7024   12.0823   23.5435 H   0  0  0  0  0  0  0  0  0  0  0  0
   10.2811   16.7730   22.1981 H   0  0  0  0  0  0  0  0  0  0  0  0
    9.3679   16.0065   23.5235 H   0  0  0  0  0  0  0  0  0  0  0  0
    4.9096   12.7332   24.6449 H   0  0  0  0  0  0  0  0  0  0  0  0
    6.6351   15.6768   23.9480 H   0  0  0  0  0  0  0  0  0  0  0  0
    5.1302   14.9039   24.3962 H   0  0  0  0  0  0  0  0  0  0  0  0
   13.5331   14.7859   21.9024 H   0  0  0  0  0  0  0  0  0  0  0  0
   10.9604   11.1140   21.0124 H   0  0  0  0  0  0  0  0  0  0  0  0
    8.3682   15.7510   21.4881 H   0  0  0  0  0  0  0  0  0  0  0  0
  1  2  2  0  0  0  0
  1  4  1  0  0  0  0
  1 11  1  0  0  0  0
  2 12  1  0  0  0  0
  2 13  1  0  0  0  0
  3 11  2  0  0  0  0
  3 13  1  0  0  0  0
  3 21  1  0  0  0  0
  4 14  1  0  0  0  0
  4 16  2  0  0  0  0
  5 12  2  0  0  0  0
  5 14  1  0  0  0  0
  5 15  1  0  0  0  0
  6  7  1  0  0  0  0
  6  8  1  0  0  0  0
  6 18  1  1  0  0  0
  7  9  1  0  0  0  0
  7 19  1  1  0  0  0
  8 10  1  6  0  0  0
  8 17  1  0  0  0  0
  9 13  1  6  0  0  0
  9 17  1  0  0  0  0
 10 20  1  0  0  0  0
  6 22  1  0  0  0  0
  7 23  1  0  0  0  0
  8 24  1  0  0  0  0
  9 25  1  0  0  0  0
 10 26  1  0  0  0  0
 10 27  1  0  0  0  0
 14 28  1  0  0  0  0
 15 29  1  0  0  0  0
 15 30  1  0  0  0  0
 18 31  1  0  0  0  0
 19 32  1  0  0  0  0
 20 33  1  0  0  0  0
M  END
> <id>
EN300-30595405

> <smiles>
NC1=NC=2N([C@@H]3O[C@H](CO)[C@@H](O)[C@H]3O)C(Br)=NC2C(=O)N1

> <MDLNUMBER>
MFCD00010535

> <IUPAC Name>
2-amino-8-bromo-9-[(2R,3R,4S,5R)-3,4-dihydroxy-5-(hydroxymethyl)oxolan-2-yl]-6,9-dihydro-1H-purin-6-one

> <CAS>
4016-63-1

> <Purity>
95

> <URL>
https://www.enaminestore.com/catalog/EN300-30595405

> <MP>
198-200

> <ROCS_ShapeQuery>
x0446_0A_x1080_0A_x0929_0A_x0812_0A_x0719_0A_x1140_0A_x0528_0A_x0310_0A

> <ROCS_TanimotoCombo>
0.416 

> <ROCS_ShapeTanimoto>
0.262 

> <ROCS_ColorTanimoto>
0.154 

> <ROCS_RefTversky>
0.235 

> <ROCS_RefColorTversky>
0.204 

> <ROCS_RefTverskyCombo>
0.438 

> <ROCS_FitTversky>
1.798 

> <ROCS_FitColorTversky>
0.388 

> <ROCS_FitTverskyCombo>
2.186 

> <ROCS_ColorScore>
-7.375

> <ROCS_Overlap>
2771.103

> <ROCS_Rank>
296                 

$$$$
untitled-dbase-504881_1
  -OEChem-02082415563D

 42 44  0     1  0  0  0  0  0999 V2000
    6.0776   12.1730   24.4192 C   0  0  0  0  0  0  0  0  0  0  0  0
   10.1558   15.0595   22.4051 C   0  0  0  0  0  0  0  0  0  0  0  0
    7.5116   11.0842   22.6973 C   0  0  0  0  0  0  0  0  0  0  0  0
    8.1441   11.0019   25.1263 C   0  0  0  0  0  0  0  0  0  0  0  0
    8.2940   13.1681   23.8630 C   0  0  0  0  0  0  0  0  0  0  0  0
    9.6091    9.8977   23.4083 C   0  0  0  0  0  0  0  0  0  0  0  0
    9.7585   12.0648   22.1422 C   0  0  0  0  0  0  0  0  0  0  0  0
   10.3925   11.9824   24.5749 C   0  0  0  0  0  0  0  0  0  0  0  0
    7.4942   11.8616   24.0267 C   0  0  0  0  0  0  0  0  0  0  0  0
    8.9632   10.7465   22.2886 C   0  0  2  0  0  0  0  0  0  0  0  0
    9.6049   10.6628   24.7522 C   0  0  1  0  0  0  0  0  0  0  0  0
    9.7513   12.8500   23.4715 C   0  0  0  0  0  0  0  0  0  0  0  0
   11.0613   16.2461   22.4220 C   0  0  0  0  0  0  0  0  0  0  0  0
    8.9742    9.9731   20.9665 C   0  0  0  0  0  0  0  0  0  0  0  0
   10.2471    9.8082   25.8490 C   0  0  0  0  0  0  0  0  0  0  0  0
   10.4961   14.0828   23.3190 N   0  0  0  0  0  0  0  0  0  0  0  0
    5.5374   11.8022   25.4507 O   0  0  0  0  0  0  0  0  0  0  0  0
    9.2141   15.0292   21.6215 O   0  0  0  0  0  0  0  0  0  0  0  0
    5.4714   12.9243   23.4677 O   0  0  0  0  0  0  0  0  0  0  0  0
    6.9228   10.1614   22.7920 H   0  0  0  0  0  0  0  0  0  0  0  0
    7.0231   11.6752   21.9103 H   0  0  0  0  0  0  0  0  0  0  0  0
    8.1129   11.5334   26.0875 H   0  0  0  0  0  0  0  0  0  0  0  0
    7.5665   10.0787   25.2730 H   0  0  0  0  0  0  0  0  0  0  0  0
    7.8224   13.8015   23.0993 H   0  0  0  0  0  0  0  0  0  0  0  0
    8.2697   13.7434   24.7991 H   0  0  0  0  0  0  0  0  0  0  0  0
    9.0661    8.9492   23.5176 H   0  0  0  0  0  0  0  0  0  0  0  0
   10.6391    9.6358   23.1310 H   0  0  0  0  0  0  0  0  0  0  0  0
   10.7918   11.8446   21.8417 H   0  0  0  0  0  0  0  0  0  0  0  0
    9.3194   12.6755   21.3415 H   0  0  0  0  0  0  0  0  0  0  0  0
   10.4106   12.5335   25.5252 H   0  0  0  0  0  0  0  0  0  0  0  0
   11.4374   11.7604   24.3186 H   0  0  0  0  0  0  0  0  0  0  0  0
   11.9118   16.1360   21.7302 H   0  0  0  0  0  0  0  0  0  0  0  0
   10.5492   17.1702   22.1090 H   0  0  0  0  0  0  0  0  0  0  0  0
   11.5116   16.4815   23.3996 H   0  0  0  0  0  0  0  0  0  0  0  0
    9.9993    9.7408   20.6884 H   0  0  0  0  0  0  0  0  0  0  0  0
    8.5178   10.5777   20.1866 H   0  0  0  0  0  0  0  0  0  0  0  0
    8.4134    9.0485   21.0802 H   0  0  0  0  0  0  0  0  0  0  0  0
   11.2736    9.5754   25.5761 H   0  0  0  0  0  0  0  0  0  0  0  0
    9.6872    8.8835   25.9657 H   0  0  0  0  0  0  0  0  0  0  0  0
   10.2394   10.3549   26.7889 H   0  0  0  0  0  0  0  0  0  0  0  0
   11.3051   14.2355   23.9113 H   0  0  0  0  0  0  0  0  0  0  0  0
    4.5435   13.1370   23.7048 H   0  0  0  0  0  0  0  0  0  0  0  0
  1  9  1  0  0  0  0
  1 17  2  0  0  0  0
  1 19  1  0  0  0  0
  2 13  1  0  0  0  0
  2 16  1  0  0  0  0
  2 18  2  0  0  0  0
  3  9  1  0  0  0  0
  3 10  1  0  0  0  0
  4  9  1  0  0  0  0
  4 11  1  0  0  0  0
  5  9  1  0  0  0  0
  5 12  1  0  0  0  0
  6 10  1  0  0  0  0
  6 11  1  0  0  0  0
  7 10  1  0  0  0  0
  7 12  1  0  0  0  0
  8 11  1  0  0  0  0
  8 12  1  0  0  0  0
 10 14  1  0  0  0  0
 11 15  1  0  0  0  0
 12 16  1  0  0  0  0
  3 20  1  0  0  0  0
  3 21  1  0  0  0  0
  4 22  1  0  0  0  0
  4 23  1  0  0  0  0
  5 24  1  0  0  0  0
  5 25  1  0  0  0  0
  6 26  1  0  0  0  0
  6 27  1  0  0  0  0
  7 28  1  0  0  0  0
  7 29  1  0  0  0  0
  8 30  1  0  0  0  0
  8 31  1  0  0  0  0
 13 32  1  0  0  0  0
 13 33  1  0  0  0  0
 13 34  1  0  0  0  0
 14 35  1  0  0  0  0
 14 36  1  0  0  0  0
 14 37  1  0  0  0  0
 15 38  1  0  0  0  0
 15 39  1  0  0  0  0
 15 40  1  0  0  0  0
 16 41  1  0  0  0  0
 19 42  1  0  0  0  0
M  END
> <id>
EN300-28282220

> <smiles>
CC(=O)NC1(CC2(C)CC3(C)C1)CC(C2)(C3)C(=O)O

> <IUPAC Name>
3-acetamido-5,7-dimethyladamantane-1-carboxylic acid

> <CAS>
14670-98-5

> <URL>
https://www.enaminestore.com/catalog/EN300-28282220

> <ROCS_ShapeQuery>
x0446_0A_x1080_0A_x0929_0A_x0812_0A_x0719_0A_x1140_0A_x0528_0A_x0310_0A

> <ROCS_TanimotoCombo>
0.416 

> <ROCS_ShapeTanimoto>
0.234 

> <ROCS_ColorTanimoto>
0.182 

> <ROCS_RefTversky>
0.213 

> <ROCS_RefColorTversky>
0.208 

> <ROCS_RefTverskyCombo>
0.421 

> <ROCS_FitTversky>
1.754 

> <ROCS_FitColorTversky>
0.586 

> <ROCS_FitTverskyCombo>
2.340 

> <ROCS_ColorScore>
-7.475

> <ROCS_Overlap>
2513.117

> <ROCS_Rank>
297                 

$$$$
untitled-dbase-504767_0
  -OEChem-02082415563D

 29 30  0     1  0  0  0  0  0999 V2000
    7.4531   13.4287   22.9658 C   0  0  0  0  0  0  0  0  0  0  0  0
   10.5174   13.2446   23.0179 C   0  0  0  0  0  0  0  0  0  0  0  0
    8.2683   12.1666   25.0727 C   0  0  0  0  0  0  0  0  0  0  0  0
    8.6843   10.6885   25.2592 C   0  0  0  0  0  0  0  0  0  0  0  0
    7.6419   10.9405   23.1372 C   0  0  0  0  0  0  0  0  0  0  0  0
    9.9932   10.7716   23.0988 C   0  0  0  0  0  0  0  0  0  0  0  0
    8.2376   12.2986   23.5463 C   0  0  1  0  0  0  0  0  0  0  0  0
    8.7677   10.1514   23.8039 C   0  0  1  0  0  0  0  0  0  0  0  0
    8.6797    8.6478   23.6849 C   0  0  0  0  0  0  0  0  0  0  0  0
   11.8266   12.9561   22.3264 C   0  0  0  0  0  0  0  0  0  0  0  0
    9.6196   12.1891   23.0562 N   0  0  0  0  0  0  0  0  0  0  0  0
    7.3363   13.6617   21.7719 O   0  0  0  0  0  0  0  0  0  0  0  0
   10.3006   14.3605   23.4923 O   0  0  0  0  0  0  0  0  0  0  0  0
    6.8845   14.1707   23.9473 O   0  0  0  0  0  0  0  0  0  0  0  0
   11.8525   11.6898   21.8743 F   0  0  0  0  0  0  0  0  0  0  0  0
   12.0012   13.7818   21.2793 F   0  0  0  0  0  0  0  0  0  0  0  0
   12.8588   13.1235   23.1722 F   0  0  0  0  0  0  0  0  0  0  0  0
    7.2820   12.3475   25.5159 H   0  0  0  0  0  0  0  0  0  0  0  0
    8.9745   12.8555   25.5481 H   0  0  0  0  0  0  0  0  0  0  0  0
    9.6409   10.6013   25.7850 H   0  0  0  0  0  0  0  0  0  0  0  0
    7.9228   10.1582   25.8425 H   0  0  0  0  0  0  0  0  0  0  0  0
    6.6528   10.7487   23.5703 H   0  0  0  0  0  0  0  0  0  0  0  0
    7.5852   10.7999   22.0510 H   0  0  0  0  0  0  0  0  0  0  0  0
   10.9233   10.6212   23.6544 H   0  0  0  0  0  0  0  0  0  0  0  0
   10.1125   10.4182   22.0689 H   0  0  0  0  0  0  0  0  0  0  0  0
    8.7449    8.3394   22.6368 H   0  0  0  0  0  0  0  0  0  0  0  0
    7.7311    8.2837   24.0916 H   0  0  0  0  0  0  0  0  0  0  0  0
    9.4957    8.1690   24.2352 H   0  0  0  0  0  0  0  0  0  0  0  0
    6.3655   14.9205   23.5858 H   0  0  0  0  0  0  0  0  0  0  0  0
  1  7  1  0  0  0  0
  1 12  2  0  0  0  0
  1 14  1  0  0  0  0
  2 10  1  0  0  0  0
  2 11  1  0  0  0  0
  2 13  2  0  0  0  0
  3  4  1  0  0  0  0
  3  7  1  0  0  0  0
  4  8  1  0  0  0  0
  5  7  1  0  0  0  0
  5  8  1  0  0  0  0
  6  8  1  0  0  0  0
  6 11  1  0  0  0  0
  7 11  1  0  0  0  0
  8  9  1  0  0  0  0
 10 15  1  0  0  0  0
 10 16  1  0  0  0  0
 10 17  1  0  0  0  0
  3 18  1  0  0  0  0
  3 19  1  0  0  0  0
  4 20  1  0  0  0  0
  4 21  1  0  0  0  0
  5 22  1  0  0  0  0
  5 23  1  0  0  0  0
  6 24  1  0  0  0  0
  6 25  1  0  0  0  0
  9 26  1  0  0  0  0
  9 27  1  0  0  0  0
  9 28  1  0  0  0  0
 14 29  1  0  0  0  0
M  END
> <id>
EN300-28278734

> <smiles>
CC1(CCC2(C1)C(=O)O)CN2C(=O)C(F)(F)F

> <IUPAC Name>
4-methyl-2-(2,2,2-trifluoroacetyl)-2-azabicyclo[2.2.1]heptane-1-carboxylic acid

> <CAS>
2680758-74-9

> <URL>
https://www.enaminestore.com/catalog/EN300-28278734

> <ROCS_ShapeQuery>
x0446_0A_x1080_0A_x0929_0A_x0812_0A_x0719_0A_x1140_0A_x0528_0A_x0310_0A

> <ROCS_TanimotoCombo>
0.416 

> <ROCS_ShapeTanimoto>
0.231 

> <ROCS_ColorTanimoto>
0.185 

> <ROCS_RefTversky>
0.209 

> <ROCS_RefColorTversky>
0.207 

> <ROCS_RefTverskyCombo>
0.416 

> <ROCS_FitTversky>
1.808 

> <ROCS_FitColorTversky>
0.634 

> <ROCS_FitTverskyCombo>
2.441 

> <ROCS_ColorScore>
-7.418

> <ROCS_Overlap>
2470.512

> <ROCS_Rank>
298                 

$$$$
untitled-dbase-415819_7
  -OEChem-02082415563D

 32 34  0     0  0  0  0  0  0999 V2000
    5.6958   13.1127   25.0974 C   0  0  0  0  0  0  0  0  0  0  0  0
    5.4215   11.8498   25.6072 C   0  0  0  0  0  0  0  0  0  0  0  0
    6.8377   13.3091   24.3261 C   0  0  0  0  0  0  0  0  0  0  0  0
    6.2890   10.7866   25.3448 C   0  0  0  0  0  0  0  0  0  0  0  0
    9.3583   10.1141   23.5913 C   0  0  0  0  0  0  0  0  0  0  0  0
   10.2391   15.3798   22.3304 C   0  0  0  0  0  0  0  0  0  0  0  0
    8.4593   14.3863   21.8805 C   0  0  0  0  0  0  0  0  0  0  0  0
    7.7101   12.2395   24.0622 C   0  0  0  0  0  0  0  0  0  0  0  0
    9.7078   11.3329   23.0462 C   0  0  0  0  0  0  0  0  0  0  0  0
    7.4377   10.9545   24.5764 C   0  0  0  0  0  0  0  0  0  0  0  0
    8.8665   12.4091   23.2889 C   0  0  0  0  0  0  0  0  0  0  0  0
   10.9256   11.4369   22.2537 C   0  0  0  0  0  0  0  0  0  0  0  0
   14.3854   10.7552   23.2802 C   0  0  0  0  0  0  0  0  0  0  0  0
   13.2929   11.1625   22.3147 C   0  0  0  0  0  0  0  0  0  0  0  0
    8.2524    9.9082   24.3426 N   0  0  0  0  0  0  0  0  0  0  0  0
    9.0960   15.4977   21.5927 N   0  0  0  0  0  0  0  0  0  0  0  0
   10.3497   14.2653   23.0565 N   0  0  0  0  0  0  0  0  0  0  0  0
    9.1986   13.6475   22.7508 N   0  0  0  0  0  0  0  0  0  0  0  0
   10.9590   11.7882   21.0683 O   0  0  0  0  0  0  0  0  0  0  0  0
   12.0299   11.0983   22.9856 O   0  0  0  0  0  0  0  0  0  0  0  0
    5.0241   13.9417   25.2988 H   0  0  0  0  0  0  0  0  0  0  0  0
    4.5326   11.6872   26.2099 H   0  0  0  0  0  0  0  0  0  0  0  0
    7.0239   14.3091   23.9421 H   0  0  0  0  0  0  0  0  0  0  0  0
    6.0511    9.8067   25.7552 H   0  0  0  0  0  0  0  0  0  0  0  0
    9.9715    9.2302   23.4420 H   0  0  0  0  0  0  0  0  0  0  0  0
   11.0151   16.1305   22.3405 H   0  0  0  0  0  0  0  0  0  0  0  0
    7.4934   14.0832   21.4998 H   0  0  0  0  0  0  0  0  0  0  0  0
   14.4141   11.4267   24.1428 H   0  0  0  0  0  0  0  0  0  0  0  0
   14.2258    9.7314   23.6342 H   0  0  0  0  0  0  0  0  0  0  0  0
   15.3628   10.7725   22.7865 H   0  0  0  0  0  0  0  0  0  0  0  0
   13.2697   10.4870   21.4543 H   0  0  0  0  0  0  0  0  0  0  0  0
   13.4535   12.1859   21.9626 H   0  0  0  0  0  0  0  0  0  0  0  0
  1  2  1  0  0  0  0
  1  3  2  0  0  0  0
  2  4  2  0  0  0  0
  3  8  1  0  0  0  0
  4 10  1  0  0  0  0
  5  9  1  0  0  0  0
  5 15  2  0  0  0  0
  6 16  1  0  0  0  0
  6 17  2  0  0  0  0
  7 16  2  0  0  0  0
  7 18  1  0  0  0  0
  8 10  2  0  0  0  0
  8 11  1  0  0  0  0
  9 11  2  0  0  0  0
  9 12  1  0  0  0  0
 10 15  1  0  0  0  0
 11 18  1  0  0  0  0
 12 19  2  0  0  0  0
 12 20  1  0  0  0  0
 13 14  1  0  0  0  0
 14 20  1  0  0  0  0
 17 18  1  0  0  0  0
  1 21  1  0  0  0  0
  2 22  1  0  0  0  0
  3 23  1  0  0  0  0
  4 24  1  0  0  0  0
  5 25  1  0  0  0  0
  6 26  1  0  0  0  0
  7 27  1  0  0  0  0
 13 28  1  0  0  0  0
 13 29  1  0  0  0  0
 13 30  1  0  0  0  0
 14 31  1  0  0  0  0
 14 32  1  0  0  0  0
M  END
> <id>
EN300-96894

> <smiles>
CCOC(=O)C=1C=NC=2C=CC=CC2C1N3C=NC=N3

> <MDLNUMBER>
MFCD21602532

> <IUPAC Name>
ethyl 4-(1H-1,2,4-triazol-1-yl)quinoline-3-carboxylate

> <CAS>
1375472-67-5

> <Purity>
95

> <URL>
https://www.enaminestore.com/catalog/EN300-96894

> <ROCS_ShapeQuery>
x0446_0A_x1080_0A_x0929_0A_x0812_0A_x0719_0A_x1140_0A_x0528_0A_x0310_0A

> <ROCS_TanimotoCombo>
0.416 

> <ROCS_ShapeTanimoto>
0.244 

> <ROCS_ColorTanimoto>
0.172 

> <ROCS_RefTversky>
0.221 

> <ROCS_RefColorTversky>
0.182 

> <ROCS_RefTverskyCombo>
0.403 

> <ROCS_FitTversky>
1.722 

> <ROCS_FitColorTversky>
0.761 

> <ROCS_FitTverskyCombo>
2.484 

> <ROCS_ColorScore>
-6.489

> <ROCS_Overlap>
2611.100

> <ROCS_Rank>
299                 

$$$$
untitled-dbase-139659_1
  -OEChem-02082415563D

 42 44  0     0  0  0  0  0  0999 V2000
    8.8278   15.4734   23.7125 C   0  0  0  0  0  0  0  0  0  0  0  0
    8.6365   14.4051   24.5073 C   0  0  0  0  0  0  0  0  0  0  0  0
    9.6882   15.5032   22.5058 C   0  0  0  0  0  0  0  0  0  0  0  0
    8.1384    9.8413   23.4590 C   0  0  0  0  0  0  0  0  0  0  0  0
    7.5545   11.5854   25.1626 C   0  0  0  0  0  0  0  0  0  0  0  0
    7.5044   12.1516   22.7201 C   0  0  0  0  0  0  0  0  0  0  0  0
    9.9216   10.8016   24.9367 C   0  0  0  0  0  0  0  0  0  0  0  0
    9.8714   11.3697   22.4860 C   0  0  0  0  0  0  0  0  0  0  0  0
    9.3287   13.1082   24.1919 C   0  0  0  0  0  0  0  0  0  0  0  0
    7.2335   11.0490   23.7575 C   0  0  0  0  0  0  0  0  0  0  0  0
    9.6165   10.2624   23.5262 C   0  0  0  0  0  0  0  0  0  0  0  0
    9.0311   12.0232   25.2413 C   0  0  0  0  0  0  0  0  0  0  0  0
    8.9807   12.5926   22.7847 C   0  0  0  0  0  0  0  0  0  0  0  0
    7.7572   14.3471   25.7251 C   0  0  0  0  0  0  0  0  0  0  0  0
   13.2940   14.8894   22.4758 C   0  0  0  0  0  0  0  0  0  0  0  0
   11.9460   15.2201   21.8715 C   0  0  0  0  0  0  0  0  0  0  0  0
    9.3222   15.7528   21.3696 O   0  0  0  0  0  0  0  0  0  0  0  0
   10.9578   15.2193   22.9074 O   0  0  0  0  0  0  0  0  0  0  0  0
    8.3089   16.4030   23.9370 H   0  0  0  0  0  0  0  0  0  0  0  0
    7.9437    9.0389   24.1811 H   0  0  0  0  0  0  0  0  0  0  0  0
    7.9086    9.4369   22.4655 H   0  0  0  0  0  0  0  0  0  0  0  0
    6.8904   12.4235   25.4050 H   0  0  0  0  0  0  0  0  0  0  0  0
    7.3587   10.8069   25.9107 H   0  0  0  0  0  0  0  0  0  0  0  0
    7.2722   11.7802   21.7142 H   0  0  0  0  0  0  0  0  0  0  0  0
    6.8392   13.0049   22.8976 H   0  0  0  0  0  0  0  0  0  0  0  0
    9.7484   10.0163   25.6830 H   0  0  0  0  0  0  0  0  0  0  0  0
   10.9801   11.0802   25.0100 H   0  0  0  0  0  0  0  0  0  0  0  0
   10.9285   11.6620   22.5029 H   0  0  0  0  0  0  0  0  0  0  0  0
    9.6634   10.9912   21.4775 H   0  0  0  0  0  0  0  0  0  0  0  0
   10.4036   13.3348   24.2224 H   0  0  0  0  0  0  0  0  0  0  0  0
    6.1824   10.7435   23.7082 H   0  0  0  0  0  0  0  0  0  0  0  0
   10.2573    9.3997   23.3132 H   0  0  0  0  0  0  0  0  0  0  0  0
    9.2528   12.3883   26.2514 H   0  0  0  0  0  0  0  0  0  0  0  0
    9.1662   13.3669   22.0305 H   0  0  0  0  0  0  0  0  0  0  0  0
    6.7312   14.0441   25.5082 H   0  0  0  0  0  0  0  0  0  0  0  0
    7.7353   15.3227   26.2209 H   0  0  0  0  0  0  0  0  0  0  0  0
    8.1470   13.6107   26.4369 H   0  0  0  0  0  0  0  0  0  0  0  0
   13.5768   15.6308   23.2283 H   0  0  0  0  0  0  0  0  0  0  0  0
   13.2749   13.8998   22.9440 H   0  0  0  0  0  0  0  0  0  0  0  0
   14.0674   14.8599   21.7010 H   0  0  0  0  0  0  0  0  0  0  0  0
   11.6692   14.4749   21.1198 H   0  0  0  0  0  0  0  0  0  0  0  0
   11.9666   16.2094   21.4048 H   0  0  0  0  0  0  0  0  0  0  0  0
  1  2  2  0  0  0  0
  1  3  1  0  0  0  0
  2  9  1  0  0  0  0
  2 14  1  0  0  0  0
  3 17  2  0  0  0  0
  3 18  1  0  0  0  0
  4 10  1  0  0  0  0
  4 11  1  0  0  0  0
  5 10  1  0  0  0  0
  5 12  1  0  0  0  0
  6 10  1  0  0  0  0
  6 13  1  0  0  0  0
  7 11  1  0  0  0  0
  7 12  1  0  0  0  0
  8 11  1  0  0  0  0
  8 13  1  0  0  0  0
  9 12  1  0  0  0  0
  9 13  1  0  0  0  0
 15 16  1  0  0  0  0
 16 18  1  0  0  0  0
  1 19  1  0  0  0  0
  4 20  1  0  0  0  0
  4 21  1  0  0  0  0
  5 22  1  0  0  0  0
  5 23  1  0  0  0  0
  6 24  1  0  0  0  0
  6 25  1  0  0  0  0
  7 26  1  0  0  0  0
  7 27  1  0  0  0  0
  8 28  1  0  0  0  0
  8 29  1  0  0  0  0
  9 30  1  0  0  0  0
 10 31  1  0  0  0  0
 11 32  1  0  0  0  0
 12 33  1  0  0  0  0
 13 34  1  0  0  0  0
 14 35  1  0  0  0  0
 14 36  1  0  0  0  0
 14 37  1  0  0  0  0
 15 38  1  0  0  0  0
 15 39  1  0  0  0  0
 15 40  1  0  0  0  0
 16 41  1  0  0  0  0
 16 42  1  0  0  0  0
M  END
> <id>
EN300-1460770

> <smiles>
CCOC(=O)/C=C(/C)\C1C2CC3CC(C2)CC1C3

> <IUPAC Name>
ethyl (2Z)-3-(adamantan-2-yl)but-2-enoate

> <CAS>
2172619-06-4

> <URL>
https://www.enaminestore.com/catalog/EN300-1460770

> <ROCS_ShapeQuery>
x0446_0A_x1080_0A_x0929_0A_x0812_0A_x0719_0A_x1140_0A_x0528_0A_x0310_0A

> <ROCS_TanimotoCombo>
0.416 

> <ROCS_ShapeTanimoto>
0.223 

> <ROCS_ColorTanimoto>
0.192 

> <ROCS_RefTversky>
0.204 

> <ROCS_RefColorTversky>
0.206 

> <ROCS_RefTverskyCombo>
0.410 

> <ROCS_FitTversky>
1.751 

> <ROCS_FitColorTversky>
0.743 

> <ROCS_FitTverskyCombo>
2.494 

> <ROCS_ColorScore>
-7.360

> <ROCS_Overlap>
2407.120

> <ROCS_Rank>
300                 

$$$$
untitled-dbase-509691_1
  -OEChem-02082415563D

 35 36  0     1  0  0  0  0  0999 V2000
    9.2817   10.0425   22.7779 C   0  0  0  0  0  0  0  0  0  0  0  0
    8.2193   12.3578   23.5760 C   0  0  0  0  0  0  0  0  0  0  0  0
    7.4826   13.4169   24.1938 C   0  0  0  0  0  0  0  0  0  0  0  0
    6.5937   12.9583   25.1416 C   0  0  0  0  0  0  0  0  0  0  0  0
    9.2065   12.3354   22.5856 C   0  0  0  0  0  0  0  0  0  0  0  0
    7.8447   11.1258   24.0964 C   0  0  0  0  0  0  0  0  0  0  0  0
    8.7896   14.4104   21.2753 C   0  0  0  0  0  0  0  0  0  0  0  0
   11.4826   13.4441   23.5801 C   0  0  0  0  0  0  0  0  0  0  0  0
    7.6419   14.8573   23.8658 C   0  0  0  0  0  0  0  0  0  0  0  0
    5.6593   13.7311   25.9911 C   0  0  0  0  0  0  0  0  0  0  0  0
   11.9413   13.2956   21.1212 C   0  0  0  0  0  0  0  0  0  0  0  0
   11.0802   13.9185   22.2067 C   0  0  1  0  0  0  0  0  0  0  0  0
    7.6752   13.8241   20.4453 C   0  0  0  0  0  0  0  0  0  0  0  0
    9.7411   11.1619   22.1852 N   0  0  0  0  0  0  0  0  0  0  0  0
    8.3434    9.9275   23.7347 N   0  0  0  0  0  0  0  0  0  0  0  0
    9.6558   13.5198   21.9939 N   0  0  0  0  0  0  0  0  0  0  0  0
    8.9196   15.6377   21.2740 O   0  0  0  0  0  0  0  0  0  0  0  0
   10.9308   13.7295   24.6330 O   0  0  0  0  0  0  0  0  0  0  0  0
   12.5572   12.6166   23.5018 O   0  0  0  0  0  0  0  0  0  0  0  0
    7.6666   12.4654   20.5128 F   0  0  0  0  0  0  0  0  0  0  0  0
    6.4480   14.2300   20.8585 F   0  0  0  0  0  0  0  0  0  0  0  0
    7.7898   14.1349   19.1292 F   0  0  0  0  0  0  0  0  0  0  0  0
    6.6387   11.2552   25.2936 S   0  0  0  0  0  0  0  0  0  0  0  0
    9.7260    9.1137   22.4380 H   0  0  0  0  0  0  0  0  0  0  0  0
    6.9567   15.1488   23.0579 H   0  0  0  0  0  0  0  0  0  0  0  0
    7.4361   15.4954   24.7376 H   0  0  0  0  0  0  0  0  0  0  0  0
    8.6686   15.0874   23.5451 H   0  0  0  0  0  0  0  0  0  0  0  0
    4.6846   13.8515   25.4940 H   0  0  0  0  0  0  0  0  0  0  0  0
    5.4862   13.2392   26.9616 H   0  0  0  0  0  0  0  0  0  0  0  0
    6.0496   14.7358   26.2198 H   0  0  0  0  0  0  0  0  0  0  0  0
   11.8863   12.2024   21.1522 H   0  0  0  0  0  0  0  0  0  0  0  0
   11.6170   13.6234   20.1276 H   0  0  0  0  0  0  0  0  0  0  0  0
   12.9943   13.5765   21.2376 H   0  0  0  0  0  0  0  0  0  0  0  0
   11.1322   15.0118   22.1793 H   0  0  0  0  0  0  0  0  0  0  0  0
   12.8275   12.2842   24.3842 H   0  0  0  0  0  0  0  0  0  0  0  0
  1 14  2  0  0  0  0
  1 15  1  0  0  0  0
  2  3  1  0  0  0  0
  2  5  2  0  0  0  0
  2  6  1  0  0  0  0
  3  4  2  0  0  0  0
  3  9  1  0  0  0  0
  4 10  1  0  0  0  0
  4 23  1  0  0  0  0
  5 14  1  0  0  0  0
  5 16  1  0  0  0  0
  6 15  2  0  0  0  0
  6 23  1  0  0  0  0
  7 13  1  0  0  0  0
  7 16  1  0  0  0  0
  7 17  2  0  0  0  0
  8 12  1  0  0  0  0
  8 18  2  0  0  0  0
  8 19  1  0  0  0  0
 11 12  1  6  0  0  0
 12 16  1  0  0  0  0
 13 20  1  0  0  0  0
 13 21  1  0  0  0  0
 13 22  1  0  0  0  0
  1 24  1  0  0  0  0
  9 25  1  0  0  0  0
  9 26  1  0  0  0  0
  9 27  1  0  0  0  0
 10 28  1  0  0  0  0
 10 29  1  0  0  0  0
 10 30  1  0  0  0  0
 11 31  1  0  0  0  0
 11 32  1  0  0  0  0
 11 33  1  0  0  0  0
 12 34  1  0  0  0  0
 19 35  1  0  0  0  0
M  END
> <id>
EN300-28298107

> <smiles>
C[C@@H](N(C(=O)C(F)(F)F)C=1N=CN=C2SC(C)=C(C)C12)C(=O)O |o1:1,r|

> <IUPAC Name>
rel-(2R)-2-(N-{5,6-dimethylthieno[2,3-d]pyrimidin-4-yl}-2,2,2-trifluoroacetamido)propanoic acid

> <CAS>
2732856-20-9

> <URL>
https://www.enaminestore.com/catalog/EN300-28298107

> <ROCS_ShapeQuery>
x0446_0A_x1080_0A_x0929_0A_x0812_0A_x0719_0A_x1140_0A_x0528_0A_x0310_0A

> <ROCS_TanimotoCombo>
0.416 

> <ROCS_ShapeTanimoto>
0.253 

> <ROCS_ColorTanimoto>
0.162 

> <ROCS_RefTversky>
0.230 

> <ROCS_RefColorTversky>
0.177 

> <ROCS_RefTverskyCombo>
0.406 

> <ROCS_FitTversky>
1.680 

> <ROCS_FitColorTversky>
0.665 

> <ROCS_FitTverskyCombo>
2.345 

> <ROCS_ColorScore>
-6.314

> <ROCS_Overlap>
2714.442

> <ROCS_Rank>
301                 

$$$$
untitled-dbase-119604_1
  -OEChem-02082415563D

 40 42  0     0  0  0  0  0  0999 V2000
    8.1100   10.0820   24.7364 C   0  0  0  0  0  0  0  0  0  0  0  0
   10.3316   11.2374   24.6054 C   0  0  0  0  0  0  0  0  0  0  0  0
    9.2948   10.2751   22.5349 C   0  0  0  0  0  0  0  0  0  0  0  0
    8.2495   12.5685   25.0329 C   0  0  0  0  0  0  0  0  0  0  0  0
    7.2102   11.6041   22.9578 C   0  0  0  0  0  0  0  0  0  0  0  0
    9.4368   12.7619   22.8262 C   0  0  0  0  0  0  0  0  0  0  0  0
    8.9609   11.2310   25.3023 C   0  0  0  0  0  0  0  0  0  0  0  0
    7.9189   10.2640   23.2215 C   0  0  0  0  0  0  0  0  0  0  0  0
   10.1517   11.4251   23.0898 C   0  0  0  0  0  0  0  0  0  0  0  0
    8.0506   12.7784   23.5130 C   0  0  0  0  0  0  0  0  0  0  0  0
    5.5256   18.0356   21.7522 C   0  0  0  0  0  0  0  0  0  0  0  0
    7.3425   14.1098   23.2487 C   0  0  0  0  0  0  0  0  0  0  0  0
    6.1396   16.8303   22.3788 C   0  0  0  0  0  0  0  0  0  0  0  0
    6.3245   15.7527   21.3903 N   0  0  0  0  0  0  0  0  0  0  0  0
    8.8792   15.3748   21.5491 O   0  0  0  0  0  0  0  0  0  0  0  0
    7.3925   13.5205   20.7079 O   0  0  0  0  0  0  0  0  0  0  0  0
    7.6166   14.6504   21.6000 S   0  0  0  0  0  0  0  0  0  0  0  0
    8.5970    9.1203   24.9395 H   0  0  0  0  0  0  0  0  0  0  0  0
    7.1342   10.0565   25.2369 H   0  0  0  0  0  0  0  0  0  0  0  0
   10.9548   12.0436   25.0116 H   0  0  0  0  0  0  0  0  0  0  0  0
   10.8581   10.2962   24.8062 H   0  0  0  0  0  0  0  0  0  0  0  0
    9.8027    9.3168   22.6990 H   0  0  0  0  0  0  0  0  0  0  0  0
    9.1719   10.3887   21.4508 H   0  0  0  0  0  0  0  0  0  0  0  0
    7.2801   12.5803   25.5476 H   0  0  0  0  0  0  0  0  0  0  0  0
    8.8402   13.3915   25.4555 H   0  0  0  0  0  0  0  0  0  0  0  0
    7.0491   11.7294   21.8793 H   0  0  0  0  0  0  0  0  0  0  0  0
    6.2172   11.5938   23.4253 H   0  0  0  0  0  0  0  0  0  0  0  0
   10.0546   13.5896   23.1983 H   0  0  0  0  0  0  0  0  0  0  0  0
    9.3262   12.9133   21.7447 H   0  0  0  0  0  0  0  0  0  0  0  0
    9.0953   11.0949   26.3813 H   0  0  0  0  0  0  0  0  0  0  0  0
    7.3138    9.4416   22.8236 H   0  0  0  0  0  0  0  0  0  0  0  0
   11.1311   11.4268   22.5986 H   0  0  0  0  0  0  0  0  0  0  0  0
    4.5455   17.7705   21.3289 H   0  0  0  0  0  0  0  0  0  0  0  0
    5.3963   18.8190   22.5135 H   0  0  0  0  0  0  0  0  0  0  0  0
    6.1821   18.4072   20.9516 H   0  0  0  0  0  0  0  0  0  0  0  0
    7.7250   14.8749   23.9194 H   0  0  0  0  0  0  0  0  0  0  0  0
    6.2709   13.9965   23.3899 H   0  0  0  0  0  0  0  0  0  0  0  0
    7.1186   17.1036   22.7994 H   0  0  0  0  0  0  0  0  0  0  0  0
    5.4824   16.4700   23.1840 H   0  0  0  0  0  0  0  0  0  0  0  0
    5.4445   15.3689   21.0219 H   0  0  0  0  0  0  0  0  0  0  0  0
  1  7  1  0  0  0  0
  1  8  1  0  0  0  0
  2  7  1  0  0  0  0
  2  9  1  0  0  0  0
  3  8  1  0  0  0  0
  3  9  1  0  0  0  0
  4  7  1  0  0  0  0
  4 10  1  0  0  0  0
  5  8  1  0  0  0  0
  5 10  1  0  0  0  0
  6  9  1  0  0  0  0
  6 10  1  0  0  0  0
 10 12  1  0  0  0  0
 11 13  1  0  0  0  0
 12 17  1  0  0  0  0
 13 14  1  0  0  0  0
 14 17  1  0  0  0  0
 15 17  2  0  0  0  0
 16 17  2  0  0  0  0
  1 18  1  0  0  0  0
  1 19  1  0  0  0  0
  2 20  1  0  0  0  0
  2 21  1  0  0  0  0
  3 22  1  0  0  0  0
  3 23  1  0  0  0  0
  4 24  1  0  0  0  0
  4 25  1  0  0  0  0
  5 26  1  0  0  0  0
  5 27  1  0  0  0  0
  6 28  1  0  0  0  0
  6 29  1  0  0  0  0
  7 30  1  0  0  0  0
  8 31  1  0  0  0  0
  9 32  1  0  0  0  0
 11 33  1  0  0  0  0
 11 34  1  0  0  0  0
 11 35  1  0  0  0  0
 12 36  1  0  0  0  0
 12 37  1  0  0  0  0
 13 38  1  0  0  0  0
 13 39  1  0  0  0  0
 14 40  1  0  0  0  0
M  END
> <id>
EN300-844066

> <smiles>
CCNS(=O)(=O)CC1(CC2CC3CC(C2)C1)C3

> <IUPAC Name>
1-(adamantan-1-yl)-N-ethylmethanesulfonamide

> <CAS>
2138005-23-7

> <URL>
https://www.enaminestore.com/catalog/EN300-844066

> <ROCS_ShapeQuery>
x0446_0A_x1080_0A_x0929_0A_x0812_0A_x0719_0A_x1140_0A_x0528_0A_x0310_0A

> <ROCS_TanimotoCombo>
0.415 

> <ROCS_ShapeTanimoto>
0.205 

> <ROCS_ColorTanimoto>
0.211 

> <ROCS_RefTversky>
0.189 

> <ROCS_RefColorTversky>
0.227 

> <ROCS_RefTverskyCombo>
0.416 

> <ROCS_FitTversky>
1.702 

> <ROCS_FitColorTversky>
0.748 

> <ROCS_FitTverskyCombo>
2.450 

> <ROCS_ColorScore>
-8.116

> <ROCS_Overlap>
2229.240

> <ROCS_Rank>
302                 

$$$$
untitled-dbase-347238_6
  -OEChem-02082415563D

 42 45  0     0  0  0  0  0  0999 V2000
   13.8295   15.6627   20.6036 C   0  0  0  0  0  0  0  0  0  0  0  0
   14.0059   16.8386   21.3244 C   0  0  0  0  0  0  0  0  0  0  0  0
   12.7668   14.8196   20.9087 C   0  0  0  0  0  0  0  0  0  0  0  0
   11.9154   15.1948   21.9355 C   0  0  0  0  0  0  0  0  0  0  0  0
   13.0989   17.1235   22.3324 C   0  0  0  0  0  0  0  0  0  0  0  0
   10.7640   14.3683   22.3311 C   0  0  0  0  0  0  0  0  0  0  0  0
    7.2571   11.0251   24.6332 C   0  0  0  0  0  0  0  0  0  0  0  0
    9.0559    9.8450   23.3456 C   0  0  0  0  0  0  0  0  0  0  0  0
    7.5770   11.5212   22.1965 C   0  0  0  0  0  0  0  0  0  0  0  0
    9.6676   11.5647   25.0615 C   0  0  0  0  0  0  0  0  0  0  0  0
    8.1917   13.2377   23.9146 C   0  0  0  0  0  0  0  0  0  0  0  0
    7.6288   10.4181   23.2694 C   0  0  0  0  0  0  0  0  0  0  0  0
    8.2453   12.1465   24.9972 C   0  0  0  0  0  0  0  0  0  0  0  0
   10.0580   10.9620   23.6972 C   0  0  0  0  0  0  0  0  0  0  0  0
    8.5727   12.6455   22.5431 C   0  0  0  0  0  0  0  0  0  0  0  0
    9.9939   12.0420   22.5945 C   0  0  0  0  0  0  0  0  0  0  0  0
   12.2199   12.6388   23.4818 C   0  0  0  0  0  0  0  0  0  0  0  0
   12.0546   16.3290   22.6578 N   0  0  0  0  0  0  0  0  0  0  0  0
   10.9973   13.0628   22.7927 N   0  0  0  0  0  0  0  0  0  0  0  0
    9.6569   14.8976   22.2400 O   0  0  0  0  0  0  0  0  0  0  0  0
   12.5533   13.3654   20.0137 Cl  0  0  0  0  0  0  0  0  0  0  0  0
   13.2390   18.5504   23.2743 Cl  0  0  0  0  0  0  0  0  0  0  0  0
   14.5282   15.4174   19.8081 H   0  0  0  0  0  0  0  0  0  0  0  0
   14.8323   17.5024   21.0935 H   0  0  0  0  0  0  0  0  0  0  0  0
    6.2349   11.4220   24.6004 H   0  0  0  0  0  0  0  0  0  0  0  0
    7.2716   10.2470   25.4062 H   0  0  0  0  0  0  0  0  0  0  0  0
    9.1003    9.0503   24.1008 H   0  0  0  0  0  0  0  0  0  0  0  0
    9.3268    9.3872   22.3861 H   0  0  0  0  0  0  0  0  0  0  0  0
    7.8169   11.0981   21.2133 H   0  0  0  0  0  0  0  0  0  0  0  0
    6.5608   11.9290   22.1273 H   0  0  0  0  0  0  0  0  0  0  0  0
   10.3800   12.3459   25.3524 H   0  0  0  0  0  0  0  0  0  0  0  0
    9.7183   10.7904   25.8371 H   0  0  0  0  0  0  0  0  0  0  0  0
    7.1823   13.6651   23.8668 H   0  0  0  0  0  0  0  0  0  0  0  0
    8.8670   14.0607   24.1774 H   0  0  0  0  0  0  0  0  0  0  0  0
    6.9228    9.6202   23.0143 H   0  0  0  0  0  0  0  0  0  0  0  0
    7.9759   12.5749   25.9689 H   0  0  0  0  0  0  0  0  0  0  0  0
   11.0664   10.5353   23.7535 H   0  0  0  0  0  0  0  0  0  0  0  0
    8.5178   13.4242   21.7733 H   0  0  0  0  0  0  0  0  0  0  0  0
   10.2317   11.5875   21.6249 H   0  0  0  0  0  0  0  0  0  0  0  0
   12.0975   12.7784   24.5660 H   0  0  0  0  0  0  0  0  0  0  0  0
   12.4116   11.5769   23.2682 H   0  0  0  0  0  0  0  0  0  0  0  0
   13.0684   13.2429   23.1280 H   0  0  0  0  0  0  0  0  0  0  0  0
  1  2  2  0  0  0  0
  1  3  1  0  0  0  0
  2  5  1  0  0  0  0
  3  4  2  0  0  0  0
  3 21  1  0  0  0  0
  4  6  1  0  0  0  0
  4 18  1  0  0  0  0
  5 18  2  0  0  0  0
  5 22  1  0  0  0  0
  6 19  1  0  0  0  0
  6 20  2  0  0  0  0
  7 12  1  0  0  0  0
  7 13  1  0  0  0  0
  8 12  1  0  0  0  0
  8 14  1  0  0  0  0
  9 12  1  0  0  0  0
  9 15  1  0  0  0  0
 10 13  1  0  0  0  0
 10 14  1  0  0  0  0
 11 13  1  0  0  0  0
 11 15  1  0  0  0  0
 14 16  1  0  0  0  0
 15 16  1  0  0  0  0
 16 19  1  0  0  0  0
 17 19  1  0  0  0  0
  1 23  1  0  0  0  0
  2 24  1  0  0  0  0
  7 25  1  0  0  0  0
  7 26  1  0  0  0  0
  8 27  1  0  0  0  0
  8 28  1  0  0  0  0
  9 29  1  0  0  0  0
  9 30  1  0  0  0  0
 10 31  1  0  0  0  0
 10 32  1  0  0  0  0
 11 33  1  0  0  0  0
 11 34  1  0  0  0  0
 12 35  1  0  0  0  0
 13 36  1  0  0  0  0
 14 37  1  0  0  0  0
 15 38  1  0  0  0  0
 16 39  1  0  0  0  0
 17 40  1  0  0  0  0
 17 41  1  0  0  0  0
 17 42  1  0  0  0  0
M  END
> <id>
EN300-26587936

> <smiles>
CN(C1C2CC3CC(C2)CC1C3)C(=O)C=4N=C(Cl)C=CC4Cl

> <IUPAC Name>
N-(adamantan-2-yl)-3,6-dichloro-N-methylpyridine-2-carboxamide

> <CAS>
1089455-22-0

> <URL>
https://www.enaminestore.com/catalog/EN300-26587936

> <ROCS_ShapeQuery>
x0446_0A_x1080_0A_x0929_0A_x0812_0A_x0719_0A_x1140_0A_x0528_0A_x0310_0A

> <ROCS_TanimotoCombo>
0.415 

> <ROCS_ShapeTanimoto>
0.239 

> <ROCS_ColorTanimoto>
0.176 

> <ROCS_RefTversky>
0.218 

> <ROCS_RefColorTversky>
0.195 

> <ROCS_RefTverskyCombo>
0.414 

> <ROCS_FitTversky>
1.650 

> <ROCS_FitColorTversky>
0.645 

> <ROCS_FitTverskyCombo>
2.295 

> <ROCS_ColorScore>
-6.999

> <ROCS_Overlap>
2579.791

> <ROCS_Rank>
303                 

$$$$
untitled-dbase-572229_5
  -OEChem-02082415563D

 35 36  0     0  0  0  0  0  0999 V2000
   10.7569   13.5823   22.5326 C   0  0  0  0  0  0  0  0  0  0  0  0
    9.5726   11.7434   24.8836 C   0  0  0  0  0  0  0  0  0  0  0  0
    8.1001   12.4310   23.5670 C   0  0  0  0  0  0  0  0  0  0  0  0
    9.0360   10.2111   23.0194 C   0  0  0  0  0  0  0  0  0  0  0  0
    9.4200   11.6429   23.3405 C   0  0  0  0  0  0  0  0  0  0  0  0
    8.0479   11.3283   24.7108 C   0  0  0  0  0  0  0  0  0  0  0  0
   12.7112   15.6264   22.9229 C   0  0  0  0  0  0  0  0  0  0  0  0
   13.3066   15.2598   20.5104 C   0  0  0  0  0  0  0  0  0  0  0  0
   11.0059   16.0595   21.1232 C   0  0  0  0  0  0  0  0  0  0  0  0
    7.0765   11.4213   25.8468 C   0  0  0  0  0  0  0  0  0  0  0  0
   12.1915   15.1962   21.5519 C   0  0  0  0  0  0  0  0  0  0  0  0
   10.4350   12.2377   22.5133 N   0  0  0  0  0  0  0  0  0  0  0  0
   10.2298   14.4309   23.2444 O   0  0  0  0  0  0  0  0  0  0  0  0
    8.0359   10.0264   24.0434 O   0  0  0  0  0  0  0  0  0  0  0  0
    5.7461   11.4574   25.3373 O   0  0  0  0  0  0  0  0  0  0  0  0
   11.7570   13.8342   21.6361 O   0  0  0  0  0  0  0  0  0  0  0  0
   10.2159   10.9970   25.3582 H   0  0  0  0  0  0  0  0  0  0  0  0
    9.7772   12.7302   25.3126 H   0  0  0  0  0  0  0  0  0  0  0  0
    8.1784   13.4767   23.8835 H   0  0  0  0  0  0  0  0  0  0  0  0
    7.3397   12.3400   22.7861 H   0  0  0  0  0  0  0  0  0  0  0  0
    8.5782   10.0919   22.0335 H   0  0  0  0  0  0  0  0  0  0  0  0
    9.8498    9.4960   23.1679 H   0  0  0  0  0  0  0  0  0  0  0  0
   11.9137   15.5821   23.6734 H   0  0  0  0  0  0  0  0  0  0  0  0
   13.5391   14.9928   23.2575 H   0  0  0  0  0  0  0  0  0  0  0  0
   13.0578   16.6659   22.9012 H   0  0  0  0  0  0  0  0  0  0  0  0
   12.9382   14.9519   19.5251 H   0  0  0  0  0  0  0  0  0  0  0  0
   14.1189   14.5697   20.7657 H   0  0  0  0  0  0  0  0  0  0  0  0
   13.7228   16.2688   20.4252 H   0  0  0  0  0  0  0  0  0  0  0  0
   10.6330   15.7511   20.1398 H   0  0  0  0  0  0  0  0  0  0  0  0
   10.1813   15.9971   21.8406 H   0  0  0  0  0  0  0  0  0  0  0  0
   11.3038   17.1097   21.0255 H   0  0  0  0  0  0  0  0  0  0  0  0
    7.2400   12.3335   26.4393 H   0  0  0  0  0  0  0  0  0  0  0  0
    7.1615   10.5542   26.5181 H   0  0  0  0  0  0  0  0  0  0  0  0
   10.9475   11.6320   21.8748 H   0  0  0  0  0  0  0  0  0  0  0  0
    5.1575   11.5173   26.1057 H   0  0  0  0  0  0  0  0  0  0  0  0
  1 12  1  0  0  0  0
  1 13  2  0  0  0  0
  1 16  1  0  0  0  0
  2  5  1  0  0  0  0
  2  6  1  0  0  0  0
  3  5  1  0  0  0  0
  3  6  1  0  0  0  0
  4  5  1  0  0  0  0
  4 14  1  0  0  0  0
  5 12  1  1  0  0  0
  6 10  1  1  0  0  0
  6 14  1  0  0  0  0
  7 11  1  0  0  0  0
  8 11  1  0  0  0  0
  9 11  1  0  0  0  0
 10 15  1  0  0  0  0
 11 16  1  0  0  0  0
  2 17  1  0  0  0  0
  2 18  1  0  0  0  0
  3 19  1  0  0  0  0
  3 20  1  0  0  0  0
  4 21  1  0  0  0  0
  4 22  1  0  0  0  0
  7 23  1  0  0  0  0
  7 24  1  0  0  0  0
  7 25  1  0  0  0  0
  8 26  1  0  0  0  0
  8 27  1  0  0  0  0
  8 28  1  0  0  0  0
  9 29  1  0  0  0  0
  9 30  1  0  0  0  0
  9 31  1  0  0  0  0
 10 32  1  0  0  0  0
 10 33  1  0  0  0  0
 12 34  1  0  0  0  0
 15 35  1  0  0  0  0
M  END
> <id>
EN300-43351233

> <smiles>
CC(C)(C)OC(=O)N[C@]1(C[C@@]2(CO)C1)CO2

> <IUPAC Name>
tert-butyl N-[1-(hydroxymethyl)-2-oxabicyclo[2.1.1]hexan-4-yl]carbamate

> <URL>
https://www.enaminestore.com/catalog/EN300-43351233

> <ROCS_ShapeQuery>
x0446_0A_x1080_0A_x0929_0A_x0812_0A_x0719_0A_x1140_0A_x0528_0A_x0310_0A

> <ROCS_TanimotoCombo>
0.415 

> <ROCS_ShapeTanimoto>
0.213 

> <ROCS_ColorTanimoto>
0.203 

> <ROCS_RefTversky>
0.195 

> <ROCS_RefColorTversky>
0.234 

> <ROCS_RefTverskyCombo>
0.429 

> <ROCS_FitTversky>
1.779 

> <ROCS_FitColorTversky>
0.602 

> <ROCS_FitTverskyCombo>
2.381 

> <ROCS_ColorScore>
-8.414

> <ROCS_Overlap>
2297.343

> <ROCS_Rank>
304                 

$$$$
untitled-dbase-510513_1
  -OEChem-02082415563D

 36 38  0     1  0  0  0  0  0999 V2000
    6.9956   13.1791   25.5174 C   0  0  0  0  0  0  0  0  0  0  0  0
   10.5791   14.4562   21.6781 C   0  0  0  0  0  0  0  0  0  0  0  0
    8.4061    9.8615   23.1420 C   0  0  0  0  0  0  0  0  0  0  0  0
    6.9273   11.8710   23.3956 C   0  0  0  0  0  0  0  0  0  0  0  0
    8.4604   11.1930   25.2665 C   0  0  0  0  0  0  0  0  0  0  0  0
    8.8789   11.9414   21.8234 C   0  0  0  0  0  0  0  0  0  0  0  0
   10.4118   11.2631   23.6935 C   0  0  0  0  0  0  0  0  0  0  0  0
    8.9327   13.2775   23.9486 C   0  0  0  0  0  0  0  0  0  0  0  0
    7.7678   11.0497   22.4036 C   0  0  1  0  0  0  0  0  0  0  0  0
    9.3063   10.3690   24.2809 C   0  0  2  0  0  0  0  0  0  0  0  0
    7.8193   12.3910   24.5394 C   0  0  0  0  0  0  0  0  0  0  0  0
    9.7924   12.4675   22.9525 C   0  0  0  0  0  0  0  0  0  0  0  0
   11.8425   15.1221   21.2183 C   0  0  0  0  0  0  0  0  0  0  0  0
   10.8348   13.3028   22.3974 N   0  0  0  0  0  0  0  0  0  0  0  0
    6.8625   12.9081   26.7016 O   0  0  0  0  0  0  0  0  0  0  0  0
    9.4703   14.9158   21.4196 O   0  0  0  0  0  0  0  0  0  0  0  0
    6.4117   14.2390   24.9068 O   0  0  0  0  0  0  0  0  0  0  0  0
   12.9475   14.4399   21.6136 F   0  0  0  0  0  0  0  0  0  0  0  0
   11.9609   16.3828   21.7076 F   0  0  0  0  0  0  0  0  0  0  0  0
   11.9046   15.2191   19.8659 F   0  0  0  0  0  0  0  0  0  0  0  0
    7.6234    9.2080   23.5464 H   0  0  0  0  0  0  0  0  0  0  0  0
    8.9944    9.2571   22.4407 H   0  0  0  0  0  0  0  0  0  0  0  0
    6.4461   12.7096   22.8753 H   0  0  0  0  0  0  0  0  0  0  0  0
    6.1138   11.2511   23.7951 H   0  0  0  0  0  0  0  0  0  0  0  0
    7.6844   10.5579   25.7139 H   0  0  0  0  0  0  0  0  0  0  0  0
    9.0878   11.5411   26.0977 H   0  0  0  0  0  0  0  0  0  0  0  0
    9.4663   11.3664   21.0956 H   0  0  0  0  0  0  0  0  0  0  0  0
    8.4274   12.7799   21.2771 H   0  0  0  0  0  0  0  0  0  0  0  0
   11.0697   11.6101   24.5009 H   0  0  0  0  0  0  0  0  0  0  0  0
   11.0329   10.6715   23.0081 H   0  0  0  0  0  0  0  0  0  0  0  0
    8.4882   14.1492   23.4484 H   0  0  0  0  0  0  0  0  0  0  0  0
    9.5641   13.6753   24.7552 H   0  0  0  0  0  0  0  0  0  0  0  0
    7.1284   10.6815   21.5935 H   0  0  0  0  0  0  0  0  0  0  0  0
    9.7574    9.5178   24.8029 H   0  0  0  0  0  0  0  0  0  0  0  0
   11.8015   13.0290   22.5429 H   0  0  0  0  0  0  0  0  0  0  0  0
    5.8669   14.7661   25.5294 H   0  0  0  0  0  0  0  0  0  0  0  0
  1 11  1  0  0  0  0
  1 15  2  0  0  0  0
  1 17  1  0  0  0  0
  2 13  1  0  0  0  0
  2 14  1  0  0  0  0
  2 16  2  0  0  0  0
  3  9  1  0  0  0  0
  3 10  1  0  0  0  0
  4  9  1  0  0  0  0
  4 11  1  0  0  0  0
  5 10  1  0  0  0  0
  5 11  1  0  0  0  0
  6  9  1  0  0  0  0
  6 12  1  0  0  0  0
  7 10  1  0  0  0  0
  7 12  1  0  0  0  0
  8 11  1  0  0  0  0
  8 12  1  0  0  0  0
 12 14  1  0  0  0  0
 13 18  1  0  0  0  0
 13 19  1  0  0  0  0
 13 20  1  0  0  0  0
  3 21  1  0  0  0  0
  3 22  1  0  0  0  0
  4 23  1  0  0  0  0
  4 24  1  0  0  0  0
  5 25  1  0  0  0  0
  5 26  1  0  0  0  0
  6 27  1  0  0  0  0
  6 28  1  0  0  0  0
  7 29  1  0  0  0  0
  7 30  1  0  0  0  0
  8 31  1  0  0  0  0
  8 32  1  0  0  0  0
  9 33  1  0  0  0  0
 10 34  1  0  0  0  0
 14 35  1  0  0  0  0
 17 36  1  0  0  0  0
M  END
> <id>
EN300-28288400

> <smiles>
OC(=O)C1(CC2CC3CC(C2)(C1)NC(=O)C(F)(F)F)C3

> <IUPAC Name>
3-(2,2,2-trifluoroacetamido)adamantane-1-carboxylic acid

> <CAS>
2680697-84-9

> <URL>
https://www.enaminestore.com/catalog/EN300-28288400

> <ROCS_ShapeQuery>
x0446_0A_x1080_0A_x0929_0A_x0812_0A_x0719_0A_x1140_0A_x0528_0A_x0310_0A

> <ROCS_TanimotoCombo>
0.415 

> <ROCS_ShapeTanimoto>
0.245 

> <ROCS_ColorTanimoto>
0.171 

> <ROCS_RefTversky>
0.221 

> <ROCS_RefColorTversky>
0.198 

> <ROCS_RefTverskyCombo>
0.419 

> <ROCS_FitTversky>
1.751 

> <ROCS_FitColorTversky>
0.556 

> <ROCS_FitTverskyCombo>
2.307 

> <ROCS_ColorScore>
-7.097

> <ROCS_Overlap>
2614.781

> <ROCS_Rank>
305                 

$$$$
untitled-dbase-402129_4
  -OEChem-02082415563D

 39 41  0     0  0  0  0  0  0999 V2000
   12.8617   14.1910   22.6003 C   0  0  0  0  0  0  0  0  0  0  0  0
   10.7763   15.3083   22.1107 C   0  0  0  0  0  0  0  0  0  0  0  0
   13.5640   15.3333   22.2163 C   0  0  0  0  0  0  0  0  0  0  0  0
   11.4786   16.4507   21.7267 C   0  0  0  0  0  0  0  0  0  0  0  0
    7.5235   10.3709   24.5221 C   0  0  0  0  0  0  0  0  0  0  0  0
   11.4679   14.1784   22.5474 C   0  0  0  0  0  0  0  0  0  0  0  0
    7.6257   11.7585   24.3700 C   0  0  0  0  0  0  0  0  0  0  0  0
   12.8724   16.4632   21.7795 C   0  0  0  0  0  0  0  0  0  0  0  0
    8.8699   11.9626   23.8185 C   0  0  0  0  0  0  0  0  0  0  0  0
   11.4118   11.6513   22.7456 C   0  0  0  0  0  0  0  0  0  0  0  0
   10.7182   12.9614   22.9570 C   0  0  0  0  0  0  0  0  0  0  0  0
   10.7317   10.5560   23.1212 C   0  0  0  0  0  0  0  0  0  0  0  0
    6.6738   12.7754   24.7017 C   0  0  0  0  0  0  0  0  0  0  0  0
   12.8587   18.5258   20.3307 C   0  0  0  0  0  0  0  0  0  0  0  0
   15.0342   17.3597   20.8430 C   0  0  0  0  0  0  0  0  0  0  0  0
   13.6237   17.6849   21.3701 C   0  0  0  0  0  0  0  0  0  0  0  0
   11.2951    9.1750   22.9692 C   0  0  0  0  0  0  0  0  0  0  0  0
    8.6097    9.7233   24.1047 N   0  0  0  0  0  0  0  0  0  0  0  0
    9.5216   13.0992   23.4514 N   0  0  0  0  0  0  0  0  0  0  0  0
    9.4493   10.7027   23.6673 N   0  0  0  0  0  0  0  0  0  0  0  0
    6.8209   14.0050   24.5425 O   0  0  0  0  0  0  0  0  0  0  0  0
    5.5150   12.2799   25.2391 O   0  0  0  0  0  0  0  0  0  0  0  0
   12.5273    9.2157   22.4241 F   0  0  0  0  0  0  0  0  0  0  0  0
   11.3905    8.5585   24.1643 F   0  0  0  0  0  0  0  0  0  0  0  0
   10.5142    8.4173   22.1733 F   0  0  0  0  0  0  0  0  0  0  0  0
   13.4100   13.3158   22.9391 H   0  0  0  0  0  0  0  0  0  0  0  0
    9.6904   15.3099   22.0653 H   0  0  0  0  0  0  0  0  0  0  0  0
   14.6498   15.3344   22.2609 H   0  0  0  0  0  0  0  0  0  0  0  0
   10.9316   17.3268   21.3881 H   0  0  0  0  0  0  0  0  0  0  0  0
    6.7003    9.7953   24.9212 H   0  0  0  0  0  0  0  0  0  0  0  0
   12.4055   11.6225   22.3169 H   0  0  0  0  0  0  0  0  0  0  0  0
   12.6612   17.9551   19.4167 H   0  0  0  0  0  0  0  0  0  0  0  0
   13.4216   19.4219   20.0477 H   0  0  0  0  0  0  0  0  0  0  0  0
   11.8939   18.8502   20.7366 H   0  0  0  0  0  0  0  0  0  0  0  0
   14.9734   16.7036   19.9675 H   0  0  0  0  0  0  0  0  0  0  0  0
   15.6378   16.8505   21.6021 H   0  0  0  0  0  0  0  0  0  0  0  0
   15.5719   18.2662   20.5444 H   0  0  0  0  0  0  0  0  0  0  0  0
   13.7717   18.3453   22.2456 H   0  0  0  0  0  0  0  0  0  0  0  0
    4.8557   12.9689   25.4691 H   0  0  0  0  0  0  0  0  0  0  0  0
  1  3  2  0  0  0  0
  1  6  1  0  0  0  0
  2  4  1  0  0  0  0
  2  6  2  0  0  0  0
  3  8  1  0  0  0  0
  4  8  2  0  0  0  0
  5  7  1  0  0  0  0
  5 18  2  0  0  0  0
  6 11  1  0  0  0  0
  7  9  2  0  0  0  0
  7 13  1  0  0  0  0
  8 16  1  0  0  0  0
  9 19  1  0  0  0  0
  9 20  1  0  0  0  0
 10 11  1  0  0  0  0
 10 12  2  0  0  0  0
 11 19  2  0  0  0  0
 12 17  1  0  0  0  0
 12 20  1  0  0  0  0
 13 21  2  0  0  0  0
 13 22  1  0  0  0  0
 14 16  1  0  0  0  0
 15 16  1  0  0  0  0
 17 23  1  0  0  0  0
 17 24  1  0  0  0  0
 17 25  1  0  0  0  0
 18 20  1  0  0  0  0
  1 26  1  0  0  0  0
  2 27  1  0  0  0  0
  3 28  1  0  0  0  0
  4 29  1  0  0  0  0
  5 30  1  0  0  0  0
 10 31  1  0  0  0  0
 14 32  1  0  0  0  0
 14 33  1  0  0  0  0
 14 34  1  0  0  0  0
 15 35  1  0  0  0  0
 15 36  1  0  0  0  0
 15 37  1  0  0  0  0
 16 38  1  0  0  0  0
 22 39  1  0  0  0  0
M  END
> <id>
EN300-228917

> <smiles>
CC(C)C=1C=CC(=CC1)C=2C=C(N3N=CC(C(=O)O)=C3N2)C(F)(F)F

> <MDLNUMBER>
MFCD04967188

> <IUPAC Name>
5-[4-(propan-2-yl)phenyl]-7-(trifluoromethyl)pyrazolo[1,5-a]pyrimidine-3-carboxylic acid

> <CAS>
725699-04-7

> <Purity>
95

> <URL>
https://www.enaminestore.com/catalog/EN300-228917

> <ROCS_ShapeQuery>
x0446_0A_x1080_0A_x0929_0A_x0812_0A_x0719_0A_x1140_0A_x0528_0A_x0310_0A

> <ROCS_TanimotoCombo>
0.415 

> <ROCS_ShapeTanimoto>
0.263 

> <ROCS_ColorTanimoto>
0.153 

> <ROCS_RefTversky>
0.238 

> <ROCS_RefColorTversky>
0.171 

> <ROCS_RefTverskyCombo>
0.409 

> <ROCS_FitTversky>
1.634 

> <ROCS_FitColorTversky>
0.586 

> <ROCS_FitTverskyCombo>
2.220 

> <ROCS_ColorScore>
-6.118

> <ROCS_Overlap>
2818.907

> <ROCS_Rank>
306                 

$$$$
untitled-dbase-485222_6
  -OEChem-02082415563D

 42 43  0     1  0  0  0  0  0999 V2000
    6.2337   12.6315   25.0591 C   0  0  0  0  0  0  0  0  0  0  0  0
    9.8852   14.3942   21.9334 C   0  0  0  0  0  0  0  0  0  0  0  0
    9.4166    9.8557   23.6136 C   0  0  0  0  0  0  0  0  0  0  0  0
   10.2442   10.7243   24.5771 C   0  0  0  0  0  0  0  0  0  0  0  0
    7.3339   11.2743   23.3040 C   0  0  0  0  0  0  0  0  0  0  0  0
    8.7139   12.7231   24.9097 C   0  0  0  0  0  0  0  0  0  0  0  0
    7.4655   11.8470   24.7238 C   0  0  1  0  0  0  0  0  0  0  0  0
    8.6855   10.8518   22.6942 C   0  0  1  0  0  0  0  0  0  0  0  0
    9.9507   12.1794   24.1666 C   0  0  2  0  0  0  0  0  0  0  0  0
    9.6756   12.0233   22.6654 C   0  0  0  0  0  0  0  0  0  0  0  0
   11.2165   16.5592   23.2335 C   0  0  0  0  0  0  0  0  0  0  0  0
   13.2382   15.0685   23.2400 C   0  0  0  0  0  0  0  0  0  0  0  0
   12.2240   15.7908   21.0588 C   0  0  0  0  0  0  0  0  0  0  0  0
   11.9418   15.4225   22.5146 C   0  0  0  0  0  0  0  0  0  0  0  0
    9.1786   13.2069   22.0249 N   0  0  0  0  0  0  0  0  0  0  0  0
    6.0987   13.8337   24.8866 O   0  0  0  0  0  0  0  0  0  0  0  0
    9.4844   15.4194   21.3922 O   0  0  0  0  0  0  0  0  0  0  0  0
    5.2810   11.8244   25.5865 O   0  0  0  0  0  0  0  0  0  0  0  0
   11.1040   14.2613   22.5370 O   0  0  0  0  0  0  0  0  0  0  0  0
   10.0929    9.2257   23.0235 H   0  0  0  0  0  0  0  0  0  0  0  0
    8.7313    9.1888   24.1468 H   0  0  0  0  0  0  0  0  0  0  0  0
   10.0020   10.5220   25.6255 H   0  0  0  0  0  0  0  0  0  0  0  0
   11.3094   10.5025   24.4401 H   0  0  0  0  0  0  0  0  0  0  0  0
    6.6579   10.4097   23.3290 H   0  0  0  0  0  0  0  0  0  0  0  0
    6.8519   12.0059   22.6424 H   0  0  0  0  0  0  0  0  0  0  0  0
    8.5151   13.7501   24.5772 H   0  0  0  0  0  0  0  0  0  0  0  0
    8.9373   12.8006   25.9818 H   0  0  0  0  0  0  0  0  0  0  0  0
    7.5095   11.0135   25.4361 H   0  0  0  0  0  0  0  0  0  0  0  0
    8.5256   10.4248   21.6984 H   0  0  0  0  0  0  0  0  0  0  0  0
   10.8134   12.8256   24.3606 H   0  0  0  0  0  0  0  0  0  0  0  0
   10.5923   11.7383   22.1340 H   0  0  0  0  0  0  0  0  0  0  0  0
   10.2854   16.8163   22.7159 H   0  0  0  0  0  0  0  0  0  0  0  0
   10.9773   16.2942   24.2685 H   0  0  0  0  0  0  0  0  0  0  0  0
   11.8272   17.4693   23.2415 H   0  0  0  0  0  0  0  0  0  0  0  0
   13.7619   14.2534   22.7276 H   0  0  0  0  0  0  0  0  0  0  0  0
   13.0323   14.7127   24.2560 H   0  0  0  0  0  0  0  0  0  0  0  0
   13.9131   15.9281   23.3038 H   0  0  0  0  0  0  0  0  0  0  0  0
   12.7442   14.9757   20.5429 H   0  0  0  0  0  0  0  0  0  0  0  0
   11.3013   16.0122   20.5127 H   0  0  0  0  0  0  0  0  0  0  0  0
   12.8825   16.6649   20.9986 H   0  0  0  0  0  0  0  0  0  0  0  0
    8.2468   13.1716   21.6112 H   0  0  0  0  0  0  0  0  0  0  0  0
    4.4660   12.3203   25.8148 H   0  0  0  0  0  0  0  0  0  0  0  0
  1  7  1  6  0  0  0
  1 16  2  0  0  0  0
  1 18  1  0  0  0  0
  2 15  1  0  0  0  0
  2 17  2  0  0  0  0
  2 19  1  0  0  0  0
  3  4  1  0  0  0  0
  3  8  1  1  0  0  0
  4  9  1  1  0  0  0
  5  7  1  0  0  0  0
  5  8  1  0  0  0  0
  6  7  1  0  0  0  0
  6  9  1  0  0  0  0
  8 10  1  0  0  0  0
  9 10  1  0  0  0  0
 10 15  1  0  0  0  0
 11 14  1  0  0  0  0
 12 14  1  0  0  0  0
 13 14  1  0  0  0  0
 14 19  1  0  0  0  0
  3 20  1  0  0  0  0
  3 21  1  0  0  0  0
  4 22  1  0  0  0  0
  4 23  1  0  0  0  0
  5 24  1  0  0  0  0
  5 25  1  0  0  0  0
  6 26  1  0  0  0  0
  6 27  1  0  0  0  0
  7 28  1  0  0  0  0
  8 29  1  0  0  0  0
  9 30  1  0  0  0  0
 10 31  1  0  0  0  0
 11 32  1  0  0  0  0
 11 33  1  0  0  0  0
 11 34  1  0  0  0  0
 12 35  1  0  0  0  0
 12 36  1  0  0  0  0
 12 37  1  0  0  0  0
 13 38  1  0  0  0  0
 13 39  1  0  0  0  0
 13 40  1  0  0  0  0
 15 41  1  0  0  0  0
 18 42  1  0  0  0  0
M  END
> <id>
EN300-27783888

> <smiles>
CC(C)(C)OC(=O)NC1[C@H]2CC[C@@H]1C[C@H](C2)C(=O)O

> <IUPAC Name>
(1R,3S,5S)-8-{[(tert-butoxy)carbonyl]amino}bicyclo[3.2.1]octane-3-carboxylic acid

> <CAS>
2648851-62-9

> <URL>
https://www.enaminestore.com/catalog/EN300-27783888

> <ROCS_ShapeQuery>
x0446_0A_x1080_0A_x0929_0A_x0812_0A_x0719_0A_x1140_0A_x0528_0A_x0310_0A

> <ROCS_TanimotoCombo>
0.415 

> <ROCS_ShapeTanimoto>
0.238 

> <ROCS_ColorTanimoto>
0.177 

> <ROCS_RefTversky>
0.215 

> <ROCS_RefColorTversky>
0.205 

> <ROCS_RefTverskyCombo>
0.420 

> <ROCS_FitTversky>
1.803 

> <ROCS_FitColorTversky>
0.563 

> <ROCS_FitTverskyCombo>
2.367 

> <ROCS_ColorScore>
-7.364

> <ROCS_Overlap>
2543.818

> <ROCS_Rank>
307                 

$$$$
untitled-dbase-366574_1
  -OEChem-02082415563D

 38 40  0     0  0  0  0  0  0999 V2000
    9.3833   15.4039   18.7628 C   0  0  0  0  0  0  0  0  0  0  0  0
    9.5251   14.2281   19.3822 C   0  0  0  0  0  0  0  0  0  0  0  0
    9.5077   14.1528   20.8675 C   0  0  0  0  0  0  0  0  0  0  0  0
   10.8562   13.3346   23.1958 C   0  0  0  0  0  0  0  0  0  0  0  0
    7.4828   10.3391   24.5355 C   0  0  0  0  0  0  0  0  0  0  0  0
    9.9607   10.6847   24.4623 C   0  0  0  0  0  0  0  0  0  0  0  0
    8.4304   12.6249   24.9365 C   0  0  0  0  0  0  0  0  0  0  0  0
    8.7089   10.2165   22.3532 C   0  0  0  0  0  0  0  0  0  0  0  0
    7.1710   12.1526   22.8397 C   0  0  0  0  0  0  0  0  0  0  0  0
    8.6559   11.1175   25.1531 C   0  0  0  0  0  0  0  0  0  0  0  0
    7.3928   10.6413   23.0307 C   0  0  0  0  0  0  0  0  0  0  0  0
    9.8988   11.0046   22.9504 C   0  0  0  0  0  0  0  0  0  0  0  0
    8.3644   12.9465   23.4234 C   0  0  0  0  0  0  0  0  0  0  0  0
    9.6828   12.5214   22.7258 C   0  0  0  0  0  0  0  0  0  0  0  0
   12.0353   13.0258   22.5597 N   0  0  0  0  0  0  0  0  0  0  0  0
    9.6684   12.8548   21.3179 N   0  0  0  0  0  0  0  0  0  0  0  0
    9.3631   15.1431   21.5771 O   0  0  0  0  0  0  0  0  0  0  0  0
   10.7455   14.2023   24.0585 O   0  0  0  0  0  0  0  0  0  0  0  0
    9.3981   15.4510   17.6789 H   0  0  0  0  0  0  0  0  0  0  0  0
    9.2503   16.3358   19.3013 H   0  0  0  0  0  0  0  0  0  0  0  0
    9.6554   13.3187   18.8058 H   0  0  0  0  0  0  0  0  0  0  0  0
    7.6203    9.2626   24.6957 H   0  0  0  0  0  0  0  0  0  0  0  0
    6.5447   10.6171   25.0317 H   0  0  0  0  0  0  0  0  0  0  0  0
   10.8139   11.1946   24.9252 H   0  0  0  0  0  0  0  0  0  0  0  0
   10.1231    9.6096   24.6094 H   0  0  0  0  0  0  0  0  0  0  0  0
    7.4989   12.9371   25.4253 H   0  0  0  0  0  0  0  0  0  0  0  0
    9.2379   13.1947   25.4114 H   0  0  0  0  0  0  0  0  0  0  0  0
    8.8687    9.1401   22.4941 H   0  0  0  0  0  0  0  0  0  0  0  0
    8.6437   10.3812   21.2712 H   0  0  0  0  0  0  0  0  0  0  0  0
    7.0486   12.3793   21.7740 H   0  0  0  0  0  0  0  0  0  0  0  0
    6.2405   12.4608   23.3327 H   0  0  0  0  0  0  0  0  0  0  0  0
    8.7159   10.9023   26.2258 H   0  0  0  0  0  0  0  0  0  0  0  0
    6.5555   10.0867   22.5927 H   0  0  0  0  0  0  0  0  0  0  0  0
   10.8341   10.6732   22.4825 H   0  0  0  0  0  0  0  0  0  0  0  0
    8.1889   14.0224   23.2997 H   0  0  0  0  0  0  0  0  0  0  0  0
   12.0300   12.3019   21.8486 H   0  0  0  0  0  0  0  0  0  0  0  0
   12.9108   13.4927   22.7728 H   0  0  0  0  0  0  0  0  0  0  0  0
    9.7504   12.0900   20.6556 H   0  0  0  0  0  0  0  0  0  0  0  0
  1  2  2  0  0  0  0
  2  3  1  0  0  0  0
  3 16  1  0  0  0  0
  3 17  2  0  0  0  0
  4 14  1  0  0  0  0
  4 15  1  0  0  0  0
  4 18  2  0  0  0  0
  5 10  1  0  0  0  0
  5 11  1  0  0  0  0
  6 10  1  0  0  0  0
  6 12  1  0  0  0  0
  7 10  1  0  0  0  0
  7 13  1  0  0  0  0
  8 11  1  0  0  0  0
  8 12  1  0  0  0  0
  9 11  1  0  0  0  0
  9 13  1  0  0  0  0
 12 14  1  0  0  0  0
 13 14  1  0  0  0  0
 14 16  1  0  0  0  0
  1 19  1  0  0  0  0
  1 20  1  0  0  0  0
  2 21  1  0  0  0  0
  5 22  1  0  0  0  0
  5 23  1  0  0  0  0
  6 24  1  0  0  0  0
  6 25  1  0  0  0  0
  7 26  1  0  0  0  0
  7 27  1  0  0  0  0
  8 28  1  0  0  0  0
  8 29  1  0  0  0  0
  9 30  1  0  0  0  0
  9 31  1  0  0  0  0
 10 32  1  0  0  0  0
 11 33  1  0  0  0  0
 12 34  1  0  0  0  0
 13 35  1  0  0  0  0
 15 36  1  0  0  0  0
 15 37  1  0  0  0  0
 16 38  1  0  0  0  0
M  END
> <id>
EN300-26573784

> <smiles>
NC(=O)C1(NC(=O)C=C)C2CC3CC(C2)CC1C3

> <IUPAC Name>
2-(prop-2-enamido)adamantane-2-carboxamide

> <CAS>
2393811-24-8

> <URL>
https://www.enaminestore.com/catalog/EN300-26573784

> <ROCS_ShapeQuery>
x0446_0A_x1080_0A_x0929_0A_x0812_0A_x0719_0A_x1140_0A_x0528_0A_x0310_0A

> <ROCS_TanimotoCombo>
0.415 

> <ROCS_ShapeTanimoto>
0.221 

> <ROCS_ColorTanimoto>
0.195 

> <ROCS_RefTversky>
0.202 

> <ROCS_RefColorTversky>
0.221 

> <ROCS_RefTverskyCombo>
0.423 

> <ROCS_FitTversky>
1.708 

> <ROCS_FitColorTversky>
0.622 

> <ROCS_FitTverskyCombo>
2.329 

> <ROCS_ColorScore>
-7.923

> <ROCS_Overlap>
2385.590

> <ROCS_Rank>
308                 

$$$$
untitled-dbase-119694_1
  -OEChem-02082415563D

 37 39  0     0  0  0  0  0  0999 V2000
    8.1091   10.0824   24.7366 C   0  0  0  0  0  0  0  0  0  0  0  0
   10.3309   11.2375   24.6055 C   0  0  0  0  0  0  0  0  0  0  0  0
    9.2940   10.2752   22.5351 C   0  0  0  0  0  0  0  0  0  0  0  0
    8.2490   12.5689   25.0328 C   0  0  0  0  0  0  0  0  0  0  0  0
    7.2096   11.6045   22.9578 C   0  0  0  0  0  0  0  0  0  0  0  0
    9.4364   12.7620   22.8262 C   0  0  0  0  0  0  0  0  0  0  0  0
    8.9602   11.2313   25.3024 C   0  0  0  0  0  0  0  0  0  0  0  0
    7.9181   10.2643   23.2217 C   0  0  0  0  0  0  0  0  0  0  0  0
   10.1510   11.4251   23.0899 C   0  0  0  0  0  0  0  0  0  0  0  0
    8.0502   12.7787   23.5130 C   0  0  0  0  0  0  0  0  0  0  0  0
    6.1398   16.8308   22.3785 C   0  0  0  0  0  0  0  0  0  0  0  0
    7.3423   14.1102   23.2486 C   0  0  0  0  0  0  0  0  0  0  0  0
    6.3245   15.7532   21.3900 N   0  0  0  0  0  0  0  0  0  0  0  0
    8.8791   15.3749   21.5490 O   0  0  0  0  0  0  0  0  0  0  0  0
    7.3922   13.5207   20.7079 O   0  0  0  0  0  0  0  0  0  0  0  0
    7.6164   14.6506   21.5998 S   0  0  0  0  0  0  0  0  0  0  0  0
    8.5960    9.1206   24.9397 H   0  0  0  0  0  0  0  0  0  0  0  0
    7.1333   10.0570   25.2370 H   0  0  0  0  0  0  0  0  0  0  0  0
   10.9542   12.0436   25.0116 H   0  0  0  0  0  0  0  0  0  0  0  0
   10.8572   10.2963   24.8064 H   0  0  0  0  0  0  0  0  0  0  0  0
    9.8018    9.3168   22.6993 H   0  0  0  0  0  0  0  0  0  0  0  0
    9.1712   10.3888   21.4510 H   0  0  0  0  0  0  0  0  0  0  0  0
    7.2796   12.5808   25.5476 H   0  0  0  0  0  0  0  0  0  0  0  0
    8.8398   13.3918   25.4554 H   0  0  0  0  0  0  0  0  0  0  0  0
    7.0485   11.7298   21.8793 H   0  0  0  0  0  0  0  0  0  0  0  0
    6.2165   11.5944   23.4253 H   0  0  0  0  0  0  0  0  0  0  0  0
   10.0543   13.5896   23.1983 H   0  0  0  0  0  0  0  0  0  0  0  0
    9.3258   12.9134   21.7447 H   0  0  0  0  0  0  0  0  0  0  0  0
    9.0945   11.0953   26.3814 H   0  0  0  0  0  0  0  0  0  0  0  0
    7.3129    9.4420   22.8238 H   0  0  0  0  0  0  0  0  0  0  0  0
   11.1305   11.4266   22.5987 H   0  0  0  0  0  0  0  0  0  0  0  0
    7.1224   17.1860   22.7225 H   0  0  0  0  0  0  0  0  0  0  0  0
    5.5908   17.6635   21.9146 H   0  0  0  0  0  0  0  0  0  0  0  0
    5.5678   16.4473   23.2363 H   0  0  0  0  0  0  0  0  0  0  0  0
    7.7248   14.8753   23.9192 H   0  0  0  0  0  0  0  0  0  0  0  0
    6.2706   13.9971   23.3898 H   0  0  0  0  0  0  0  0  0  0  0  0
    5.4445   15.3695   21.0217 H   0  0  0  0  0  0  0  0  0  0  0  0
  1  7  1  0  0  0  0
  1  8  1  0  0  0  0
  2  7  1  0  0  0  0
  2  9  1  0  0  0  0
  3  8  1  0  0  0  0
  3  9  1  0  0  0  0
  4  7  1  0  0  0  0
  4 10  1  0  0  0  0
  5  8  1  0  0  0  0
  5 10  1  0  0  0  0
  6  9  1  0  0  0  0
  6 10  1  0  0  0  0
 10 12  1  0  0  0  0
 11 13  1  0  0  0  0
 12 16  1  0  0  0  0
 13 16  1  0  0  0  0
 14 16  2  0  0  0  0
 15 16  2  0  0  0  0
  1 17  1  0  0  0  0
  1 18  1  0  0  0  0
  2 19  1  0  0  0  0
  2 20  1  0  0  0  0
  3 21  1  0  0  0  0
  3 22  1  0  0  0  0
  4 23  1  0  0  0  0
  4 24  1  0  0  0  0
  5 25  1  0  0  0  0
  5 26  1  0  0  0  0
  6 27  1  0  0  0  0
  6 28  1  0  0  0  0
  7 29  1  0  0  0  0
  8 30  1  0  0  0  0
  9 31  1  0  0  0  0
 11 32  1  0  0  0  0
 11 33  1  0  0  0  0
 11 34  1  0  0  0  0
 12 35  1  0  0  0  0
 12 36  1  0  0  0  0
 13 37  1  0  0  0  0
M  END
> <id>
EN300-814050

> <smiles>
CNS(=O)(=O)CC1(CC2CC3CC(C2)C1)C3

> <IUPAC Name>
1-(adamantan-1-yl)-N-methylmethanesulfonamide

> <CAS>
2137760-86-0

> <URL>
https://www.enaminestore.com/catalog/EN300-814050

> <ROCS_ShapeQuery>
x0446_0A_x1080_0A_x0929_0A_x0812_0A_x0719_0A_x1140_0A_x0528_0A_x0310_0A

> <ROCS_TanimotoCombo>
0.415 

> <ROCS_ShapeTanimoto>
0.204 

> <ROCS_ColorTanimoto>
0.211 

> <ROCS_RefTversky>
0.188 

> <ROCS_RefColorTversky>
0.227 

> <ROCS_RefTverskyCombo>
0.415 

> <ROCS_FitTversky>
1.744 

> <ROCS_FitColorTversky>
0.748 

> <ROCS_FitTverskyCombo>
2.491 

> <ROCS_ColorScore>
-8.116

> <ROCS_Overlap>
2218.731

> <ROCS_Rank>
309                 

$$$$
untitled-dbase-225209_1
  -OEChem-02082415563D

 34 36  0     0  0  0  0  0  0999 V2000
    9.8574   15.0007   22.3798 C   0  0  0  0  0  0  0  0  0  0  0  0
    9.3530   10.2759   24.7792 C   0  0  0  0  0  0  0  0  0  0  0  0
    8.9267   10.3682   22.3099 C   0  0  0  0  0  0  0  0  0  0  0  0
    7.0451   10.7525   23.9223 C   0  0  0  0  0  0  0  0  0  0  0  0
   10.2539   12.1826   23.4217 C   0  0  0  0  0  0  0  0  0  0  0  0
    8.3682   12.5678   25.0378 C   0  0  0  0  0  0  0  0  0  0  0  0
    7.9406   12.6603   22.5630 C   0  0  0  0  0  0  0  0  0  0  0  0
    9.9475   10.6747   23.4183 C   0  0  0  0  0  0  0  0  0  0  0  0
    8.0565   11.0610   25.0388 C   0  0  0  0  0  0  0  0  0  0  0  0
    7.6280   11.1537   22.5571 C   0  0  0  0  0  0  0  0  0  0  0  0
    8.9625   12.9960   23.6751 C   0  0  0  0  0  0  0  0  0  0  0  0
    9.2711   14.4955   23.6779 C   0  0  0  0  0  0  0  0  0  0  0  0
   11.3534   14.9382   22.2620 C   0  0  0  0  0  0  0  0  0  0  0  0
    9.1656   15.4407   21.4631 O   0  0  0  0  0  0  0  0  0  0  0  0
   11.9257   14.4229   23.3787 F   0  0  0  0  0  0  0  0  0  0  0  0
   11.7448   14.1613   21.2212 F   0  0  0  0  0  0  0  0  0  0  0  0
   11.9034   16.1632   22.0674 F   0  0  0  0  0  0  0  0  0  0  0  0
    9.1480    9.1984   24.7970 H   0  0  0  0  0  0  0  0  0  0  0  0
   10.0780   10.4751   25.5779 H   0  0  0  0  0  0  0  0  0  0  0  0
    9.3450   10.6338   21.3313 H   0  0  0  0  0  0  0  0  0  0  0  0
    8.7142    9.2923   22.2838 H   0  0  0  0  0  0  0  0  0  0  0  0
    6.7993    9.6834   23.9249 H   0  0  0  0  0  0  0  0  0  0  0  0
    6.1091   11.2947   24.1040 H   0  0  0  0  0  0  0  0  0  0  0  0
   11.0003   12.4050   24.1951 H   0  0  0  0  0  0  0  0  0  0  0  0
   10.7008   12.4697   22.4612 H   0  0  0  0  0  0  0  0  0  0  0  0
    7.4510   13.1337   25.2464 H   0  0  0  0  0  0  0  0  0  0  0  0
    9.0716   12.7990   25.8481 H   0  0  0  0  0  0  0  0  0  0  0  0
    8.3348   12.9586   21.5828 H   0  0  0  0  0  0  0  0  0  0  0  0
    7.0137   13.2280   22.7155 H   0  0  0  0  0  0  0  0  0  0  0  0
   10.8696   10.1108   23.2381 H   0  0  0  0  0  0  0  0  0  0  0  0
    7.6365   10.7714   26.0085 H   0  0  0  0  0  0  0  0  0  0  0  0
    6.9042   10.9297   21.7656 H   0  0  0  0  0  0  0  0  0  0  0  0
    8.3481   15.0471   23.8734 H   0  0  0  0  0  0  0  0  0  0  0  0
    9.9821   14.7098   24.4797 H   0  0  0  0  0  0  0  0  0  0  0  0
  1 12  1  0  0  0  0
  1 13  1  0  0  0  0
  1 14  2  0  0  0  0
  2  8  1  0  0  0  0
  2  9  1  0  0  0  0
  3  8  1  0  0  0  0
  3 10  1  0  0  0  0
  4  9  1  0  0  0  0
  4 10  1  0  0  0  0
  5  8  1  0  0  0  0
  5 11  1  0  0  0  0
  6  9  1  0  0  0  0
  6 11  1  0  0  0  0
  7 10  1  0  0  0  0
  7 11  1  0  0  0  0
 11 12  1  0  0  0  0
 13 15  1  0  0  0  0
 13 16  1  0  0  0  0
 13 17  1  0  0  0  0
  2 18  1  0  0  0  0
  2 19  1  0  0  0  0
  3 20  1  0  0  0  0
  3 21  1  0  0  0  0
  4 22  1  0  0  0  0
  4 23  1  0  0  0  0
  5 24  1  0  0  0  0
  5 25  1  0  0  0  0
  6 26  1  0  0  0  0
  6 27  1  0  0  0  0
  7 28  1  0  0  0  0
  7 29  1  0  0  0  0
  8 30  1  0  0  0  0
  9 31  1  0  0  0  0
 10 32  1  0  0  0  0
 12 33  1  0  0  0  0
 12 34  1  0  0  0  0
M  END
> <id>
EN300-1931988

> <smiles>
FC(F)(F)C(=O)CC1(CC2CC3CC(C2)C1)C3

> <IUPAC Name>
3-(adamantan-1-yl)-1,1,1-trifluoropropan-2-one

> <CAS>
922527-31-9

> <URL>
https://www.enaminestore.com/catalog/EN300-1931988

> <ROCS_ShapeQuery>
x0446_0A_x1080_0A_x0929_0A_x0812_0A_x0719_0A_x1140_0A_x0528_0A_x0310_0A

> <ROCS_TanimotoCombo>
0.415 

> <ROCS_ShapeTanimoto>
0.231 

> <ROCS_ColorTanimoto>
0.184 

> <ROCS_RefTversky>
0.209 

> <ROCS_RefColorTversky>
0.195 

> <ROCS_RefTverskyCombo>
0.404 

> <ROCS_FitTversky>
1.825 

> <ROCS_FitColorTversky>
0.776 

> <ROCS_FitTverskyCombo>
2.601 

> <ROCS_ColorScore>
-6.946

> <ROCS_Overlap>
2466.091

> <ROCS_Rank>
310                 

$$$$
untitled-dbase-124878_0
  -OEChem-02082415563D

 50 55  0     0  0  0  0  0  0999 V2000
   12.0939   17.1187   19.5196 C   0  0  0  0  0  0  0  0  0  0  0  0
   10.2814    7.8559   22.6244 C   0  0  0  0  0  0  0  0  0  0  0  0
   13.3291   16.8428   20.1043 C   0  0  0  0  0  0  0  0  0  0  0  0
    9.7963    7.3764   23.8403 C   0  0  0  0  0  0  0  0  0  0  0  0
   10.9185   16.6039   20.0773 C   0  0  0  0  0  0  0  0  0  0  0  0
   10.1868    9.2169   22.3143 C   0  0  0  0  0  0  0  0  0  0  0  0
    6.7479   15.3949   23.4712 C   0  0  0  0  0  0  0  0  0  0  0  0
   13.3917   16.0513   21.2467 C   0  0  0  0  0  0  0  0  0  0  0  0
    9.2152    8.2562   24.7480 C   0  0  0  0  0  0  0  0  0  0  0  0
    5.5168   15.7420   22.9097 C   0  0  0  0  0  0  0  0  0  0  0  0
    6.8222   13.3507   22.1506 C   0  0  0  0  0  0  0  0  0  0  0  0
   10.9643   15.8055   21.2284 C   0  0  0  0  0  0  0  0  0  0  0  0
    9.6049   10.1165   23.2181 C   0  0  0  0  0  0  0  0  0  0  0  0
    7.3970   14.2061   23.0937 C   0  0  0  0  0  0  0  0  0  0  0  0
   12.2097   15.5459   21.7899 C   0  0  0  0  0  0  0  0  0  0  0  0
    9.1289    9.6106   24.4228 C   0  0  0  0  0  0  0  0  0  0  0  0
    4.9709   14.8801   21.9808 C   0  0  0  0  0  0  0  0  0  0  0  0
    5.6061   13.7166   21.6113 C   0  0  0  0  0  0  0  0  0  0  0  0
    9.7749   15.2354   21.8653 C   0  0  0  0  0  0  0  0  0  0  0  0
    9.4744   11.5523   22.9595 C   0  0  0  0  0  0  0  0  0  0  0  0
    9.8797   14.4767   22.9731 C   0  0  0  0  0  0  0  0  0  0  0  0
    8.9079   12.3701   23.8674 C   0  0  0  0  0  0  0  0  0  0  0  0
   11.2184   14.1959   23.5694 C   0  0  0  0  0  0  0  0  0  0  0  0
    8.3935   11.8225   25.1565 C   0  0  0  0  0  0  0  0  0  0  0  0
    3.7482   13.8650   20.5123 C   0  0  0  0  0  0  0  0  0  0  0  0
    8.7316   13.8502   23.7175 C   0  0  0  0  0  0  0  0  0  0  0  0
   11.3485   13.5019   24.5733 O   0  0  0  0  0  0  0  0  0  0  0  0
    7.8648   12.5395   26.0008 O   0  0  0  0  0  0  0  0  0  0  0  0
   12.3255   14.7509   22.9425 O   0  0  0  0  0  0  0  0  0  0  0  0
    8.5325   10.4582   25.3713 O   0  0  0  0  0  0  0  0  0  0  0  0
    3.7873   15.0515   21.3314 O   0  0  0  0  0  0  0  0  0  0  0  0
    4.8997   13.0137   20.6846 O   0  0  0  0  0  0  0  0  0  0  0  0
    8.5870   15.5423   21.2364 O   0  0  0  0  0  0  0  0  0  0  0  0
    9.9694   11.9608   21.7394 O   0  0  0  0  0  0  0  0  0  0  0  0
   12.0430   17.7364   18.6274 H   0  0  0  0  0  0  0  0  0  0  0  0
   10.7352    7.1704   21.9143 H   0  0  0  0  0  0  0  0  0  0  0  0
   14.2391   17.2443   19.6687 H   0  0  0  0  0  0  0  0  0  0  0  0
    9.8717    6.3194   24.0775 H   0  0  0  0  0  0  0  0  0  0  0  0
    9.9739   16.8410   19.5938 H   0  0  0  0  0  0  0  0  0  0  0  0
   10.5765    9.5538   21.3568 H   0  0  0  0  0  0  0  0  0  0  0  0
    7.2034   16.0553   24.2051 H   0  0  0  0  0  0  0  0  0  0  0  0
   14.3516   15.8332   21.7052 H   0  0  0  0  0  0  0  0  0  0  0  0
    8.8355    7.8872   25.6960 H   0  0  0  0  0  0  0  0  0  0  0  0
    5.0137   16.6580   23.1973 H   0  0  0  0  0  0  0  0  0  0  0  0
    7.3129   12.4312   21.8497 H   0  0  0  0  0  0  0  0  0  0  0  0
    2.8484   13.2931   20.7669 H   0  0  0  0  0  0  0  0  0  0  0  0
    3.6889   14.1665   19.4604 H   0  0  0  0  0  0  0  0  0  0  0  0
    8.7714   14.2666   24.7314 H   0  0  0  0  0  0  0  0  0  0  0  0
    8.7569   16.0944   20.4660 H   0  0  0  0  0  0  0  0  0  0  0  0
    9.8503   12.9111   21.6387 H   0  0  0  0  0  0  0  0  0  0  0  0
  1  3  1  0  0  0  0
  1  5  2  0  0  0  0
  2  4  1  0  0  0  0
  2  6  2  0  0  0  0
  3  8  2  0  0  0  0
  4  9  2  0  0  0  0
  5 12  1  0  0  0  0
  6 13  1  0  0  0  0
  7 10  2  0  0  0  0
  7 14  1  0  0  0  0
  8 15  1  0  0  0  0
  9 16  1  0  0  0  0
 10 17  1  0  0  0  0
 11 14  2  0  0  0  0
 11 18  1  0  0  0  0
 12 15  2  0  0  0  0
 12 19  1  0  0  0  0
 13 16  2  0  0  0  0
 13 20  1  0  0  0  0
 14 26  1  0  0  0  0
 15 29  1  0  0  0  0
 16 30  1  0  0  0  0
 17 18  2  0  0  0  0
 17 31  1  0  0  0  0
 18 32  1  0  0  0  0
 19 21  2  0  0  0  0
 19 33  1  0  0  0  0
 20 22  2  0  0  0  0
 20 34  1  0  0  0  0
 21 23  1  0  0  0  0
 21 26  1  0  0  0  0
 22 24  1  0  0  0  0
 22 26  1  0  0  0  0
 23 27  2  0  0  0  0
 23 29  1  0  0  0  0
 24 28  2  0  0  0  0
 24 30  1  0  0  0  0
 25 31  1  0  0  0  0
 25 32  1  0  0  0  0
  1 35  1  0  0  0  0
  2 36  1  0  0  0  0
  3 37  1  0  0  0  0
  4 38  1  0  0  0  0
  5 39  1  0  0  0  0
  6 40  1  0  0  0  0
  7 41  1  0  0  0  0
  8 42  1  0  0  0  0
  9 43  1  0  0  0  0
 10 44  1  0  0  0  0
 11 45  1  0  0  0  0
 25 46  1  0  0  0  0
 25 47  1  0  0  0  0
 26 48  1  0  0  0  0
 33 49  1  0  0  0  0
 34 50  1  0  0  0  0
M  END
> <id>
EN300-1266067

> <smiles>
OC1=C(C(C=2C=CC=3OCOC3C2)C4=C(O)C=5C=CC=CC5OC4=O)C(=O)OC=6C=CC=CC16

> <MDLNUMBER>
MFCD01537150

> <IUPAC Name>
3-[(1,3-dioxaindan-5-yl)(4-hydroxy-2-oxo-2H-chromen-3-yl)methyl]-4-hydroxy-2H-chromen-2-one

> <CAS>
4506-25-6

> <URL>
https://www.enaminestore.com/catalog/EN300-1266067

> <ROCS_ShapeQuery>
x0446_0A_x1080_0A_x0929_0A_x0812_0A_x0719_0A_x1140_0A_x0528_0A_x0310_0A

> <ROCS_TanimotoCombo>
0.415 

> <ROCS_ShapeTanimoto>
0.286 

> <ROCS_ColorTanimoto>
0.129 

> <ROCS_RefTversky>
0.263 

> <ROCS_RefColorTversky>
0.162 

> <ROCS_RefTverskyCombo>
0.425 

> <ROCS_FitTversky>
1.436 

> <ROCS_FitColorTversky>
0.384 

> <ROCS_FitTverskyCombo>
1.820 

> <ROCS_ColorScore>
-5.836

> <ROCS_Overlap>
3120.671

> <ROCS_Rank>
311                 

$$$$
untitled-dbase-463076_1
  -OEChem-02082415563D

 29 31  0     0  0  0  0  0  0999 V2000
    5.6638   11.8773   25.9390 C   0  0  0  0  0  0  0  0  0  0  0  0
    5.7269   13.0893   25.2580 C   0  0  0  0  0  0  0  0  0  0  0  0
    9.5426   10.2875   23.4693 C   0  0  0  0  0  0  0  0  0  0  0  0
    6.5949   10.8744   25.6679 C   0  0  0  0  0  0  0  0  0  0  0  0
    6.7213   13.3031   24.3031 C   0  0  0  0  0  0  0  0  0  0  0  0
    8.5482   10.0738   24.4243 C   0  0  0  0  0  0  0  0  0  0  0  0
    9.6057   11.4995   22.7882 C   0  0  0  0  0  0  0  0  0  0  0  0
    7.6027   11.0722   24.7099 C   0  0  0  0  0  0  0  0  0  0  0  0
    7.6668   12.3047   24.0173 C   0  0  0  0  0  0  0  0  0  0  0  0
    8.6745   12.5025   23.0593 C   0  0  0  0  0  0  0  0  0  0  0  0
    9.8374   14.5525   22.3089 C   0  0  0  0  0  0  0  0  0  0  0  0
   11.8676   16.0839   23.4434 C   0  0  0  0  0  0  0  0  0  0  0  0
    9.5293   15.5463   21.5078 N   0  0  0  0  0  0  0  0  0  0  0  0
    8.2598   15.2743   21.0500 N   0  0  0  0  0  0  0  0  0  0  0  0
    7.8022   14.1374   21.5601 N   0  0  0  0  0  0  0  0  0  0  0  0
    8.7901   13.6882   22.3468 N   0  0  0  0  0  0  0  0  0  0  0  0
   11.0793   13.7989   24.4592 O   0  0  0  0  0  0  0  0  0  0  0  0
   12.3378   13.8008   22.2770 O   0  0  0  0  0  0  0  0  0  0  0  0
   11.3495   14.4049   23.1621 S   0  0  0  0  0  0  0  0  0  0  0  0
    4.8892   11.7115   26.6822 H   0  0  0  0  0  0  0  0  0  0  0  0
    5.0015   13.8695   25.4698 H   0  0  0  0  0  0  0  0  0  0  0  0
   10.2677    9.5070   23.2578 H   0  0  0  0  0  0  0  0  0  0  0  0
    6.5264    9.9348   26.2122 H   0  0  0  0  0  0  0  0  0  0  0  0
    6.7343   14.2644   23.7946 H   0  0  0  0  0  0  0  0  0  0  0  0
    8.5180    9.1187   24.9445 H   0  0  0  0  0  0  0  0  0  0  0  0
   10.3874   11.6487   22.0468 H   0  0  0  0  0  0  0  0  0  0  0  0
   12.8180   16.0659   23.9791 H   0  0  0  0  0  0  0  0  0  0  0  0
   11.9831   16.5753   22.4761 H   0  0  0  0  0  0  0  0  0  0  0  0
   11.1026   16.5851   24.0383 H   0  0  0  0  0  0  0  0  0  0  0  0
  1  2  1  0  0  0  0
  1  4  2  0  0  0  0
  2  5  2  0  0  0  0
  3  6  1  0  0  0  0
  3  7  2  0  0  0  0
  4  8  1  0  0  0  0
  5  9  1  0  0  0  0
  6  8  2  0  0  0  0
  7 10  1  0  0  0  0
  8  9  1  0  0  0  0
  9 10  2  0  0  0  0
 10 16  1  0  0  0  0
 11 13  2  0  0  0  0
 11 16  1  0  0  0  0
 11 19  1  0  0  0  0
 12 19  1  0  0  0  0
 13 14  1  0  0  0  0
 14 15  2  0  0  0  0
 15 16  1  0  0  0  0
 17 19  2  0  0  0  0
 18 19  2  0  0  0  0
  1 20  1  0  0  0  0
  2 21  1  0  0  0  0
  3 22  1  0  0  0  0
  4 23  1  0  0  0  0
  5 24  1  0  0  0  0
  6 25  1  0  0  0  0
  7 26  1  0  0  0  0
 12 27  1  0  0  0  0
 12 28  1  0  0  0  0
 12 29  1  0  0  0  0
M  END
> <id>
EN300-1179894

> <smiles>
CS(=O)(=O)C1=NN=NN1C=2C=CC=C3C=CC=CC23

> <MDLNUMBER>
MFCD00683221

> <IUPAC Name>
5-methanesulfonyl-1-(naphthalen-1-yl)-1H-1,2,3,4-tetrazole

> <CAS>
329211-16-7

> <Purity>
95

> <URL>
https://www.enaminestore.com/catalog/EN300-1179894

> <ROCS_ShapeQuery>
x0446_0A_x1080_0A_x0929_0A_x0812_0A_x0719_0A_x1140_0A_x0528_0A_x0310_0A

> <ROCS_TanimotoCombo>
0.415 

> <ROCS_ShapeTanimoto>
0.238 

> <ROCS_ColorTanimoto>
0.177 

> <ROCS_RefTversky>
0.216 

> <ROCS_RefColorTversky>
0.192 

> <ROCS_RefTverskyCombo>
0.408 

> <ROCS_FitTversky>
1.763 

> <ROCS_FitColorTversky>
0.682 

> <ROCS_FitTverskyCombo>
2.445 

> <ROCS_ColorScore>
-6.881

> <ROCS_Overlap>
2550.047

> <ROCS_Rank>
312                 

$$$$
untitled-dbase-19781_8
  -OEChem-02082415563D

 47 50  0     0  0  0  0  0  0999 V2000
    5.2873   12.1124   25.8742 C   0  0  0  0  0  0  0  0  0  0  0  0
   12.6423   14.7349   23.3790 C   0  0  0  0  0  0  0  0  0  0  0  0
   10.8511   14.8627   21.7627 C   0  0  0  0  0  0  0  0  0  0  0  0
    5.0489   13.2858   25.1590 C   0  0  0  0  0  0  0  0  0  0  0  0
    6.4039   11.3302   25.5790 C   0  0  0  0  0  0  0  0  0  0  0  0
   13.0110   16.0450   23.0740 C   0  0  0  0  0  0  0  0  0  0  0  0
   11.2199   16.1729   21.4577 C   0  0  0  0  0  0  0  0  0  0  0  0
   12.0867   11.7474   22.8531 C   0  0  0  0  0  0  0  0  0  0  0  0
    7.0436   12.8951   23.8530 C   0  0  0  0  0  0  0  0  0  0  0  0
   10.3943   10.2665   23.6516 C   0  0  0  0  0  0  0  0  0  0  0  0
   11.5623   14.1437   22.7233 C   0  0  0  0  0  0  0  0  0  0  0  0
   11.6950   10.4453   23.1644 C   0  0  0  0  0  0  0  0  0  0  0  0
    5.9270   13.6772   24.1483 C   0  0  0  0  0  0  0  0  0  0  0  0
    7.2821   11.7216   24.5684 C   0  0  0  0  0  0  0  0  0  0  0  0
   12.2998   16.7641   22.1134 C   0  0  0  0  0  0  0  0  0  0  0  0
   11.1799   12.7855   23.0394 C   0  0  0  0  0  0  0  0  0  0  0  0
    9.5753    9.2043   24.0836 C   0  0  0  0  0  0  0  0  0  0  0  0
    9.5924   11.3887   23.7894 C   0  0  0  0  0  0  0  0  0  0  0  0
   12.6080    9.3320   22.9861 C   0  0  0  0  0  0  0  0  0  0  0  0
    9.9101    7.7709   24.1543 C   0  0  0  0  0  0  0  0  0  0  0  0
   13.7727   18.5854   22.5249 C   0  0  0  0  0  0  0  0  0  0  0  0
    5.6712   14.9322   23.3842 C   0  0  0  0  0  0  0  0  0  0  0  0
    9.9138   12.6631   23.5067 N   0  0  0  0  0  0  0  0  0  0  0  0
    8.3590    9.6092   24.4636 N   0  0  0  0  0  0  0  0  0  0  0  0
    8.3990   10.9405   24.2738 N   0  0  0  0  0  0  0  0  0  0  0  0
   12.4171    8.3555   22.2503 O   0  0  0  0  0  0  0  0  0  0  0  0
   13.7427    9.4606   23.7295 O   0  0  0  0  0  0  0  0  0  0  0  0
   12.6594   18.0426   21.8164 O   0  0  0  0  0  0  0  0  0  0  0  0
    4.5443   15.5946   23.7807 F   0  0  0  0  0  0  0  0  0  0  0  0
    6.6779   15.8496   23.4868 F   0  0  0  0  0  0  0  0  0  0  0  0
    5.5135   14.7098   22.0468 F   0  0  0  0  0  0  0  0  0  0  0  0
    4.6037   11.8078   26.6613 H   0  0  0  0  0  0  0  0  0  0  0  0
   13.2064   14.1873   24.1302 H   0  0  0  0  0  0  0  0  0  0  0  0
   10.0070   14.4159   21.2429 H   0  0  0  0  0  0  0  0  0  0  0  0
    4.1760   13.8884   25.3954 H   0  0  0  0  0  0  0  0  0  0  0  0
    6.5778   10.4178   26.1445 H   0  0  0  0  0  0  0  0  0  0  0  0
   13.8530   16.5003   23.5883 H   0  0  0  0  0  0  0  0  0  0  0  0
   10.6621   16.7283   20.7086 H   0  0  0  0  0  0  0  0  0  0  0  0
   13.0857   11.9413   22.4711 H   0  0  0  0  0  0  0  0  0  0  0  0
    7.7251   13.2040   23.0628 H   0  0  0  0  0  0  0  0  0  0  0  0
   10.3428    7.5094   25.1348 H   0  0  0  0  0  0  0  0  0  0  0  0
    9.0254    7.1286   23.9987 H   0  0  0  0  0  0  0  0  0  0  0  0
   10.6388    7.4750   23.3789 H   0  0  0  0  0  0  0  0  0  0  0  0
   13.9524   19.6107   22.1923 H   0  0  0  0  0  0  0  0  0  0  0  0
   14.6576   17.9709   22.3408 H   0  0  0  0  0  0  0  0  0  0  0  0
   13.5477   18.5857   23.5940 H   0  0  0  0  0  0  0  0  0  0  0  0
   14.3674    8.7128   23.6152 H   0  0  0  0  0  0  0  0  0  0  0  0
  1  4  1  0  0  0  0
  1  5  2  0  0  0  0
  2  6  2  0  0  0  0
  2 11  1  0  0  0  0
  3  7  1  0  0  0  0
  3 11  2  0  0  0  0
  4 13  2  0  0  0  0
  5 14  1  0  0  0  0
  6 15  1  0  0  0  0
  7 15  2  0  0  0  0
  8 12  2  0  0  0  0
  8 16  1  0  0  0  0
  9 13  1  0  0  0  0
  9 14  2  0  0  0  0
 10 12  1  0  0  0  0
 10 17  1  0  0  0  0
 10 18  2  0  0  0  0
 11 16  1  0  0  0  0
 12 19  1  0  0  0  0
 13 22  1  0  0  0  0
 14 25  1  0  0  0  0
 15 28  1  0  0  0  0
 16 23  2  0  0  0  0
 17 20  1  0  0  0  0
 17 24  2  0  0  0  0
 18 23  1  0  0  0  0
 18 25  1  0  0  0  0
 19 26  2  0  0  0  0
 19 27  1  0  0  0  0
 21 28  1  0  0  0  0
 22 29  1  0  0  0  0
 22 30  1  0  0  0  0
 22 31  1  0  0  0  0
 24 25  1  0  0  0  0
  1 32  1  0  0  0  0
  2 33  1  0  0  0  0
  3 34  1  0  0  0  0
  4 35  1  0  0  0  0
  5 36  1  0  0  0  0
  6 37  1  0  0  0  0
  7 38  1  0  0  0  0
  8 39  1  0  0  0  0
  9 40  1  0  0  0  0
 20 41  1  0  0  0  0
 20 42  1  0  0  0  0
 20 43  1  0  0  0  0
 21 44  1  0  0  0  0
 21 45  1  0  0  0  0
 21 46  1  0  0  0  0
 27 47  1  0  0  0  0
M  END
> <id>
EN300-00877

> <smiles>
COC=1C=CC(=CC1)C=2C=C(C(=O)O)C=3C(C)=NN(C=4C=CC=C(C4)C(F)(F)F)C3N2

> <MDLNUMBER>
MFCD06660564

> <IUPAC Name>
6-(4-methoxyphenyl)-3-methyl-1-[3-(trifluoromethyl)phenyl]-1H-pyrazolo[3,4-b]pyridine-4-carboxylic acid

> <CAS>
885457-03-4

> <URL>
https://www.enaminestore.com/catalog/EN300-00877

> <ROCS_ShapeQuery>
x0446_0A_x1080_0A_x0929_0A_x0812_0A_x0719_0A_x1140_0A_x0528_0A_x0310_0A

> <ROCS_TanimotoCombo>
0.415 

> <ROCS_ShapeTanimoto>
0.275 

> <ROCS_ColorTanimoto>
0.140 

> <ROCS_RefTversky>
0.252 

> <ROCS_RefColorTversky>
0.162 

> <ROCS_RefTverskyCombo>
0.414 

> <ROCS_FitTversky>
1.484 

> <ROCS_FitColorTversky>
0.510 

> <ROCS_FitTverskyCombo>
1.994 

> <ROCS_ColorScore>
-5.806

> <ROCS_Overlap>
2982.677

> <ROCS_Rank>
313                 

$$$$
untitled-dbase-290786_7
  -OEChem-02082415563D

 35 37  0     0  0  0  0  0  0999 V2000
   14.8926   16.3520   21.2572 C   0  0  0  0  0  0  0  0  0  0  0  0
   14.0259   17.1430   20.4738 C   0  0  0  0  0  0  0  0  0  0  0  0
   14.3912   15.3875   22.1363 C   0  0  0  0  0  0  0  0  0  0  0  0
   12.6389   16.9868   20.5523 C   0  0  0  0  0  0  0  0  0  0  0  0
   13.0207   15.2469   22.1965 C   0  0  0  0  0  0  0  0  0  0  0  0
   12.1648   16.0282   21.4229 C   0  0  0  0  0  0  0  0  0  0  0  0
    8.9069   11.7604   23.2156 C   0  0  0  0  0  0  0  0  0  0  0  0
    9.3411   10.4388   23.4319 C   0  0  0  0  0  0  0  0  0  0  0  0
    7.7610   11.8722   23.9645 C   0  0  0  0  0  0  0  0  0  0  0  0
   12.1998   14.3464   23.0122 C   0  0  0  0  0  0  0  0  0  0  0  0
   10.7867   15.6365   21.7352 C   0  0  0  0  0  0  0  0  0  0  0  0
    9.5127   12.8283   22.3803 C   0  0  0  0  0  0  0  0  0  0  0  0
    6.5168   10.2754   25.4542 C   0  0  0  0  0  0  0  0  0  0  0  0
   10.5296    9.7744   22.8688 C   0  0  0  0  0  0  0  0  0  0  0  0
    6.8321   13.0018   24.1649 C   0  0  0  0  0  0  0  0  0  0  0  0
    8.5367    9.7598   24.2540 N   0  0  0  0  0  0  0  0  0  0  0  0
    7.5855   10.6582   24.5609 N   0  0  0  0  0  0  0  0  0  0  0  0
   10.9239   14.6253   22.6339 N   0  0  0  0  0  0  0  0  0  0  0  0
   12.6333   13.5429   23.8143 O   0  0  0  0  0  0  0  0  0  0  0  0
    9.7925   16.1366   21.2471 O   0  0  0  0  0  0  0  0  0  0  0  0
    9.6825   12.7195   21.1755 O   0  0  0  0  0  0  0  0  0  0  0  0
    9.8407   13.9286   23.1288 O   0  0  0  0  0  0  0  0  0  0  0  0
   11.2809   10.5687   22.0378 F   0  0  0  0  0  0  0  0  0  0  0  0
   11.4240    9.3251   23.8090 F   0  0  0  0  0  0  0  0  0  0  0  0
   10.2277    8.6679   22.1162 F   0  0  0  0  0  0  0  0  0  0  0  0
    7.1757   14.1410   23.4814 F   0  0  0  0  0  0  0  0  0  0  0  0
    5.5421   12.7447   23.7745 F   0  0  0  0  0  0  0  0  0  0  0  0
    6.7324   13.3936   25.4748 F   0  0  0  0  0  0  0  0  0  0  0  0
   15.9667   16.4977   21.1751 H   0  0  0  0  0  0  0  0  0  0  0  0
   14.4457   17.8858   19.8003 H   0  0  0  0  0  0  0  0  0  0  0  0
   15.0577   14.7824   22.7393 H   0  0  0  0  0  0  0  0  0  0  0  0
   11.9742   17.5968   19.9523 H   0  0  0  0  0  0  0  0  0  0  0  0
    5.7017    9.8685   24.8500 H   0  0  0  0  0  0  0  0  0  0  0  0
    6.8828    9.5233   26.1586 H   0  0  0  0  0  0  0  0  0  0  0  0
    6.1795   11.1538   26.0114 H   0  0  0  0  0  0  0  0  0  0  0  0
  1  2  1  0  0  0  0
  1  3  2  0  0  0  0
  2  4  2  0  0  0  0
  3  5  1  0  0  0  0
  4  6  1  0  0  0  0
  5  6  2  0  0  0  0
  5 10  1  0  0  0  0
  6 11  1  0  0  0  0
  7  8  1  0  0  0  0
  7  9  2  0  0  0  0
  7 12  1  0  0  0  0
  8 14  1  0  0  0  0
  8 16  2  0  0  0  0
  9 15  1  0  0  0  0
  9 17  1  0  0  0  0
 10 18  1  0  0  0  0
 10 19  2  0  0  0  0
 11 18  1  0  0  0  0
 11 20  2  0  0  0  0
 12 21  2  0  0  0  0
 12 22  1  0  0  0  0
 13 17  1  0  0  0  0
 14 23  1  0  0  0  0
 14 24  1  0  0  0  0
 14 25  1  0  0  0  0
 15 26  1  0  0  0  0
 15 27  1  0  0  0  0
 15 28  1  0  0  0  0
 16 17  1  0  0  0  0
 18 22  1  0  0  0  0
  1 29  1  0  0  0  0
  2 30  1  0  0  0  0
  3 31  1  0  0  0  0
  4 32  1  0  0  0  0
 13 33  1  0  0  0  0
 13 34  1  0  0  0  0
 13 35  1  0  0  0  0
M  END
> <id>
EN300-6523186

> <smiles>
CN1N=C(C(C(=O)ON2C(=O)C=3C=CC=CC3C2=O)=C1C(F)(F)F)C(F)(F)F

> <IUPAC Name>
1,3-dioxo-2,3-dihydro-1H-isoindol-2-yl 1-methyl-3,5-bis(trifluoromethyl)-1H-pyrazole-4-carboxylate

> <CAS>
2248395-46-0

> <URL>
https://www.enaminestore.com/catalog/EN300-6523186

> <ROCS_ShapeQuery>
x0446_0A_x1080_0A_x0929_0A_x0812_0A_x0719_0A_x1140_0A_x0528_0A_x0310_0A

> <ROCS_TanimotoCombo>
0.415 

> <ROCS_ShapeTanimoto>
0.289 

> <ROCS_ColorTanimoto>
0.125 

> <ROCS_RefTversky>
0.260 

> <ROCS_RefColorTversky>
0.138 

> <ROCS_RefTverskyCombo>
0.398 

> <ROCS_FitTversky>
1.626 

> <ROCS_FitColorTversky>
0.578 

> <ROCS_FitTverskyCombo>
2.204 

> <ROCS_ColorScore>
-4.927

> <ROCS_Overlap>
3079.454

> <ROCS_Rank>
314                 

$$$$
untitled-dbase-526191_1
  -OEChem-02082415563D

 35 38  0     1  0  0  0  0  0999 V2000
    8.8488   14.5896   21.5570 C   0  0  0  0  0  0  0  0  0  0  0  0
   10.1780   15.9909   22.3487 C   0  0  0  0  0  0  0  0  0  0  0  0
    5.8549   10.9107   24.5225 C   0  0  0  0  0  0  0  0  0  0  0  0
   10.0101    9.8669   24.0238 C   0  0  0  0  0  0  0  0  0  0  0  0
    7.6761    9.9876   23.1173 C   0  0  0  0  0  0  0  0  0  0  0  0
    8.1685   10.8138   25.4357 C   0  0  0  0  0  0  0  0  0  0  0  0
    9.4608   11.4888   22.1913 C   0  0  0  0  0  0  0  0  0  0  0  0
    9.9371   12.3248   24.5060 C   0  0  0  0  0  0  0  0  0  0  0  0
    7.5966   12.4489   23.6155 C   0  0  0  0  0  0  0  0  0  0  0  0
    9.1683   10.0896   22.7603 C   0  0  1  0  0  0  0  0  0  0  0  0
    9.6566   10.9248   25.0777 C   0  0  2  0  0  0  0  0  0  0  0  0
    7.3118   11.0421   24.1792 C   0  0  0  0  0  0  0  0  0  0  0  0
    9.0958   12.6036   23.2178 C   0  0  0  0  0  0  0  0  0  0  0  0
    9.3391   15.8471   21.3492 N   0  0  0  0  0  0  0  0  0  0  0  0
   10.1794   14.8644   23.1108 N   0  0  0  0  0  0  0  0  0  0  0  0
    9.3316   13.9464   22.6221 N   0  0  0  0  0  0  0  0  0  0  0  0
    5.0891   10.0943   24.0321 O   0  0  0  0  0  0  0  0  0  0  0  0
    5.4981   11.8276   25.4548 O   0  0  0  0  0  0  0  0  0  0  0  0
   11.1378   17.3306   22.6932 Cl  0  0  0  0  0  0  0  0  0  0  0  0
    8.1163   14.1438   20.8961 H   0  0  0  0  0  0  0  0  0  0  0  0
    9.8285    8.8618   24.4239 H   0  0  0  0  0  0  0  0  0  0  0  0
   11.0778    9.9230   23.7786 H   0  0  0  0  0  0  0  0  0  0  0  0
    7.0652   10.1256   22.2155 H   0  0  0  0  0  0  0  0  0  0  0  0
    7.4499    8.9789   23.4878 H   0  0  0  0  0  0  0  0  0  0  0  0
    7.9622    9.8261   25.8689 H   0  0  0  0  0  0  0  0  0  0  0  0
    7.9126   11.5470   26.2118 H   0  0  0  0  0  0  0  0  0  0  0  0
   10.5206   11.5650   21.9139 H   0  0  0  0  0  0  0  0  0  0  0  0
    8.8894   11.6369   21.2653 H   0  0  0  0  0  0  0  0  0  0  0  0
    9.7159   13.0862   25.2662 H   0  0  0  0  0  0  0  0  0  0  0  0
   11.0072   12.4240   24.2793 H   0  0  0  0  0  0  0  0  0  0  0  0
    6.9625   12.6412   22.7384 H   0  0  0  0  0  0  0  0  0  0  0  0
    7.3213   13.2163   24.3526 H   0  0  0  0  0  0  0  0  0  0  0  0
    9.4204    9.3301   22.0117 H   0  0  0  0  0  0  0  0  0  0  0  0
   10.2640   10.7659   25.9759 H   0  0  0  0  0  0  0  0  0  0  0  0
    4.5486   11.7593   25.6914 H   0  0  0  0  0  0  0  0  0  0  0  0
  1 14  2  0  0  0  0
  1 16  1  0  0  0  0
  2 14  1  0  0  0  0
  2 15  2  0  0  0  0
  2 19  1  0  0  0  0
  3 12  1  0  0  0  0
  3 17  2  0  0  0  0
  3 18  1  0  0  0  0
  4 10  1  0  0  0  0
  4 11  1  0  0  0  0
  5 10  1  0  0  0  0
  5 12  1  0  0  0  0
  6 11  1  0  0  0  0
  6 12  1  0  0  0  0
  7 10  1  0  0  0  0
  7 13  1  0  0  0  0
  8 11  1  0  0  0  0
  8 13  1  0  0  0  0
  9 12  1  0  0  0  0
  9 13  1  0  0  0  0
 13 16  1  0  0  0  0
 15 16  1  0  0  0  0
  1 20  1  0  0  0  0
  4 21  1  0  0  0  0
  4 22  1  0  0  0  0
  5 23  1  0  0  0  0
  5 24  1  0  0  0  0
  6 25  1  0  0  0  0
  6 26  1  0  0  0  0
  7 27  1  0  0  0  0
  7 28  1  0  0  0  0
  8 29  1  0  0  0  0
  8 30  1  0  0  0  0
  9 31  1  0  0  0  0
  9 32  1  0  0  0  0
 10 33  1  0  0  0  0
 11 34  1  0  0  0  0
 18 35  1  0  0  0  0
M  END
> <id>
EN300-227611

> <smiles>
OC(=O)C1(CC2CC3C1)CC(C2)(C3)N4C=NC(Cl)=N4

> <MDLNUMBER>
MFCD02055884

> <IUPAC Name>
3-(3-chloro-1H-1,2,4-triazol-1-yl)adamantane-1-carboxylic acid

> <CAS>
400869-55-8

> <Purity>
95

> <URL>
https://www.enaminestore.com/catalog/EN300-227611

> <ROCS_ShapeQuery>
x0446_0A_x1080_0A_x0929_0A_x0812_0A_x0719_0A_x1140_0A_x0528_0A_x0310_0A

> <ROCS_TanimotoCombo>
0.415 

> <ROCS_ShapeTanimoto>
0.222 

> <ROCS_ColorTanimoto>
0.193 

> <ROCS_RefTversky>
0.204 

> <ROCS_RefColorTversky>
0.223 

> <ROCS_RefTverskyCombo>
0.427 

> <ROCS_FitTversky>
1.655 

> <ROCS_FitColorTversky>
0.585 

> <ROCS_FitTverskyCombo>
2.241 

> <ROCS_ColorScore>
-8.032

> <ROCS_Overlap>
2407.986

> <ROCS_Rank>
315                 

$$$$
untitled-dbase-35638_6
  -OEChem-02082415563D

 38 40  0     0  0  0  0  0  0999 V2000
    9.4425   14.5655   22.2974 C   0  0  0  0  0  0  0  0  0  0  0  0
    6.7459   14.5365   22.9073 C   0  0  0  0  0  0  0  0  0  0  0  0
    9.1470    9.7562   24.8839 C   0  0  0  0  0  0  0  0  0  0  0  0
    7.7643   11.8241   25.1562 C   0  0  0  0  0  0  0  0  0  0  0  0
    7.2179   10.1590   23.3415 C   0  0  0  0  0  0  0  0  0  0  0  0
   10.0913   11.9981   24.2961 C   0  0  0  0  0  0  0  0  0  0  0  0
    9.5449   10.3327   22.4815 C   0  0  0  0  0  0  0  0  0  0  0  0
    7.7239   10.3309   24.7850 C   0  0  0  0  0  0  0  0  0  0  0  0
   10.0766   10.5067   23.9154 C   0  0  0  0  0  0  0  0  0  0  0  0
    8.6709   12.5979   24.1702 C   0  0  0  0  0  0  0  0  0  0  0  0
    8.1257   10.9357   22.3588 C   0  0  0  0  0  0  0  0  0  0  0  0
    8.1399   12.4606   22.7056 C   0  0  0  0  0  0  0  0  0  0  0  0
    9.0254   13.2529   21.7122 C   0  0  0  0  0  0  0  0  0  0  0  0
    6.7283   13.0809   22.5610 C   0  0  0  0  0  0  0  0  0  0  0  0
   10.0779   14.7488   23.3247 O   0  0  0  0  0  0  0  0  0  0  0  0
    7.0516   15.0384   23.9785 O   0  0  0  0  0  0  0  0  0  0  0  0
    8.9992   15.5673   21.4952 O   0  0  0  0  0  0  0  0  0  0  0  0
    6.3592   15.2536   21.8210 O   0  0  0  0  0  0  0  0  0  0  0  0
    9.5199    9.8485   25.9114 H   0  0  0  0  0  0  0  0  0  0  0  0
    9.1385    8.6858   24.6445 H   0  0  0  0  0  0  0  0  0  0  0  0
    6.7517   12.2394   25.1717 H   0  0  0  0  0  0  0  0  0  0  0  0
    8.1494   11.9393   26.1777 H   0  0  0  0  0  0  0  0  0  0  0  0
    7.2156    9.0936   23.0765 H   0  0  0  0  0  0  0  0  0  0  0  0
    6.1769   10.4877   23.2620 H   0  0  0  0  0  0  0  0  0  0  0  0
   10.4483   12.1113   25.3280 H   0  0  0  0  0  0  0  0  0  0  0  0
   10.8071   12.5424   23.6722 H   0  0  0  0  0  0  0  0  0  0  0  0
   10.2325   10.7902   21.7630 H   0  0  0  0  0  0  0  0  0  0  0  0
    9.5144    9.2652   22.2269 H   0  0  0  0  0  0  0  0  0  0  0  0
    7.0630    9.7952   25.4755 H   0  0  0  0  0  0  0  0  0  0  0  0
   11.0899   10.0960   23.9872 H   0  0  0  0  0  0  0  0  0  0  0  0
    8.6996   13.6548   24.4616 H   0  0  0  0  0  0  0  0  0  0  0  0
    7.7588   10.7868   21.3359 H   0  0  0  0  0  0  0  0  0  0  0  0
    9.9025   12.6514   21.4956 H   0  0  0  0  0  0  0  0  0  0  0  0
    8.4453   13.4204   20.8102 H   0  0  0  0  0  0  0  0  0  0  0  0
    6.4120   12.9517   21.5307 H   0  0  0  0  0  0  0  0  0  0  0  0
    6.0616   12.5510   23.2340 H   0  0  0  0  0  0  0  0  0  0  0  0
    9.2507   16.4505   21.8403 H   0  0  0  0  0  0  0  0  0  0  0  0
    6.3559   16.2178   22.0015 H   0  0  0  0  0  0  0  0  0  0  0  0
  1 13  1  0  0  0  0
  1 15  2  0  0  0  0
  1 17  1  0  0  0  0
  2 14  1  0  0  0  0
  2 16  2  0  0  0  0
  2 18  1  0  0  0  0
  3  8  1  0  0  0  0
  3  9  1  0  0  0  0
  4  8  1  0  0  0  0
  4 10  1  0  0  0  0
  5  8  1  0  0  0  0
  5 11  1  0  0  0  0
  6  9  1  0  0  0  0
  6 10  1  0  0  0  0
  7  9  1  0  0  0  0
  7 11  1  0  0  0  0
 10 12  1  0  0  0  0
 11 12  1  0  0  0  0
 12 13  1  0  0  0  0
 12 14  1  0  0  0  0
  3 19  1  0  0  0  0
  3 20  1  0  0  0  0
  4 21  1  0  0  0  0
  4 22  1  0  0  0  0
  5 23  1  0  0  0  0
  5 24  1  0  0  0  0
  6 25  1  0  0  0  0
  6 26  1  0  0  0  0
  7 27  1  0  0  0  0
  7 28  1  0  0  0  0
  8 29  1  0  0  0  0
  9 30  1  0  0  0  0
 10 31  1  0  0  0  0
 11 32  1  0  0  0  0
 13 33  1  0  0  0  0
 13 34  1  0  0  0  0
 14 35  1  0  0  0  0
 14 36  1  0  0  0  0
 17 37  1  0  0  0  0
 18 38  1  0  0  0  0
M  END
> <id>
EN300-156525

> <smiles>
OC(=O)CC1(CC(=O)O)C2CC3CC(C2)CC1C3

> <MDLNUMBER>
MFCD28012153

> <IUPAC Name>
2-[2-(carboxymethyl)adamantan-2-yl]acetic acid

> <CAS>
1803583-21-2

> <Purity>
95

> <URL>
https://www.enaminestore.com/catalog/EN300-156525

> <ROCS_ShapeQuery>
x0446_0A_x1080_0A_x0929_0A_x0812_0A_x0719_0A_x1140_0A_x0528_0A_x0310_0A

> <ROCS_TanimotoCombo>
0.415 

> <ROCS_ShapeTanimoto>
0.230 

> <ROCS_ColorTanimoto>
0.184 

> <ROCS_RefTversky>
0.209 

> <ROCS_RefColorTversky>
0.215 

> <ROCS_RefTverskyCombo>
0.424 

> <ROCS_FitTversky>
1.782 

> <ROCS_FitColorTversky>
0.564 

> <ROCS_FitTverskyCombo>
2.346 

> <ROCS_ColorScore>
-7.730

> <ROCS_Overlap>
2468.470

> <ROCS_Rank>
316                 

$$$$
untitled-dbase-387153_4
  -OEChem-02082415563D

 46 48  0     1  0  0  0  0  0999 V2000
    7.0034   13.1811   25.5253 C   0  0  0  0  0  0  0  0  0  0  0  0
   10.5809   14.4482   21.6690 C   0  0  0  0  0  0  0  0  0  0  0  0
    8.3992    9.8599   23.1464 C   0  0  0  0  0  0  0  0  0  0  0  0
    6.9236   11.8710   23.4051 C   0  0  0  0  0  0  0  0  0  0  0  0
    8.4650   11.1933   25.2693 C   0  0  0  0  0  0  0  0  0  0  0  0
    8.8677   11.9381   21.8235 C   0  0  0  0  0  0  0  0  0  0  0  0
   10.4089   11.2600   23.6868 C   0  0  0  0  0  0  0  0  0  0  0  0
    8.9331   13.2761   23.9471 C   0  0  0  0  0  0  0  0  0  0  0  0
    7.7585   11.0480   22.4098 C   0  0  1  0  0  0  0  0  0  0  0  0
    9.3053   10.3676   24.2804 C   0  0  2  0  0  0  0  0  0  0  0  0
    7.8216   12.3913   24.5441 C   0  0  0  0  0  0  0  0  0  0  0  0
    9.7872   12.4643   22.9477 C   0  0  0  0  0  0  0  0  0  0  0  0
   11.3227   16.5081   23.1016 C   0  0  0  0  0  0  0  0  0  0  0  0
   13.5272   16.4931   21.8979 C   0  0  0  0  0  0  0  0  0  0  0  0
   11.4684   17.3285   20.7267 C   0  0  0  0  0  0  0  0  0  0  0  0
   12.0154   16.3350   21.7507 C   0  0  0  0  0  0  0  0  0  0  0  0
   10.8277   13.2980   22.3868 N   0  0  0  0  0  0  0  0  0  0  0  0
    6.8758   12.9114   26.7104 O   0  0  0  0  0  0  0  0  0  0  0  0
    9.4740   14.9110   21.4138 O   0  0  0  0  0  0  0  0  0  0  0  0
    6.4176   14.2410   24.9165 O   0  0  0  0  0  0  0  0  0  0  0  0
   11.7646   15.0071   21.2768 O   0  0  0  0  0  0  0  0  0  0  0  0
    7.6178    9.2075   23.5552 H   0  0  0  0  0  0  0  0  0  0  0  0
    8.9836    9.2542   22.4428 H   0  0  0  0  0  0  0  0  0  0  0  0
    6.4408   12.7096   22.8863 H   0  0  0  0  0  0  0  0  0  0  0  0
    6.1114   11.2524   23.8092 H   0  0  0  0  0  0  0  0  0  0  0  0
    7.6905   10.5595   25.7210 H   0  0  0  0  0  0  0  0  0  0  0  0
    9.0967   11.5416   26.0971 H   0  0  0  0  0  0  0  0  0  0  0  0
    9.4510   11.3617   21.0934 H   0  0  0  0  0  0  0  0  0  0  0  0
    8.4144   12.7764   21.2786 H   0  0  0  0  0  0  0  0  0  0  0  0
   11.0710   11.6071   24.4908 H   0  0  0  0  0  0  0  0  0  0  0  0
   11.0261   10.6672   22.9990 H   0  0  0  0  0  0  0  0  0  0  0  0
    8.4870   14.1478   23.4482 H   0  0  0  0  0  0  0  0  0  0  0  0
    9.5687   13.6741   24.7503 H   0  0  0  0  0  0  0  0  0  0  0  0
    7.1149   10.6796   21.6033 H   0  0  0  0  0  0  0  0  0  0  0  0
    9.7582    9.5164   24.8011 H   0  0  0  0  0  0  0  0  0  0  0  0
   10.2373   16.3953   23.0003 H   0  0  0  0  0  0  0  0  0  0  0  0
   11.6811   15.7785   23.8351 H   0  0  0  0  0  0  0  0  0  0  0  0
   11.4929   17.5139   23.5024 H   0  0  0  0  0  0  0  0  0  0  0  0
   14.0283   16.3697   20.9310 H   0  0  0  0  0  0  0  0  0  0  0  0
   13.9378   15.7214   22.5591 H   0  0  0  0  0  0  0  0  0  0  0  0
   13.7932   17.4746   22.3035 H   0  0  0  0  0  0  0  0  0  0  0  0
   11.9652   17.2045   19.7576 H   0  0  0  0  0  0  0  0  0  0  0  0
   10.3904   17.2048   20.5808 H   0  0  0  0  0  0  0  0  0  0  0  0
   11.6610   18.3600   21.0432 H   0  0  0  0  0  0  0  0  0  0  0  0
   11.7929   13.0205   22.5298 H   0  0  0  0  0  0  0  0  0  0  0  0
    5.8763   14.7693   25.5412 H   0  0  0  0  0  0  0  0  0  0  0  0
  1 11  1  0  0  0  0
  1 18  2  0  0  0  0
  1 20  1  0  0  0  0
  2 17  1  0  0  0  0
  2 19  2  0  0  0  0
  2 21  1  0  0  0  0
  3  9  1  0  0  0  0
  3 10  1  0  0  0  0
  4  9  1  0  0  0  0
  4 11  1  0  0  0  0
  5 10  1  0  0  0  0
  5 11  1  0  0  0  0
  6  9  1  0  0  0  0
  6 12  1  0  0  0  0
  7 10  1  0  0  0  0
  7 12  1  0  0  0  0
  8 11  1  0  0  0  0
  8 12  1  0  0  0  0
 12 17  1  0  0  0  0
 13 16  1  0  0  0  0
 14 16  1  0  0  0  0
 15 16  1  0  0  0  0
 16 21  1  0  0  0  0
  3 22  1  0  0  0  0
  3 23  1  0  0  0  0
  4 24  1  0  0  0  0
  4 25  1  0  0  0  0
  5 26  1  0  0  0  0
  5 27  1  0  0  0  0
  6 28  1  0  0  0  0
  6 29  1  0  0  0  0
  7 30  1  0  0  0  0
  7 31  1  0  0  0  0
  8 32  1  0  0  0  0
  8 33  1  0  0  0  0
  9 34  1  0  0  0  0
 10 35  1  0  0  0  0
 13 36  1  0  0  0  0
 13 37  1  0  0  0  0
 13 38  1  0  0  0  0
 14 39  1  0  0  0  0
 14 40  1  0  0  0  0
 14 41  1  0  0  0  0
 15 42  1  0  0  0  0
 15 43  1  0  0  0  0
 15 44  1  0  0  0  0
 17 45  1  0  0  0  0
 20 46  1  0  0  0  0
M  END
> <id>
EN300-702713

> <smiles>
CC(C)(C)OC(=O)NC1(CC2CC3C1)CC(C2)(C3)C(=O)O

> <IUPAC Name>
3-{[(tert-butoxy)carbonyl]amino}adamantane-1-carboxylic acid

> <CAS>
71740-76-6

> <Purity>
95

> <URL>
https://www.enaminestore.com/catalog/EN300-702713

> <MP>
180-181

> <ROCS_ShapeQuery>
x0446_0A_x1080_0A_x0929_0A_x0812_0A_x0719_0A_x1140_0A_x0528_0A_x0310_0A

> <ROCS_TanimotoCombo>
0.415 

> <ROCS_ShapeTanimoto>
0.248 

> <ROCS_ColorTanimoto>
0.167 

> <ROCS_RefTversky>
0.224 

> <ROCS_RefColorTversky>
0.197 

> <ROCS_RefTverskyCombo>
0.422 

> <ROCS_FitTversky>
1.742 

> <ROCS_FitColorTversky>
0.517 

> <ROCS_FitTverskyCombo>
2.259 

> <ROCS_ColorScore>
-7.091

> <ROCS_Overlap>
2649.856

> <ROCS_Rank>
317                 

$$$$
untitled-dbase-247156_5
  -OEChem-02082415563D

 35 36  0     0  0  0  0  0  0999 V2000
   10.7714   13.5973   22.5385 C   0  0  0  0  0  0  0  0  0  0  0  0
    9.5622   11.7347   24.8838 C   0  0  0  0  0  0  0  0  0  0  0  0
    8.0881   12.4213   23.5694 C   0  0  0  0  0  0  0  0  0  0  0  0
    9.0297   10.2130   23.0230 C   0  0  0  0  0  0  0  0  0  0  0  0
    9.4269   11.6577   23.3329 C   0  0  0  0  0  0  0  0  0  0  0  0
    8.0430   11.3238   24.7096 C   0  0  0  0  0  0  0  0  0  0  0  0
   12.7347   15.6301   22.9426 C   0  0  0  0  0  0  0  0  0  0  0  0
   13.3266   15.2792   20.5269 C   0  0  0  0  0  0  0  0  0  0  0  0
   11.0299   16.0840   21.1476 C   0  0  0  0  0  0  0  0  0  0  0  0
    7.0718   11.4157   25.8464 C   0  0  0  0  0  0  0  0  0  0  0  0
   12.2122   15.2125   21.5688 C   0  0  0  0  0  0  0  0  0  0  0  0
   10.4410   12.2527   22.5115 N   0  0  0  0  0  0  0  0  0  0  0  0
   10.2485   14.4428   23.2571 O   0  0  0  0  0  0  0  0  0  0  0  0
    8.0310   10.0254   24.0445 O   0  0  0  0  0  0  0  0  0  0  0  0
    5.7416   11.4552   25.3371 O   0  0  0  0  0  0  0  0  0  0  0  0
   11.7719   13.8518   21.6431 O   0  0  0  0  0  0  0  0  0  0  0  0
   10.2068   10.9855   25.3527 H   0  0  0  0  0  0  0  0  0  0  0  0
    9.7656   12.7172   25.3239 H   0  0  0  0  0  0  0  0  0  0  0  0
    8.1540   13.4677   23.8871 H   0  0  0  0  0  0  0  0  0  0  0  0
    7.3300   12.3254   22.7867 H   0  0  0  0  0  0  0  0  0  0  0  0
    8.5742   10.0938   22.0358 H   0  0  0  0  0  0  0  0  0  0  0  0
    9.8461    9.5004   23.1702 H   0  0  0  0  0  0  0  0  0  0  0  0
   11.9377   15.5835   23.6933 H   0  0  0  0  0  0  0  0  0  0  0  0
   13.5602   14.9905   23.2717 H   0  0  0  0  0  0  0  0  0  0  0  0
   13.0858   16.6683   22.9284 H   0  0  0  0  0  0  0  0  0  0  0  0
   12.9561   14.9803   19.5396 H   0  0  0  0  0  0  0  0  0  0  0  0
   14.1362   14.5837   20.7762 H   0  0  0  0  0  0  0  0  0  0  0  0
   13.7471   16.2870   20.4489 H   0  0  0  0  0  0  0  0  0  0  0  0
   10.6549   15.7847   20.1622 H   0  0  0  0  0  0  0  0  0  0  0  0
   10.2056   16.0197   21.8652 H   0  0  0  0  0  0  0  0  0  0  0  0
   11.3322   17.1337   21.0576 H   0  0  0  0  0  0  0  0  0  0  0  0
    7.2371   12.3263   26.4406 H   0  0  0  0  0  0  0  0  0  0  0  0
    7.1558   10.5469   26.5154 H   0  0  0  0  0  0  0  0  0  0  0  0
   10.9508   11.6477   21.8672 H   0  0  0  0  0  0  0  0  0  0  0  0
    5.1529   11.5143   26.1056 H   0  0  0  0  0  0  0  0  0  0  0  0
  1 12  1  0  0  0  0
  1 13  2  0  0  0  0
  1 16  1  0  0  0  0
  2  5  1  0  0  0  0
  2  6  1  0  0  0  0
  3  5  1  0  0  0  0
  3  6  1  0  0  0  0
  4  5  1  0  0  0  0
  4 14  1  0  0  0  0
  5 12  1  0  0  0  0
  6 10  1  0  0  0  0
  6 14  1  0  0  0  0
  7 11  1  0  0  0  0
  8 11  1  0  0  0  0
  9 11  1  0  0  0  0
 10 15  1  0  0  0  0
 11 16  1  0  0  0  0
  2 17  1  0  0  0  0
  2 18  1  0  0  0  0
  3 19  1  0  0  0  0
  3 20  1  0  0  0  0
  4 21  1  0  0  0  0
  4 22  1  0  0  0  0
  7 23  1  0  0  0  0
  7 24  1  0  0  0  0
  7 25  1  0  0  0  0
  8 26  1  0  0  0  0
  8 27  1  0  0  0  0
  8 28  1  0  0  0  0
  9 29  1  0  0  0  0
  9 30  1  0  0  0  0
  9 31  1  0  0  0  0
 10 32  1  0  0  0  0
 10 33  1  0  0  0  0
 12 34  1  0  0  0  0
 15 35  1  0  0  0  0
M  END
> <id>
EN300-7010838

> <smiles>
CC(C)(C)OC(=O)NC1(CC2(CO)C1)CO2

> <MDLNUMBER>
MFCD31705633

> <IUPAC Name>
tert-butyl N-[1-(hydroxymethyl)-2-oxabicyclo[2.1.1]hexan-4-yl]carbamate

> <CAS>
2170372-32-2

> <Purity>
95

> <URL>
https://www.enaminestore.com/catalog/EN300-7010838

> <ROCS_ShapeQuery>
x0446_0A_x1080_0A_x0929_0A_x0812_0A_x0719_0A_x1140_0A_x0528_0A_x0310_0A

> <ROCS_TanimotoCombo>
0.415 

> <ROCS_ShapeTanimoto>
0.212 

> <ROCS_ColorTanimoto>
0.202 

> <ROCS_RefTversky>
0.194 

> <ROCS_RefColorTversky>
0.234 

> <ROCS_RefTverskyCombo>
0.428 

> <ROCS_FitTversky>
1.777 

> <ROCS_FitColorTversky>
0.600 

> <ROCS_FitTverskyCombo>
2.377 

> <ROCS_ColorScore>
-8.401

> <ROCS_Overlap>
2293.637

> <ROCS_Rank>
318                 

$$$$
untitled-dbase-282030_5
  -OEChem-02082415563D

 34 37  0     0  0  0  0  0  0999 V2000
    5.5905   12.6354   25.2130 C   0  0  0  0  0  0  0  0  0  0  0  0
    6.4997   13.6903   25.1856 C   0  0  0  0  0  0  0  0  0  0  0  0
   11.9991   18.9331   21.3231 C   0  0  0  0  0  0  0  0  0  0  0  0
   13.3125   18.5766   21.6953 C   0  0  0  0  0  0  0  0  0  0  0  0
    5.9667   11.3737   24.7491 C   0  0  0  0  0  0  0  0  0  0  0  0
    7.7892   13.4884   24.6942 C   0  0  0  0  0  0  0  0  0  0  0  0
   10.9771   17.9800   21.2839 C   0  0  0  0  0  0  0  0  0  0  0  0
   13.6326   17.2591   22.0363 C   0  0  0  0  0  0  0  0  0  0  0  0
    7.6685    9.8994   23.7785 C   0  0  0  0  0  0  0  0  0  0  0  0
    8.9634    9.7614   23.3023 C   0  0  0  0  0  0  0  0  0  0  0  0
    7.2611   11.1524   24.2508 C   0  0  0  0  0  0  0  0  0  0  0  0
    8.1786   12.2230   24.2247 C   0  0  0  0  0  0  0  0  0  0  0  0
   11.3128   16.6872   21.6269 C   0  0  0  0  0  0  0  0  0  0  0  0
   12.6098   16.3351   21.9943 C   0  0  0  0  0  0  0  0  0  0  0  0
    9.4557   11.9650   23.7226 C   0  0  0  0  0  0  0  0  0  0  0  0
   10.4839   15.4785   21.6744 C   0  0  0  0  0  0  0  0  0  0  0  0
   12.6255   14.8970   22.2808 C   0  0  0  0  0  0  0  0  0  0  0  0
   10.4866   12.9949   23.6474 C   0  0  0  0  0  0  0  0  0  0  0  0
    9.8683   10.7625   23.2621 N   0  0  0  0  0  0  0  0  0  0  0  0
   11.3338   14.5093   22.1072 N   0  0  0  0  0  0  0  0  0  0  0  0
    9.3026   15.4319   21.3931 O   0  0  0  0  0  0  0  0  0  0  0  0
   13.6081   14.2631   22.6117 O   0  0  0  0  0  0  0  0  0  0  0  0
   10.9284   13.6083   24.6252 O   0  0  0  0  0  0  0  0  0  0  0  0
   10.9036   13.1881   22.3596 O   0  0  0  0  0  0  0  0  0  0  0  0
    4.5862   12.7944   25.5948 H   0  0  0  0  0  0  0  0  0  0  0  0
    6.2041   14.6712   25.5468 H   0  0  0  0  0  0  0  0  0  0  0  0
   11.7813   19.9656   21.0620 H   0  0  0  0  0  0  0  0  0  0  0  0
   14.0862   19.3398   21.7150 H   0  0  0  0  0  0  0  0  0  0  0  0
    5.2406   10.5642   24.7803 H   0  0  0  0  0  0  0  0  0  0  0  0
    8.4734   14.3331   24.6867 H   0  0  0  0  0  0  0  0  0  0  0  0
    9.9694   18.2545   20.9955 H   0  0  0  0  0  0  0  0  0  0  0  0
   14.6422   16.9859   22.3192 H   0  0  0  0  0  0  0  0  0  0  0  0
    6.9972    9.0460   23.7798 H   0  0  0  0  0  0  0  0  0  0  0  0
    9.3155    8.8059   22.9273 H   0  0  0  0  0  0  0  0  0  0  0  0
  1  2  1  0  0  0  0
  1  5  2  0  0  0  0
  2  6  2  0  0  0  0
  3  4  1  0  0  0  0
  3  7  2  0  0  0  0
  4  8  2  0  0  0  0
  5 11  1  0  0  0  0
  6 12  1  0  0  0  0
  7 13  1  0  0  0  0
  8 14  1  0  0  0  0
  9 10  1  0  0  0  0
  9 11  2  0  0  0  0
 10 19  2  0  0  0  0
 11 12  1  0  0  0  0
 12 15  2  0  0  0  0
 13 14  2  0  0  0  0
 13 16  1  0  0  0  0
 14 17  1  0  0  0  0
 15 18  1  0  0  0  0
 15 19  1  0  0  0  0
 16 20  1  0  0  0  0
 16 21  2  0  0  0  0
 17 20  1  0  0  0  0
 17 22  2  0  0  0  0
 18 23  2  0  0  0  0
 18 24  1  0  0  0  0
 20 24  1  0  0  0  0
  1 25  1  0  0  0  0
  2 26  1  0  0  0  0
  3 27  1  0  0  0  0
  4 28  1  0  0  0  0
  5 29  1  0  0  0  0
  6 30  1  0  0  0  0
  7 31  1  0  0  0  0
  8 32  1  0  0  0  0
  9 33  1  0  0  0  0
 10 34  1  0  0  0  0
M  END
> <id>
EN300-6516704

> <smiles>
O=C(ON1C(=O)C=2C=CC=CC2C1=O)C=3N=CC=C4C=CC=CC34

> <IUPAC Name>
1,3-dioxo-2,3-dihydro-1H-isoindol-2-yl isoquinoline-1-carboxylate

> <CAS>
2248342-30-3

> <URL>
https://www.enaminestore.com/catalog/EN300-6516704

> <ROCS_ShapeQuery>
x0446_0A_x1080_0A_x0929_0A_x0812_0A_x0719_0A_x1140_0A_x0528_0A_x0310_0A

> <ROCS_TanimotoCombo>
0.415 

> <ROCS_ShapeTanimoto>
0.259 

> <ROCS_ColorTanimoto>
0.155 

> <ROCS_RefTversky>
0.236 

> <ROCS_RefColorTversky>
0.170 

> <ROCS_RefTverskyCombo>
0.406 

> <ROCS_FitTversky>
1.628 

> <ROCS_FitColorTversky>
0.641 

> <ROCS_FitTverskyCombo>
2.269 

> <ROCS_ColorScore>
-6.079

> <ROCS_Overlap>
2785.868

> <ROCS_Rank>
319                 

$$$$
untitled-dbase-508404_1
  -OEChem-02082415563D

 46 49  0     1  0  0  0  0  0999 V2000
    3.2213   11.2902   18.1810 C   0  0  0  0  0  0  0  0  0  0  0  0
    4.0225   12.4298   18.2515 C   0  0  0  0  0  0  0  0  0  0  0  0
    2.8565   10.6207   19.3490 C   0  0  0  0  0  0  0  0  0  0  0  0
    4.4591   12.8998   19.4901 C   0  0  0  0  0  0  0  0  0  0  0  0
    3.2931   11.0906   20.5876 C   0  0  0  0  0  0  0  0  0  0  0  0
   11.4903   14.9733   23.3939 C   0  0  0  0  0  0  0  0  0  0  0  0
   11.2150   14.1120   21.2401 C   0  0  0  0  0  0  0  0  0  0  0  0
   12.2672   16.0984   21.5780 C   0  0  0  0  0  0  0  0  0  0  0  0
   11.0080   13.9563   22.5955 C   0  0  0  0  0  0  0  0  0  0  0  0
    4.0944   12.2302   20.6582 C   0  0  0  0  0  0  0  0  0  0  0  0
    6.3775   12.4828   23.5035 C   0  0  0  0  0  0  0  0  0  0  0  0
    9.0435   10.5593   24.9967 C   0  0  0  0  0  0  0  0  0  0  0  0
    8.9410    9.9686   23.5772 C   0  0  0  0  0  0  0  0  0  0  0  0
    9.5133   13.0288   24.5055 C   0  0  0  0  0  0  0  0  0  0  0  0
    9.3577   12.0356   22.1265 C   0  0  0  0  0  0  0  0  0  0  0  0
    8.4550   11.9687   24.8777 C   0  0  1  0  0  0  0  0  0  0  0  0
    8.3080   11.0810   22.7359 C   0  0  2  0  0  0  0  0  0  0  0  0
   10.2895   12.7311   23.1768 C   0  0  0  0  0  0  0  0  0  0  0  0
    4.5640   12.7350   21.9909 C   0  0  0  0  0  0  0  0  0  0  0  0
   12.1271   16.0629   22.9168 N   0  0  0  0  0  0  0  0  0  0  0  0
   11.8430   15.1745   20.6949 N   0  0  0  0  0  0  0  0  0  0  0  0
    7.5792   11.8410   23.7282 N   0  0  0  0  0  0  0  0  0  0  0  0
    5.8662   13.2841   24.2823 O   0  0  0  0  0  0  0  0  0  0  0  0
   11.3370   11.7960   23.4880 O   0  0  0  0  0  0  0  0  0  0  0  0
    5.8173   12.1199   22.3086 O   0  0  0  0  0  0  0  0  0  0  0  0
    2.8803   10.9252   17.2165 H   0  0  0  0  0  0  0  0  0  0  0  0
    4.3057   12.9519   17.3422 H   0  0  0  0  0  0  0  0  0  0  0  0
    2.2318    9.7341   19.2945 H   0  0  0  0  0  0  0  0  0  0  0  0
    5.0833   13.7883   19.5355 H   0  0  0  0  0  0  0  0  0  0  0  0
    3.0041   10.5624   21.4924 H   0  0  0  0  0  0  0  0  0  0  0  0
   11.3781   14.9453   24.4733 H   0  0  0  0  0  0  0  0  0  0  0  0
   10.8732   13.3678   20.5276 H   0  0  0  0  0  0  0  0  0  0  0  0
   12.7744   16.9632   21.1681 H   0  0  0  0  0  0  0  0  0  0  0  0
    8.4378    9.9540   25.6818 H   0  0  0  0  0  0  0  0  0  0  0  0
   10.0705   10.5534   25.3736 H   0  0  0  0  0  0  0  0  0  0  0  0
    9.9128    9.6421   23.1946 H   0  0  0  0  0  0  0  0  0  0  0  0
    8.2845    9.0908   23.6007 H   0  0  0  0  0  0  0  0  0  0  0  0
    9.0002   13.9970   24.4193 H   0  0  0  0  0  0  0  0  0  0  0  0
   10.2275   13.1239   25.3339 H   0  0  0  0  0  0  0  0  0  0  0  0
    9.9667   11.4786   21.4026 H   0  0  0  0  0  0  0  0  0  0  0  0
    8.8163   12.8038   21.5567 H   0  0  0  0  0  0  0  0  0  0  0  0
    7.9136   12.2688   25.7798 H   0  0  0  0  0  0  0  0  0  0  0  0
    7.6468   10.6914   21.9556 H   0  0  0  0  0  0  0  0  0  0  0  0
    4.6939   13.8225   21.9743 H   0  0  0  0  0  0  0  0  0  0  0  0
    3.8371   12.4950   22.7744 H   0  0  0  0  0  0  0  0  0  0  0  0
   11.7917   11.6063   22.6535 H   0  0  0  0  0  0  0  0  0  0  0  0
  1  2  1  0  0  0  0
  1  3  2  0  0  0  0
  2  4  2  0  0  0  0
  3  5  1  0  0  0  0
  4 10  1  0  0  0  0
  5 10  2  0  0  0  0
  6  9  1  0  0  0  0
  6 20  2  0  0  0  0
  7  9  2  0  0  0  0
  7 21  1  0  0  0  0
  8 20  1  0  0  0  0
  8 21  2  0  0  0  0
  9 18  1  6  0  0  0
 10 19  1  0  0  0  0
 11 22  1  0  0  0  0
 11 23  2  0  0  0  0
 11 25  1  0  0  0  0
 12 13  1  0  0  0  0
 12 16  1  0  0  0  0
 13 17  1  0  0  0  0
 14 16  1  0  0  0  0
 14 18  1  0  0  0  0
 15 17  1  0  0  0  0
 15 18  1  0  0  0  0
 16 22  1  6  0  0  0
 17 22  1  6  0  0  0
 18 24  1  1  0  0  0
 19 25  1  0  0  0  0
  1 26  1  0  0  0  0
  2 27  1  0  0  0  0
  3 28  1  0  0  0  0
  4 29  1  0  0  0  0
  5 30  1  0  0  0  0
  6 31  1  0  0  0  0
  7 32  1  0  0  0  0
  8 33  1  0  0  0  0
 12 34  1  0  0  0  0
 12 35  1  0  0  0  0
 13 36  1  0  0  0  0
 13 37  1  0  0  0  0
 14 38  1  0  0  0  0
 14 39  1  0  0  0  0
 15 40  1  0  0  0  0
 15 41  1  0  0  0  0
 16 42  1  0  0  0  0
 17 43  1  0  0  0  0
 19 44  1  0  0  0  0
 19 45  1  0  0  0  0
 24 46  1  0  0  0  0
M  END
> <id>
EN300-28296874

> <smiles>
O[C@@]1(C[C@@H]2CC[C@H](C1)N2C(=O)OCC=3C=CC=CC3)C=4C=NC=NC4

> <IUPAC Name>
benzyl (1R,3S,5S)-3-hydroxy-3-(pyrimidin-5-yl)-8-azabicyclo[3.2.1]octane-8-carboxylate

> <CAS>
2679929-42-9

> <URL>
https://www.enaminestore.com/catalog/EN300-28296874

> <ROCS_ShapeQuery>
x0446_0A_x1080_0A_x0929_0A_x0812_0A_x0719_0A_x1140_0A_x0528_0A_x0310_0A

> <ROCS_TanimotoCombo>
0.415 

> <ROCS_ShapeTanimoto>
0.243 

> <ROCS_ColorTanimoto>
0.171 

> <ROCS_RefTversky>
0.224 

> <ROCS_RefColorTversky>
0.203 

> <ROCS_RefTverskyCombo>
0.427 

> <ROCS_FitTversky>
1.548 

> <ROCS_FitColorTversky>
0.521 

> <ROCS_FitTverskyCombo>
2.069 

> <ROCS_ColorScore>
-7.311

> <ROCS_Overlap>
2647.983

> <ROCS_Rank>
320                 

$$$$
untitled-dbase-495372_0
  -OEChem-02082415563D

 43 45  0     0  0  0  0  0  0999 V2000
   13.3607   15.7012   22.3746 C   0  0  0  0  0  0  0  0  0  0  0  0
   12.6578   16.7700   21.8186 C   0  0  0  0  0  0  0  0  0  0  0  0
   12.6983   14.5101   22.6720 C   0  0  0  0  0  0  0  0  0  0  0  0
   11.2925   16.6479   21.5601 C   0  0  0  0  0  0  0  0  0  0  0  0
   11.3331   14.3880   22.4135 C   0  0  0  0  0  0  0  0  0  0  0  0
    9.1097   11.8405   23.8011 C   0  0  0  0  0  0  0  0  0  0  0  0
   10.6302   15.4569   21.8575 C   0  0  0  0  0  0  0  0  0  0  0  0
    9.5442   10.7018   23.1816 C   0  0  0  0  0  0  0  0  0  0  0  0
    8.0603   11.4546   24.6359 C   0  0  0  0  0  0  0  0  0  0  0  0
   10.6468   13.1095   22.7383 C   0  0  0  0  0  0  0  0  0  0  0  0
   10.6163   10.6810   22.2380 C   0  0  0  0  0  0  0  0  0  0  0  0
    5.8963   13.3544   23.6370 C   0  0  0  0  0  0  0  0  0  0  0  0
    7.6495   14.6913   19.9904 C   0  0  0  0  0  0  0  0  0  0  0  0
    8.8014    8.3031   23.3237 C   0  0  0  0  0  0  0  0  0  0  0  0
    7.2398   12.2907   25.5266 C   0  0  0  0  0  0  0  0  0  0  0  0
    5.8393   12.5852   24.9474 C   0  0  0  0  0  0  0  0  0  0  0  0
    8.8879   15.5254   20.2402 C   0  0  0  0  0  0  0  0  0  0  0  0
    7.8318   10.1364   24.5568 N   0  0  0  0  0  0  0  0  0  0  0  0
    9.6565   13.1089   23.5933 N   0  0  0  0  0  0  0  0  0  0  0  0
    8.7504    9.7052   23.6635 N   0  0  0  0  0  0  0  0  0  0  0  0
   11.1311   11.9691   22.0647 N   0  0  0  0  0  0  0  0  0  0  0  0
   11.0311    9.6850   21.6558 O   0  0  0  0  0  0  0  0  0  0  0  0
    9.2963   15.3561   21.5958 O   0  0  0  0  0  0  0  0  0  0  0  0
   14.4239   15.7967   22.5758 H   0  0  0  0  0  0  0  0  0  0  0  0
   13.1739   17.6973   21.5878 H   0  0  0  0  0  0  0  0  0  0  0  0
   13.2564   13.6837   23.1046 H   0  0  0  0  0  0  0  0  0  0  0  0
   10.7509   17.4843   21.1267 H   0  0  0  0  0  0  0  0  0  0  0  0
    6.4256   14.3043   23.7626 H   0  0  0  0  0  0  0  0  0  0  0  0
    6.4092   12.7740   22.8635 H   0  0  0  0  0  0  0  0  0  0  0  0
    4.8845   13.5740   23.2821 H   0  0  0  0  0  0  0  0  0  0  0  0
    7.8518   13.6308   20.1641 H   0  0  0  0  0  0  0  0  0  0  0  0
    6.8323   15.0075   20.6470 H   0  0  0  0  0  0  0  0  0  0  0  0
    7.2988   14.8201   18.9611 H   0  0  0  0  0  0  0  0  0  0  0  0
    9.4881    7.8124   24.0184 H   0  0  0  0  0  0  0  0  0  0  0  0
    7.8000    7.8717   23.4072 H   0  0  0  0  0  0  0  0  0  0  0  0
    9.1539    8.1934   22.2943 H   0  0  0  0  0  0  0  0  0  0  0  0
    7.1095   11.8177   26.5228 H   0  0  0  0  0  0  0  0  0  0  0  0
    7.7346   13.2606   25.7447 H   0  0  0  0  0  0  0  0  0  0  0  0
    5.3041   11.6415   24.7865 H   0  0  0  0  0  0  0  0  0  0  0  0
    5.2553   13.1604   25.6761 H   0  0  0  0  0  0  0  0  0  0  0  0
    8.6788   16.5849   20.0648 H   0  0  0  0  0  0  0  0  0  0  0  0
    9.7037   15.2077   19.5840 H   0  0  0  0  0  0  0  0  0  0  0  0
   11.9019   12.0912   21.4131 H   0  0  0  0  0  0  0  0  0  0  0  0
  1  2  1  0  0  0  0
  1  3  2  0  0  0  0
  2  4  2  0  0  0  0
  3  5  1  0  0  0  0
  4  7  1  0  0  0  0
  5  7  2  0  0  0  0
  5 10  1  0  0  0  0
  6  8  2  0  0  0  0
  6  9  1  0  0  0  0
  6 19  1  0  0  0  0
  7 23  1  0  0  0  0
  8 11  1  0  0  0  0
  8 20  1  0  0  0  0
  9 15  1  0  0  0  0
  9 18  2  0  0  0  0
 10 19  2  0  0  0  0
 10 21  1  0  0  0  0
 11 21  1  0  0  0  0
 11 22  2  0  0  0  0
 12 16  1  0  0  0  0
 13 17  1  0  0  0  0
 14 20  1  0  0  0  0
 15 16  1  0  0  0  0
 17 23  1  0  0  0  0
 18 20  1  0  0  0  0
  1 24  1  0  0  0  0
  2 25  1  0  0  0  0
  3 26  1  0  0  0  0
  4 27  1  0  0  0  0
 12 28  1  0  0  0  0
 12 29  1  0  0  0  0
 12 30  1  0  0  0  0
 13 31  1  0  0  0  0
 13 32  1  0  0  0  0
 13 33  1  0  0  0  0
 14 34  1  0  0  0  0
 14 35  1  0  0  0  0
 14 36  1  0  0  0  0
 15 37  1  0  0  0  0
 15 38  1  0  0  0  0
 16 39  1  0  0  0  0
 16 40  1  0  0  0  0
 17 41  1  0  0  0  0
 17 42  1  0  0  0  0
 21 43  1  0  0  0  0
M  END
> <id>
EN300-7419020

> <smiles>
CCCC1=NN(C)C=2C(=O)NC(=NC12)C=3C=CC=CC3OCC

> <MDLNUMBER>
MFCD03093929

> <IUPAC Name>
5-(2-ethoxyphenyl)-1-methyl-3-propyl-1H,6H,7H-pyrazolo[4,3-d]pyrimidin-7-one

> <CAS>
139756-21-1

> <Purity>
95

> <URL>
https://www.enaminestore.com/catalog/EN300-7419020

> <MP>
143-146

> <ROCS_ShapeQuery>
x0446_0A_x1080_0A_x0929_0A_x0812_0A_x0719_0A_x1140_0A_x0528_0A_x0310_0A

> <ROCS_TanimotoCombo>
0.414 

> <ROCS_ShapeTanimoto>
0.261 

> <ROCS_ColorTanimoto>
0.153 

> <ROCS_RefTversky>
0.236 

> <ROCS_RefColorTversky>
0.172 

> <ROCS_RefTverskyCombo>
0.407 

> <ROCS_FitTversky>
1.717 

> <ROCS_FitColorTversky>
0.589 

> <ROCS_FitTverskyCombo>
2.306 

> <ROCS_ColorScore>
-6.139

> <ROCS_Overlap>
2783.713

> <ROCS_Rank>
321                 

$$$$
untitled-dbase-471820_0
  -OEChem-02082415563D

 23 26  0     0  0  0  0  0  0999 V2000
   10.0120   13.5583   23.5847 C   0  0  0  0  0  0  0  0  0  0  0  0
    8.1826   13.2960   22.2365 C   0  0  0  0  0  0  0  0  0  0  0  0
   10.3129   10.9546   23.6943 C   0  0  0  0  0  0  0  0  0  0  0  0
    8.4742   10.6908   22.3379 C   0  0  0  0  0  0  0  0  0  0  0  0
    8.9679   11.9040   25.3330 C   0  0  0  0  0  0  0  0  0  0  0  0
    7.1291   11.6397   23.9768 C   0  0  0  0  0  0  0  0  0  0  0  0
    9.0379   10.1024   23.6384 C   0  0  0  0  0  0  0  0  0  0  0  0
    8.0990   10.7651   24.7826 C   0  0  0  0  0  0  0  0  0  0  0  0
    9.4987   12.2134   23.9430 C   0  0  0  0  0  0  0  0  0  0  0  0
    8.2351   12.0321   23.0111 C   0  0  0  0  0  0  0  0  0  0  0  0
   10.9906   14.1010   24.0730 O   0  0  0  0  0  0  0  0  0  0  0  0
    7.3493   13.5791   21.3903 O   0  0  0  0  0  0  0  0  0  0  0  0
    9.2182   14.1104   22.6138 O   0  0  0  0  0  0  0  0  0  0  0  0
   10.9808   10.6801   24.5178 H   0  0  0  0  0  0  0  0  0  0  0  0
   10.9013   10.9743   22.7706 H   0  0  0  0  0  0  0  0  0  0  0  0
    9.1778   10.7268   21.4993 H   0  0  0  0  0  0  0  0  0  0  0  0
    7.5625   10.1893   21.9966 H   0  0  0  0  0  0  0  0  0  0  0  0
    8.4166   12.7284   25.7976 H   0  0  0  0  0  0  0  0  0  0  0  0
    9.7302   11.5631   26.0413 H   0  0  0  0  0  0  0  0  0  0  0  0
    6.3120   11.0716   23.5198 H   0  0  0  0  0  0  0  0  0  0  0  0
    6.6933   12.4811   24.5262 H   0  0  0  0  0  0  0  0  0  0  0  0
    9.1696    9.0213   23.6703 H   0  0  0  0  0  0  0  0  0  0  0  0
    7.6572   10.0882   25.5133 H   0  0  0  0  0  0  0  0  0  0  0  0
  1  9  1  0  0  0  0
  1 11  2  0  0  0  0
  1 13  1  0  0  0  0
  2 10  1  0  0  0  0
  2 12  2  0  0  0  0
  2 13  1  0  0  0  0
  3  7  1  0  0  0  0
  3  9  1  0  0  0  0
  4  7  1  0  0  0  0
  4 10  1  0  0  0  0
  5  8  1  0  0  0  0
  5  9  1  0  0  0  0
  6  8  1  0  0  0  0
  6 10  1  0  0  0  0
  7  8  1  0  0  0  0
  9 10  1  0  0  0  0
  3 14  1  0  0  0  0
  3 15  1  0  0  0  0
  4 16  1  0  0  0  0
  4 17  1  0  0  0  0
  5 18  1  0  0  0  0
  5 19  1  0  0  0  0
  6 20  1  0  0  0  0
  6 21  1  0  0  0  0
  7 22  1  0  0  0  0
  8 23  1  0  0  0  0
M  END
> <id>
EN300-26865952

> <smiles>
O=C1OC(=O)C23CC4CC31CC4C2

> <MDLNUMBER>
MFCD32691891

> <IUPAC Name>
3-oxatetracyclo[5.2.1.1^{5,8}.0^{1,5}]undecane-2,4-dione

> <CAS>
2445793-20-2

> <Purity>
95

> <URL>
https://www.enaminestore.com/catalog/EN300-26865952

> <ROCS_ShapeQuery>
x0446_0A_x1080_0A_x0929_0A_x0812_0A_x0719_0A_x1140_0A_x0528_0A_x0310_0A

> <ROCS_TanimotoCombo>
0.414 

> <ROCS_ShapeTanimoto>
0.204 

> <ROCS_ColorTanimoto>
0.211 

> <ROCS_RefTversky>
0.187 

> <ROCS_RefColorTversky>
0.299 

> <ROCS_RefTverskyCombo>
0.486 

> <ROCS_FitTversky>
1.796 

> <ROCS_FitColorTversky>
0.416 

> <ROCS_FitTverskyCombo>
2.212 

> <ROCS_ColorScore>
-10.966

> <ROCS_Overlap>
2203.523

> <ROCS_Rank>
322                 

$$$$
untitled-dbase-259192_4
  -OEChem-02082415563D

 49 52  0     1  0  0  0  0  0999 V2000
    9.6501   14.2387   22.1134 C   0  0  0  0  0  0  0  0  0  0  0  0
    7.8476   11.5224   24.9569 C   0  0  0  0  0  0  0  0  0  0  0  0
    9.7490   13.0099   24.2737 C   0  0  0  0  0  0  0  0  0  0  0  0
    7.7466   12.7595   22.7774 C   0  0  0  0  0  0  0  0  0  0  0  0
   10.0463   10.5202   24.2905 C   0  0  0  0  0  0  0  0  0  0  0  0
    8.0483   10.2711   22.7937 C   0  0  0  0  0  0  0  0  0  0  0  0
    9.9489   11.7575   22.1069 C   0  0  0  0  0  0  0  0  0  0  0  0
   11.4455   15.7855   21.4158 C   0  0  0  0  0  0  0  0  0  0  0  0
   12.0933   13.6587   22.4910 C   0  0  0  0  0  0  0  0  0  0  0  0
   12.5272   16.4977   22.2292 C   0  0  0  0  0  0  0  0  0  0  0  0
   13.1647   14.4179   23.2778 C   0  0  0  0  0  0  0  0  0  0  0  0
    9.3749   11.7063   25.0020 C   0  0  2  0  0  0  0  0  0  0  0  0
    7.3643   11.4541   23.4973 C   0  0  1  0  0  0  0  0  0  0  0  0
    9.2761   12.9530   22.8072 C   0  0  0  0  0  0  0  0  0  0  0  0
    9.5758   10.4492   22.8267 C   0  0  0  0  0  0  0  0  0  0  0  0
   15.6575   14.4520   21.8962 C   0  0  0  0  0  0  0  0  0  0  0  0
   14.5271   15.3307   21.4807 C   0  0  0  0  0  0  0  0  0  0  0  0
   11.0090   14.5517   22.0690 N   0  0  0  0  0  0  0  0  0  0  0  0
   13.6513   15.6324   22.6102 N   0  0  0  0  0  0  0  0  0  0  0  0
    8.7612   14.9439   21.6293 O   0  0  0  0  0  0  0  0  0  0  0  0
   10.2070    9.3475   22.1902 O   0  0  0  0  0  0  0  0  0  0  0  0
    7.5658   10.6044   25.4872 H   0  0  0  0  0  0  0  0  0  0  0  0
    7.3550   12.3539   25.4756 H   0  0  0  0  0  0  0  0  0  0  0  0
    9.2962   13.8679   24.7879 H   0  0  0  0  0  0  0  0  0  0  0  0
   10.8352   13.1640   24.3187 H   0  0  0  0  0  0  0  0  0  0  0  0
    7.3861   12.7345   21.7406 H   0  0  0  0  0  0  0  0  0  0  0  0
    7.2429   13.6093   23.2568 H   0  0  0  0  0  0  0  0  0  0  0  0
   11.1389   10.6182   24.3309 H   0  0  0  0  0  0  0  0  0  0  0  0
    9.8135    9.5806   24.8082 H   0  0  0  0  0  0  0  0  0  0  0  0
    7.7687    9.3250   23.2750 H   0  0  0  0  0  0  0  0  0  0  0  0
    7.6988   10.1896   21.7562 H   0  0  0  0  0  0  0  0  0  0  0  0
    9.6510   11.7075   21.0504 H   0  0  0  0  0  0  0  0  0  0  0  0
   11.0410   11.8764   22.0886 H   0  0  0  0  0  0  0  0  0  0  0  0
   10.5583   16.4262   21.3151 H   0  0  0  0  0  0  0  0  0  0  0  0
   11.8209   15.6000   20.4053 H   0  0  0  0  0  0  0  0  0  0  0  0
   12.5484   13.1683   21.6253 H   0  0  0  0  0  0  0  0  0  0  0  0
   11.6420   12.8755   23.1116 H   0  0  0  0  0  0  0  0  0  0  0  0
   12.8891   17.3813   21.6606 H   0  0  0  0  0  0  0  0  0  0  0  0
   12.0517   16.9070   23.1438 H   0  0  0  0  0  0  0  0  0  0  0  0
   12.7333   14.6877   24.2651 H   0  0  0  0  0  0  0  0  0  0  0  0
   14.0093   13.7290   23.5039 H   0  0  0  0  0  0  0  0  0  0  0  0
    9.7123   11.7537   26.0433 H   0  0  0  0  0  0  0  0  0  0  0  0
    6.2769   11.3220   23.4727 H   0  0  0  0  0  0  0  0  0  0  0  0
   15.2604   13.5086   22.2991 H   0  0  0  0  0  0  0  0  0  0  0  0
   16.2955   14.2391   21.0258 H   0  0  0  0  0  0  0  0  0  0  0  0
   16.2512   14.9601   22.6704 H   0  0  0  0  0  0  0  0  0  0  0  0
   14.9323   16.2712   21.0792 H   0  0  0  0  0  0  0  0  0  0  0  0
   13.9436   14.8201   20.7003 H   0  0  0  0  0  0  0  0  0  0  0  0
    9.8888    9.3328   21.2728 H   0  0  0  0  0  0  0  0  0  0  0  0
  1 14  1  0  0  0  0
  1 18  1  0  0  0  0
  1 20  2  0  0  0  0
  2 12  1  0  0  0  0
  2 13  1  0  0  0  0
  3 12  1  0  0  0  0
  3 14  1  0  0  0  0
  4 13  1  0  0  0  0
  4 14  1  0  0  0  0
  5 12  1  0  0  0  0
  5 15  1  0  0  0  0
  6 13  1  0  0  0  0
  6 15  1  0  0  0  0
  7 14  1  0  0  0  0
  7 15  1  0  0  0  0
  8 10  1  0  0  0  0
  8 18  1  0  0  0  0
  9 11  1  0  0  0  0
  9 18  1  0  0  0  0
 10 19  1  0  0  0  0
 11 19  1  0  0  0  0
 15 21  1  0  0  0  0
 16 17  1  0  0  0  0
 17 19  1  0  0  0  0
  2 22  1  0  0  0  0
  2 23  1  0  0  0  0
  3 24  1  0  0  0  0
  3 25  1  0  0  0  0
  4 26  1  0  0  0  0
  4 27  1  0  0  0  0
  5 28  1  0  0  0  0
  5 29  1  0  0  0  0
  6 30  1  0  0  0  0
  6 31  1  0  0  0  0
  7 32  1  0  0  0  0
  7 33  1  0  0  0  0
  8 34  1  0  0  0  0
  8 35  1  0  0  0  0
  9 36  1  0  0  0  0
  9 37  1  0  0  0  0
 10 38  1  0  0  0  0
 10 39  1  0  0  0  0
 11 40  1  0  0  0  0
 11 41  1  0  0  0  0
 12 42  1  0  0  0  0
 13 43  1  0  0  0  0
 16 44  1  0  0  0  0
 16 45  1  0  0  0  0
 16 46  1  0  0  0  0
 17 47  1  0  0  0  0
 17 48  1  0  0  0  0
 21 49  1  0  0  0  0
M  END
> <id>
EN300-26867032

> <smiles>
CCN1CCN(CC1)C(=O)C2(CC3CC4CC(O)(C3)C2)C4

> <IUPAC Name>
3-(4-ethylpiperazine-1-carbonyl)adamantan-1-ol

> <CAS>
1057921-98-8

> <URL>
https://www.enaminestore.com/catalog/EN300-26867032

> <ROCS_ShapeQuery>
x0446_0A_x1080_0A_x0929_0A_x0812_0A_x0719_0A_x1140_0A_x0528_0A_x0310_0A

> <ROCS_TanimotoCombo>
0.414 

> <ROCS_ShapeTanimoto>
0.246 

> <ROCS_ColorTanimoto>
0.169 

> <ROCS_RefTversky>
0.223 

> <ROCS_RefColorTversky>
0.196 

> <ROCS_RefTverskyCombo>
0.418 

> <ROCS_FitTversky>
1.728 

> <ROCS_FitColorTversky>
0.551 

> <ROCS_FitTverskyCombo>
2.279 

> <ROCS_ColorScore>
-7.029

> <ROCS_Overlap>
2628.929

> <ROCS_Rank>
323                 

$$$$
untitled-dbase-289648_3
  -OEChem-02082415563D

 36 39  0     0  0  0  0  0  0999 V2000
   14.4591   17.2521   21.0358 C   0  0  0  0  0  0  0  0  0  0  0  0
   13.4020   17.7334   20.2350 C   0  0  0  0  0  0  0  0  0  0  0  0
   14.2410   16.2625   21.9989 C   0  0  0  0  0  0  0  0  0  0  0  0
   12.1037   17.2357   20.3797 C   0  0  0  0  0  0  0  0  0  0  0  0
    9.3144   10.2524   23.3159 C   0  0  0  0  0  0  0  0  0  0  0  0
   12.9543   15.7826   22.1237 C   0  0  0  0  0  0  0  0  0  0  0  0
   11.9103   16.2580   21.3329 C   0  0  0  0  0  0  0  0  0  0  0  0
    9.2570   11.6258   23.2779 C   0  0  0  0  0  0  0  0  0  0  0  0
    7.5664   10.7690   24.4323 C   0  0  0  0  0  0  0  0  0  0  0  0
    6.3736   10.8675   25.2078 C   0  0  0  0  0  0  0  0  0  0  0  0
    6.4817   13.3059   25.0016 C   0  0  0  0  0  0  0  0  0  0  0  0
    7.6056   13.2172   24.2710 C   0  0  0  0  0  0  0  0  0  0  0  0
   12.4097   14.7684   23.0321 C   0  0  0  0  0  0  0  0  0  0  0  0
   10.6859   15.5536   21.7266 C   0  0  0  0  0  0  0  0  0  0  0  0
    5.8540   12.0806   25.4804 C   0  0  0  0  0  0  0  0  0  0  0  0
   10.1901   12.5720   22.6150 C   0  0  0  0  0  0  0  0  0  0  0  0
    4.1769   10.9774   26.6414 C   0  0  0  0  0  0  0  0  0  0  0  0
    8.2673    9.7283   24.0306 N   0  0  0  0  0  0  0  0  0  0  0  0
    8.1361   11.9608   23.9932 N   0  0  0  0  0  0  0  0  0  0  0  0
   11.0972   14.6831   22.6869 N   0  0  0  0  0  0  0  0  0  0  0  0
   13.0519   14.1661   23.8697 O   0  0  0  0  0  0  0  0  0  0  0  0
    9.5866   15.7449   21.2454 O   0  0  0  0  0  0  0  0  0  0  0  0
   10.8202   12.2935   21.6062 O   0  0  0  0  0  0  0  0  0  0  0  0
    4.7034   12.2153   26.2270 O   0  0  0  0  0  0  0  0  0  0  0  0
   10.2400   13.7739   23.2719 O   0  0  0  0  0  0  0  0  0  0  0  0
   15.4578   17.6596   20.9008 H   0  0  0  0  0  0  0  0  0  0  0  0
   13.6026   18.5044   19.4954 H   0  0  0  0  0  0  0  0  0  0  0  0
   15.0532   15.8954   22.6152 H   0  0  0  0  0  0  0  0  0  0  0  0
   11.2920   17.6081   19.7661 H   0  0  0  0  0  0  0  0  0  0  0  0
   10.0566    9.6094   22.8647 H   0  0  0  0  0  0  0  0  0  0  0  0
    5.9015    9.9596   25.5673 H   0  0  0  0  0  0  0  0  0  0  0  0
    6.0412   14.2678   25.2368 H   0  0  0  0  0  0  0  0  0  0  0  0
    8.1192   14.0896   23.8865 H   0  0  0  0  0  0  0  0  0  0  0  0
    3.2694   11.1442   27.2269 H   0  0  0  0  0  0  0  0  0  0  0  0
    4.9195   10.4478   27.2435 H   0  0  0  0  0  0  0  0  0  0  0  0
    3.9339   10.3810   25.7588 H   0  0  0  0  0  0  0  0  0  0  0  0
  1  2  1  0  0  0  0
  1  3  2  0  0  0  0
  2  4  2  0  0  0  0
  3  6  1  0  0  0  0
  4  7  1  0  0  0  0
  5  8  2  0  0  0  0
  5 18  1  0  0  0  0
  6  7  2  0  0  0  0
  6 13  1  0  0  0  0
  7 14  1  0  0  0  0
  8 16  1  0  0  0  0
  8 19  1  0  0  0  0
  9 10  1  0  0  0  0
  9 18  2  0  0  0  0
  9 19  1  0  0  0  0
 10 15  2  0  0  0  0
 11 12  2  0  0  0  0
 11 15  1  0  0  0  0
 12 19  1  0  0  0  0
 13 20  1  0  0  0  0
 13 21  2  0  0  0  0
 14 20  1  0  0  0  0
 14 22  2  0  0  0  0
 15 24  1  0  0  0  0
 16 23  2  0  0  0  0
 16 25  1  0  0  0  0
 17 24  1  0  0  0  0
 20 25  1  0  0  0  0
  1 26  1  0  0  0  0
  2 27  1  0  0  0  0
  3 28  1  0  0  0  0
  4 29  1  0  0  0  0
  5 30  1  0  0  0  0
 10 31  1  0  0  0  0
 11 32  1  0  0  0  0
 12 33  1  0  0  0  0
 17 34  1  0  0  0  0
 17 35  1  0  0  0  0
 17 36  1  0  0  0  0
M  END
> <id>
EN300-6518246

> <smiles>
COC=1C=CN2C(=CN=C2C1)C(=O)ON3C(=O)C=4C=CC=CC4C3=O

> <IUPAC Name>
1,3-dioxo-2,3-dihydro-1H-isoindol-2-yl 7-methoxyimidazo[1,2-a]pyridine-3-carboxylate

> <CAS>
2248402-75-5

> <URL>
https://www.enaminestore.com/catalog/EN300-6518246

> <ROCS_ShapeQuery>
x0446_0A_x1080_0A_x0929_0A_x0812_0A_x0719_0A_x1140_0A_x0528_0A_x0310_0A

> <ROCS_TanimotoCombo>
0.414 

> <ROCS_ShapeTanimoto>
0.257 

> <ROCS_ColorTanimoto>
0.157 

> <ROCS_RefTversky>
0.235 

> <ROCS_RefColorTversky>
0.179 

> <ROCS_RefTverskyCombo>
0.414 

> <ROCS_FitTversky>
1.578 

> <ROCS_FitColorTversky>
0.563 

> <ROCS_FitTverskyCombo>
2.141 

> <ROCS_ColorScore>
-6.420

> <ROCS_Overlap>
2778.625

> <ROCS_Rank>
324                 

$$$$
untitled-dbase-570595_7
  -OEChem-02082415563D

 33 35  0     0  0  0  0  0  0999 V2000
    9.7498   13.6556   23.6440 C   0  0  0  0  0  0  0  0  0  0  0  0
    7.7635   12.3009   25.7978 C   0  0  0  0  0  0  0  0  0  0  0  0
    6.7420   12.4473   23.4914 C   0  0  0  0  0  0  0  0  0  0  0  0
   10.2699   11.1150   24.3315 C   0  0  0  0  0  0  0  0  0  0  0  0
    9.3878   11.2736   22.4542 C   0  0  0  0  0  0  0  0  0  0  0  0
    6.3971   11.9029   26.3635 C   0  0  0  0  0  0  0  0  0  0  0  0
    5.5320   12.8135   24.3500 C   0  0  0  0  0  0  0  0  0  0  0  0
    9.2955   12.2050   23.7274 C   0  0  0  0  0  0  0  0  0  0  0  0
    7.8979   11.8871   24.3350 C   0  0  0  0  0  0  0  0  0  0  0  0
    9.2147   10.2042   23.6001 C   0  0  0  0  0  0  0  0  0  0  0  0
    9.4842    8.7512   23.3514 C   0  0  0  0  0  0  0  0  0  0  0  0
    8.3780    8.1344   22.6788 N   0  0  0  0  0  0  0  0  0  0  0  0
    9.0812   14.5758   23.1974 O   0  0  0  0  0  0  0  0  0  0  0  0
    5.3595   11.8524   25.3836 O   0  0  0  0  0  0  0  0  0  0  0  0
    7.9233   10.4462   24.2304 O   0  0  0  0  0  0  0  0  0  0  0  0
   11.0066   13.7924   24.1329 O   0  0  0  0  0  0  0  0  0  0  0  0
    7.8701   13.3900   25.8817 H   0  0  0  0  0  0  0  0  0  0  0  0
    8.5347   11.8454   26.4288 H   0  0  0  0  0  0  0  0  0  0  0  0
    6.4127   11.7322   22.7264 H   0  0  0  0  0  0  0  0  0  0  0  0
    7.0848   13.3501   22.9650 H   0  0  0  0  0  0  0  0  0  0  0  0
   11.2970   11.0996   23.9458 H   0  0  0  0  0  0  0  0  0  0  0  0
   10.3111   11.0206   25.4195 H   0  0  0  0  0  0  0  0  0  0  0  0
    8.5746   11.3281   21.7266 H   0  0  0  0  0  0  0  0  0  0  0  0
   10.3393   11.2707   21.9084 H   0  0  0  0  0  0  0  0  0  0  0  0
    6.4512   10.9258   26.8849 H   0  0  0  0  0  0  0  0  0  0  0  0
    6.0896   12.6367   27.1321 H   0  0  0  0  0  0  0  0  0  0  0  0
    5.6941   13.7861   24.8192 H   0  0  0  0  0  0  0  0  0  0  0  0
    4.6208   12.8787   23.7496 H   0  0  0  0  0  0  0  0  0  0  0  0
   10.3843    8.6622   22.7297 H   0  0  0  0  0  0  0  0  0  0  0  0
    9.6472    8.2539   24.3161 H   0  0  0  0  0  0  0  0  0  0  0  0
    8.0139    7.3906   23.2412 H   0  0  0  0  0  0  0  0  0  0  0  0
    7.6589    8.8129   22.5219 H   0  0  0  0  0  0  0  0  0  0  0  0
   11.3188   14.7213   24.0861 H   0  0  0  0  0  0  0  0  0  0  0  0
  1  8  1  1  0  0  0
  1 13  2  0  0  0  0
  1 16  1  0  0  0  0
  2  6  1  0  0  0  0
  2  9  1  0  0  0  0
  3  7  1  0  0  0  0
  3  9  1  0  0  0  0
  4  8  1  0  0  0  0
  4 10  1  0  0  0  0
  5  8  1  0  0  0  0
  5 10  1  0  0  0  0
  6 14  1  0  0  0  0
  7 14  1  0  0  0  0
  8  9  1  0  0  0  0
  9 15  1  0  0  0  0
 10 11  1  1  0  0  0
 10 15  1  0  0  0  0
 11 12  1  0  0  0  0
  2 17  1  0  0  0  0
  2 18  1  0  0  0  0
  3 19  1  0  0  0  0
  3 20  1  0  0  0  0
  4 21  1  0  0  0  0
  4 22  1  0  0  0  0
  5 23  1  0  0  0  0
  5 24  1  0  0  0  0
  6 25  1  0  0  0  0
  6 26  1  0  0  0  0
  7 27  1  0  0  0  0
  7 28  1  0  0  0  0
 11 29  1  0  0  0  0
 11 30  1  0  0  0  0
 12 31  1  0  0  0  0
 12 32  1  0  0  0  0
 16 33  1  0  0  0  0
M  END
> <id>
EN300-37375250

> <smiles>
Cl.NC[C@]1(C[C@]2(C1)C(=O)O)OC32CCOCC3

> <IUPAC Name>
4-(aminomethyl)-3-oxaspiro[bicyclo[2.1.1]hexane-2,4'-oxane]-1-carboxylic acid hydrochloride

> <CAS>
2241140-50-9

> <URL>
https://www.enaminestore.com/catalog/EN300-37375250

> <ROCS_ShapeQuery>
x0446_0A_x1080_0A_x0929_0A_x0812_0A_x0719_0A_x1140_0A_x0528_0A_x0310_0A

> <ROCS_TanimotoCombo>
0.414 

> <ROCS_ShapeTanimoto>
0.212 

> <ROCS_ColorTanimoto>
0.203 

> <ROCS_RefTversky>
0.194 

> <ROCS_RefColorTversky>
0.243 

> <ROCS_RefTverskyCombo>
0.437 

> <ROCS_FitTversky>
1.757 

> <ROCS_FitColorTversky>
0.551 

> <ROCS_FitTverskyCombo>
2.308 

> <ROCS_ColorScore>
-8.753

> <ROCS_Overlap>
2289.690

> <ROCS_Rank>
325                 

$$$$
untitled-dbase-469831_7
  -OEChem-02082415563D

 33 35  0     0  0  0  0  0  0999 V2000
    9.7498   13.6556   23.6440 C   0  0  0  0  0  0  0  0  0  0  0  0
    7.7635   12.3009   25.7978 C   0  0  0  0  0  0  0  0  0  0  0  0
    6.7420   12.4473   23.4914 C   0  0  0  0  0  0  0  0  0  0  0  0
   10.2699   11.1150   24.3315 C   0  0  0  0  0  0  0  0  0  0  0  0
    9.3878   11.2736   22.4542 C   0  0  0  0  0  0  0  0  0  0  0  0
    6.3971   11.9029   26.3635 C   0  0  0  0  0  0  0  0  0  0  0  0
    5.5320   12.8135   24.3500 C   0  0  0  0  0  0  0  0  0  0  0  0
    9.2955   12.2050   23.7274 C   0  0  0  0  0  0  0  0  0  0  0  0
    7.8979   11.8871   24.3350 C   0  0  0  0  0  0  0  0  0  0  0  0
    9.2147   10.2042   23.6001 C   0  0  0  0  0  0  0  0  0  0  0  0
    9.4842    8.7512   23.3514 C   0  0  0  0  0  0  0  0  0  0  0  0
    8.3780    8.1344   22.6788 N   0  0  0  0  0  0  0  0  0  0  0  0
    9.0812   14.5758   23.1974 O   0  0  0  0  0  0  0  0  0  0  0  0
    5.3595   11.8524   25.3836 O   0  0  0  0  0  0  0  0  0  0  0  0
    7.9233   10.4462   24.2304 O   0  0  0  0  0  0  0  0  0  0  0  0
   11.0066   13.7924   24.1329 O   0  0  0  0  0  0  0  0  0  0  0  0
    7.8701   13.3900   25.8817 H   0  0  0  0  0  0  0  0  0  0  0  0
    8.5347   11.8454   26.4288 H   0  0  0  0  0  0  0  0  0  0  0  0
    6.4127   11.7322   22.7264 H   0  0  0  0  0  0  0  0  0  0  0  0
    7.0848   13.3501   22.9650 H   0  0  0  0  0  0  0  0  0  0  0  0
   11.2970   11.0996   23.9458 H   0  0  0  0  0  0  0  0  0  0  0  0
   10.3111   11.0206   25.4195 H   0  0  0  0  0  0  0  0  0  0  0  0
    8.5746   11.3281   21.7266 H   0  0  0  0  0  0  0  0  0  0  0  0
   10.3393   11.2707   21.9084 H   0  0  0  0  0  0  0  0  0  0  0  0
    6.4512   10.9258   26.8849 H   0  0  0  0  0  0  0  0  0  0  0  0
    6.0896   12.6367   27.1321 H   0  0  0  0  0  0  0  0  0  0  0  0
    5.6941   13.7861   24.8192 H   0  0  0  0  0  0  0  0  0  0  0  0
    4.6208   12.8787   23.7496 H   0  0  0  0  0  0  0  0  0  0  0  0
   10.3843    8.6622   22.7297 H   0  0  0  0  0  0  0  0  0  0  0  0
    9.6472    8.2539   24.3161 H   0  0  0  0  0  0  0  0  0  0  0  0
    8.0139    7.3906   23.2412 H   0  0  0  0  0  0  0  0  0  0  0  0
    7.6589    8.8129   22.5219 H   0  0  0  0  0  0  0  0  0  0  0  0
   11.3188   14.7213   24.0861 H   0  0  0  0  0  0  0  0  0  0  0  0
  1  8  1  1  0  0  0
  1 13  2  0  0  0  0
  1 16  1  0  0  0  0
  2  6  1  0  0  0  0
  2  9  1  0  0  0  0
  3  7  1  0  0  0  0
  3  9  1  0  0  0  0
  4  8  1  0  0  0  0
  4 10  1  0  0  0  0
  5  8  1  0  0  0  0
  5 10  1  0  0  0  0
  6 14  1  0  0  0  0
  7 14  1  0  0  0  0
  8  9  1  0  0  0  0
  9 15  1  0  0  0  0
 10 11  1  1  0  0  0
 10 15  1  0  0  0  0
 11 12  1  0  0  0  0
  2 17  1  0  0  0  0
  2 18  1  0  0  0  0
  3 19  1  0  0  0  0
  3 20  1  0  0  0  0
  4 21  1  0  0  0  0
  4 22  1  0  0  0  0
  5 23  1  0  0  0  0
  5 24  1  0  0  0  0
  6 25  1  0  0  0  0
  6 26  1  0  0  0  0
  7 27  1  0  0  0  0
  7 28  1  0  0  0  0
 11 29  1  0  0  0  0
 11 30  1  0  0  0  0
 12 31  1  0  0  0  0
 12 32  1  0  0  0  0
 16 33  1  0  0  0  0
M  END
> <id>
EN300-39870124

> <smiles>
NC[C@]1(C[C@]2(C1)C(=O)O)OC32CCOCC3

> <IUPAC Name>
4-(aminomethyl)-3-oxaspiro[bicyclo[2.1.1]hexane-2,4'-oxane]-1-carboxylic acid

> <URL>
https://www.enaminestore.com/catalog/EN300-39870124

> <ROCS_ShapeQuery>
x0446_0A_x1080_0A_x0929_0A_x0812_0A_x0719_0A_x1140_0A_x0528_0A_x0310_0A

> <ROCS_TanimotoCombo>
0.414 

> <ROCS_ShapeTanimoto>
0.212 

> <ROCS_ColorTanimoto>
0.203 

> <ROCS_RefTversky>
0.194 

> <ROCS_RefColorTversky>
0.243 

> <ROCS_RefTverskyCombo>
0.437 

> <ROCS_FitTversky>
1.757 

> <ROCS_FitColorTversky>
0.551 

> <ROCS_FitTverskyCombo>
2.308 

> <ROCS_ColorScore>
-8.753

> <ROCS_Overlap>
2289.690

> <ROCS_Rank>
326                 

$$$$
untitled-dbase-505927_3
  -OEChem-02082415563D

 39 40  0     0  0  0  0  0  0999 V2000
    6.6869   12.8244   24.5520 C   0  0  0  0  0  0  0  0  0  0  0  0
   13.4199   10.5952   23.2975 C   0  0  0  0  0  0  0  0  0  0  0  0
    7.4444   10.6693   23.5857 C   0  0  0  0  0  0  0  0  0  0  0  0
    8.9213   11.9115   25.1222 C   0  0  0  0  0  0  0  0  0  0  0  0
    8.6431    9.9352   22.9758 C   0  0  0  0  0  0  0  0  0  0  0  0
   10.1575   11.2081   24.5524 C   0  0  0  0  0  0  0  0  0  0  0  0
    7.8784   12.0929   23.9978 C   0  0  0  0  0  0  0  0  0  0  0  0
    9.9020   10.8148   23.0860 C   0  0  0  0  0  0  0  0  0  0  0  0
    8.5526   12.8014   22.7773 C   0  0  0  0  0  0  0  0  0  0  0  0
    9.1103   14.1964   23.1116 C   0  0  0  0  0  0  0  0  0  0  0  0
    7.6208   12.9425   21.5604 C   0  0  0  0  0  0  0  0  0  0  0  0
   11.1157   10.1090   22.4899 C   0  0  0  0  0  0  0  0  0  0  0  0
   14.4703   11.6656   23.2521 C   0  0  0  0  0  0  0  0  0  0  0  0
   12.2639   10.9454   22.5991 N   0  0  0  0  0  0  0  0  0  0  0  0
    6.2230   13.8583   24.0946 O   0  0  0  0  0  0  0  0  0  0  0  0
   13.5936    9.5385   23.8979 O   0  0  0  0  0  0  0  0  0  0  0  0
    9.6832   12.0182   22.3243 O   0  0  0  0  0  0  0  0  0  0  0  0
    6.1925   12.1809   25.6377 O   0  0  0  0  0  0  0  0  0  0  0  0
   14.0627   12.7453   22.5376 F   0  0  0  0  0  0  0  0  0  0  0  0
   15.6209   11.2261   22.6815 F   0  0  0  0  0  0  0  0  0  0  0  0
   14.7940   12.1149   24.4912 F   0  0  0  0  0  0  0  0  0  0  0  0
    6.6057   10.6870   22.8799 H   0  0  0  0  0  0  0  0  0  0  0  0
    7.0742   10.1105   24.4558 H   0  0  0  0  0  0  0  0  0  0  0  0
    8.5040   11.3139   25.9440 H   0  0  0  0  0  0  0  0  0  0  0  0
    9.1998   12.8684   25.5794 H   0  0  0  0  0  0  0  0  0  0  0  0
    8.7877    8.9722   23.4794 H   0  0  0  0  0  0  0  0  0  0  0  0
    8.4254    9.7223   21.9218 H   0  0  0  0  0  0  0  0  0  0  0  0
   11.0115   11.8942   24.6136 H   0  0  0  0  0  0  0  0  0  0  0  0
   10.4022   10.3297   25.1611 H   0  0  0  0  0  0  0  0  0  0  0  0
    9.5603   14.6239   22.2219 H   0  0  0  0  0  0  0  0  0  0  0  0
    9.8584   14.1044   23.8917 H   0  0  0  0  0  0  0  0  0  0  0  0
    8.3007   14.8322   23.4539 H   0  0  0  0  0  0  0  0  0  0  0  0
    8.1543   13.4402   20.7576 H   0  0  0  0  0  0  0  0  0  0  0  0
    6.7526   13.5291   21.8414 H   0  0  0  0  0  0  0  0  0  0  0  0
    7.3066   11.9565   21.2348 H   0  0  0  0  0  0  0  0  0  0  0  0
   11.2608    9.1853   23.0486 H   0  0  0  0  0  0  0  0  0  0  0  0
   10.8904    9.9033   21.4442 H   0  0  0  0  0  0  0  0  0  0  0  0
   12.2392   11.8601   22.1364 H   0  0  0  0  0  0  0  0  0  0  0  0
    5.4148   12.6441   26.0156 H   0  0  0  0  0  0  0  0  0  0  0  0
  1  7  1  0  0  0  0
  1 15  2  0  0  0  0
  1 18  1  0  0  0  0
  2 13  1  0  0  0  0
  2 14  1  0  0  0  0
  2 16  2  0  0  0  0
  3  5  1  0  0  0  0
  3  7  1  0  0  0  0
  4  6  1  0  0  0  0
  4  7  1  0  0  0  0
  5  8  1  0  0  0  0
  6  8  1  0  0  0  0
  7  9  1  0  0  0  0
  8 12  1  0  0  0  0
  8 17  1  0  0  0  0
  9 10  1  0  0  0  0
  9 11  1  0  0  0  0
  9 17  1  0  0  0  0
 12 14  1  0  0  0  0
 13 19  1  0  0  0  0
 13 20  1  0  0  0  0
 13 21  1  0  0  0  0
  3 22  1  0  0  0  0
  3 23  1  0  0  0  0
  4 24  1  0  0  0  0
  4 25  1  0  0  0  0
  5 26  1  0  0  0  0
  5 27  1  0  0  0  0
  6 28  1  0  0  0  0
  6 29  1  0  0  0  0
 10 30  1  0  0  0  0
 10 31  1  0  0  0  0
 10 32  1  0  0  0  0
 11 33  1  0  0  0  0
 11 34  1  0  0  0  0
 11 35  1  0  0  0  0
 12 36  1  0  0  0  0
 12 37  1  0  0  0  0
 14 38  1  0  0  0  0
 18 39  1  0  0  0  0
M  END
> <id>
EN300-28291934

> <smiles>
CC1(C)OC2(CNC(=O)C(F)(F)F)CCC1(CC2)C(=O)O

> <IUPAC Name>
3,3-dimethyl-1-[(2,2,2-trifluoroacetamido)methyl]-2-oxabicyclo[2.2.2]octane-4-carboxylic acid

> <CAS>
2680860-47-1

> <URL>
https://www.enaminestore.com/catalog/EN300-28291934

> <ROCS_ShapeQuery>
x0446_0A_x1080_0A_x0929_0A_x0812_0A_x0719_0A_x1140_0A_x0528_0A_x0310_0A

> <ROCS_TanimotoCombo>
0.414 

> <ROCS_ShapeTanimoto>
0.231 

> <ROCS_ColorTanimoto>
0.183 

> <ROCS_RefTversky>
0.212 

> <ROCS_RefColorTversky>
0.216 

> <ROCS_RefTverskyCombo>
0.428 

> <ROCS_FitTversky>
1.643 

> <ROCS_FitColorTversky>
0.546 

> <ROCS_FitTverskyCombo>
2.189 

> <ROCS_ColorScore>
-7.777

> <ROCS_Overlap>
2503.200

> <ROCS_Rank>
327                 

$$$$
untitled-dbase-343499_1
  -OEChem-02082415563D

 52 57  0     0  0  0  0  0  0999 V2000
   11.4168   16.2399   20.9492 C   0  0  0  0  0  0  0  0  0  0  0  0
   13.3791   15.7355   22.4272 C   0  0  0  0  0  0  0  0  0  0  0  0
   11.1421   16.2402   23.4421 C   0  0  0  0  0  0  0  0  0  0  0  0
    7.2604   10.4602   23.2459 C   0  0  0  0  0  0  0  0  0  0  0  0
    7.3114   12.8040   24.1367 C   0  0  0  0  0  0  0  0  0  0  0  0
    8.4710   10.9632   25.3841 C   0  0  0  0  0  0  0  0  0  0  0  0
   12.3447   13.9126   21.0507 C   0  0  0  0  0  0  0  0  0  0  0  0
   10.1054   14.4180   22.0666 C   0  0  0  0  0  0  0  0  0  0  0  0
   12.0703   13.9130   23.5474 C   0  0  0  0  0  0  0  0  0  0  0  0
    8.6049   12.2198   22.0695 C   0  0  0  0  0  0  0  0  0  0  0  0
    9.7655   10.3770   23.3182 C   0  0  0  0  0  0  0  0  0  0  0  0
    9.8169   12.7242   24.2109 C   0  0  0  0  0  0  0  0  0  0  0  0
   12.7034   15.4082   21.0846 C   0  0  0  0  0  0  0  0  0  0  0  0
   10.4550   15.9157   22.1047 C   0  0  0  0  0  0  0  0  0  0  0  0
   12.4276   15.4087   23.5908 C   0  0  0  0  0  0  0  0  0  0  0  0
    7.3127   11.9478   22.8588 C   0  0  0  0  0  0  0  0  0  0  0  0
    8.4781   10.0975   24.1126 C   0  0  0  0  0  0  0  0  0  0  0  0
    8.5294   12.4536   25.0084 C   0  0  0  0  0  0  0  0  0  0  0  0
   11.3842   13.5631   22.2091 C   0  0  0  0  0  0  0  0  0  0  0  0
    9.8422   11.8692   22.9255 C   0  0  0  0  0  0  0  0  0  0  0  0
   11.0583   12.1395   22.1736 N   0  0  0  0  0  0  0  0  0  0  0  0
   11.6604   17.3095   20.9538 H   0  0  0  0  0  0  0  0  0  0  0  0
   10.9331   16.0274   19.9879 H   0  0  0  0  0  0  0  0  0  0  0  0
   14.3075   15.1603   22.5295 H   0  0  0  0  0  0  0  0  0  0  0  0
   13.6570   16.7962   22.4575 H   0  0  0  0  0  0  0  0  0  0  0  0
   11.3805   17.3099   23.4904 H   0  0  0  0  0  0  0  0  0  0  0  0
   10.4605   16.0280   24.2749 H   0  0  0  0  0  0  0  0  0  0  0  0
    6.3343   10.2486   23.7944 H   0  0  0  0  0  0  0  0  0  0  0  0
    7.2449    9.8385   22.3423 H   0  0  0  0  0  0  0  0  0  0  0  0
    7.3323   13.8688   23.8743 H   0  0  0  0  0  0  0  0  0  0  0  0
    6.3861   12.6334   24.7006 H   0  0  0  0  0  0  0  0  0  0  0  0
    7.5662   10.7601   25.9700 H   0  0  0  0  0  0  0  0  0  0  0  0
    9.3267   10.7034   26.0193 H   0  0  0  0  0  0  0  0  0  0  0  0
   11.8850   13.6684   20.0837 H   0  0  0  0  0  0  0  0  0  0  0  0
   13.2627   13.3139   21.1213 H   0  0  0  0  0  0  0  0  0  0  0  0
    9.3982   14.1868   22.8741 H   0  0  0  0  0  0  0  0  0  0  0  0
    9.5923   14.1859   21.1239 H   0  0  0  0  0  0  0  0  0  0  0  0
   12.9818   13.3145   23.6783 H   0  0  0  0  0  0  0  0  0  0  0  0
   11.4114   13.6698   24.3917 H   0  0  0  0  0  0  0  0  0  0  0  0
    8.5990   11.6298   21.1433 H   0  0  0  0  0  0  0  0  0  0  0  0
    8.6349   13.2755   21.7684 H   0  0  0  0  0  0  0  0  0  0  0  0
   10.6373   10.0950   23.9233 H   0  0  0  0  0  0  0  0  0  0  0  0
    9.7873    9.7431   22.4218 H   0  0  0  0  0  0  0  0  0  0  0  0
    9.8760   13.7921   23.9616 H   0  0  0  0  0  0  0  0  0  0  0  0
   10.6897   12.4998   24.8385 H   0  0  0  0  0  0  0  0  0  0  0  0
   13.3853   15.6443   20.2601 H   0  0  0  0  0  0  0  0  0  0  0  0
    9.5414   16.5121   22.0039 H   0  0  0  0  0  0  0  0  0  0  0  0
   12.9135   15.6459   24.5437 H   0  0  0  0  0  0  0  0  0  0  0  0
    6.4424   12.2008   22.2431 H   0  0  0  0  0  0  0  0  0  0  0  0
    8.4345    9.0375   24.3866 H   0  0  0  0  0  0  0  0  0  0  0  0
    8.5217   13.0650   25.9176 H   0  0  0  0  0  0  0  0  0  0  0  0
   10.9278   11.8537   21.2050 H   0  0  0  0  0  0  0  0  0  0  0  0
  1 13  1  0  0  0  0
  1 14  1  0  0  0  0
  2 13  1  0  0  0  0
  2 15  1  0  0  0  0
  3 14  1  0  0  0  0
  3 15  1  0  0  0  0
  4 16  1  0  0  0  0
  4 17  1  0  0  0  0
  5 16  1  0  0  0  0
  5 18  1  0  0  0  0
  6 17  1  0  0  0  0
  6 18  1  0  0  0  0
  7 13  1  0  0  0  0
  7 19  1  0  0  0  0
  8 14  1  0  0  0  0
  8 19  1  0  0  0  0
  9 15  1  0  0  0  0
  9 19  1  0  0  0  0
 10 16  1  0  0  0  0
 10 20  1  0  0  0  0
 11 17  1  0  0  0  0
 11 20  1  0  0  0  0
 12 18  1  0  0  0  0
 12 20  1  0  0  0  0
 19 21  1  0  0  0  0
 20 21  1  0  0  0  0
  1 22  1  0  0  0  0
  1 23  1  0  0  0  0
  2 24  1  0  0  0  0
  2 25  1  0  0  0  0
  3 26  1  0  0  0  0
  3 27  1  0  0  0  0
  4 28  1  0  0  0  0
  4 29  1  0  0  0  0
  5 30  1  0  0  0  0
  5 31  1  0  0  0  0
  6 32  1  0  0  0  0
  6 33  1  0  0  0  0
  7 34  1  0  0  0  0
  7 35  1  0  0  0  0
  8 36  1  0  0  0  0
  8 37  1  0  0  0  0
  9 38  1  0  0  0  0
  9 39  1  0  0  0  0
 10 40  1  0  0  0  0
 10 41  1  0  0  0  0
 11 42  1  0  0  0  0
 11 43  1  0  0  0  0
 12 44  1  0  0  0  0
 12 45  1  0  0  0  0
 13 46  1  0  0  0  0
 14 47  1  0  0  0  0
 15 48  1  0  0  0  0
 16 49  1  0  0  0  0
 17 50  1  0  0  0  0
 18 51  1  0  0  0  0
 21 52  1  0  0  0  0
M  END
> <id>
EN300-19005032

> <smiles>
C1C2CC3CC1CC(C2)(C3)NC4(CC5CC6CC(C5)C4)C6

> <MDLNUMBER>
MFCD21091115

> <IUPAC Name>
N-(adamantan-1-yl)adamantan-1-amine

> <URL>
https://www.enaminestore.com/catalog/EN300-19005032

> <ROCS_ShapeQuery>
x0446_0A_x1080_0A_x0929_0A_x0812_0A_x0719_0A_x1140_0A_x0528_0A_x0310_0A

> <ROCS_TanimotoCombo>
0.414 

> <ROCS_ShapeTanimoto>
0.248 

> <ROCS_ColorTanimoto>
0.167 

> <ROCS_RefTversky>
0.225 

> <ROCS_RefColorTversky>
0.206 

> <ROCS_RefTverskyCombo>
0.431 

> <ROCS_FitTversky>
1.709 

> <ROCS_FitColorTversky>
0.464 

> <ROCS_FitTverskyCombo>
2.173 

> <ROCS_ColorScore>
-7.449

> <ROCS_Overlap>
2652.275

> <ROCS_Rank>
328                 

$$$$
untitled-dbase-253134_2
  -OEChem-02082415563D

 34 36  0     0  0  0  0  0  0999 V2000
   13.1467   15.5597   22.1993 C   0  0  0  0  0  0  0  0  0  0  0  0
   12.1664   16.3012   21.5399 C   0  0  0  0  0  0  0  0  0  0  0  0
   12.8512   14.2837   22.6791 C   0  0  0  0  0  0  0  0  0  0  0  0
   10.8905   15.7667   21.3604 C   0  0  0  0  0  0  0  0  0  0  0  0
   11.5754   13.7492   22.4995 C   0  0  0  0  0  0  0  0  0  0  0  0
   10.5950   14.4907   21.8402 C   0  0  0  0  0  0  0  0  0  0  0  0
    5.5149   11.7721   25.3928 C   0  0  0  0  0  0  0  0  0  0  0  0
    5.9229   13.1438   25.4936 C   0  0  0  0  0  0  0  0  0  0  0  0
    6.3361   10.8725   24.8437 C   0  0  0  0  0  0  0  0  0  0  0  0
    9.7344   10.6849   23.2982 C   0  0  0  0  0  0  0  0  0  0  0  0
    7.1198   13.5508   25.0463 C   0  0  0  0  0  0  0  0  0  0  0  0
   10.0675   11.9962   23.4197 C   0  0  0  0  0  0  0  0  0  0  0  0
    8.0448   12.5342   24.4270 C   0  0  0  0  0  0  0  0  0  0  0  0
    8.3931   10.2228   23.7985 C   0  0  0  0  0  0  0  0  0  0  0  0
   10.6461    9.6946   22.6905 C   0  0  0  0  0  0  0  0  0  0  0  0
    7.5807   14.9724   25.1327 C   0  0  0  0  0  0  0  0  0  0  0  0
    9.2049   12.9117   23.9904 N   0  0  0  0  0  0  0  0  0  0  0  0
    7.5917   11.2178   24.3576 N   0  0  0  0  0  0  0  0  0  0  0  0
   11.2834   12.4770   22.9787 N   0  0  0  0  0  0  0  0  0  0  0  0
    8.0828    9.0362   23.6932 O   0  0  0  0  0  0  0  0  0  0  0  0
   10.3460    8.5187   22.5834 O   0  0  0  0  0  0  0  0  0  0  0  0
    9.3656   13.9867   21.6624 F   0  0  0  0  0  0  0  0  0  0  0  0
   14.1399   15.9761   22.3390 H   0  0  0  0  0  0  0  0  0  0  0  0
   12.3970   17.2946   21.1664 H   0  0  0  0  0  0  0  0  0  0  0  0
   13.6230   13.7141   23.1908 H   0  0  0  0  0  0  0  0  0  0  0  0
   10.1272   16.3438   20.8471 H   0  0  0  0  0  0  0  0  0  0  0  0
    4.5384   11.4890   25.7678 H   0  0  0  0  0  0  0  0  0  0  0  0
    5.2233   13.8388   25.9464 H   0  0  0  0  0  0  0  0  0  0  0  0
    6.0351    9.8337   24.7638 H   0  0  0  0  0  0  0  0  0  0  0  0
   11.6049   10.1062   22.3497 H   0  0  0  0  0  0  0  0  0  0  0  0
    8.1017   15.1314   26.0752 H   0  0  0  0  0  0  0  0  0  0  0  0
    6.7222   15.6400   25.0761 H   0  0  0  0  0  0  0  0  0  0  0  0
    8.2540   15.1898   24.3051 H   0  0  0  0  0  0  0  0  0  0  0  0
   12.0270   11.8048   23.0216 H   0  0  0  0  0  0  0  0  0  0  0  0
  1  2  1  0  0  0  0
  1  3  2  0  0  0  0
  2  4  2  0  0  0  0
  3  5  1  0  0  0  0
  4  6  1  0  0  0  0
  5  6  2  0  0  0  0
  5 19  1  0  0  0  0
  6 22  1  0  0  0  0
  7  8  1  0  0  0  0
  7  9  2  0  0  0  0
  8 11  2  0  0  0  0
  9 18  1  0  0  0  0
 10 12  2  0  0  0  0
 10 14  1  0  0  0  0
 10 15  1  0  0  0  0
 11 13  1  0  0  0  0
 11 16  1  0  0  0  0
 12 17  1  0  0  0  0
 12 19  1  0  0  0  0
 13 17  2  0  0  0  0
 13 18  1  0  0  0  0
 14 18  1  0  0  0  0
 14 20  2  0  0  0  0
 15 21  2  0  0  0  0
  1 23  1  0  0  0  0
  2 24  1  0  0  0  0
  3 25  1  0  0  0  0
  4 26  1  0  0  0  0
  7 27  1  0  0  0  0
  8 28  1  0  0  0  0
  9 29  1  0  0  0  0
 15 30  1  0  0  0  0
 16 31  1  0  0  0  0
 16 32  1  0  0  0  0
 16 33  1  0  0  0  0
 19 34  1  0  0  0  0
M  END
> <id>
EN300-18084695

> <smiles>
CC1=CC=CN2C(=O)C(C=O)=C(NC=3C=CC=CC3F)N=C12

> <MDLNUMBER>
MFCD01124994

> <IUPAC Name>
2-[(2-fluorophenyl)amino]-9-methyl-4-oxo-4H-pyrido[1,2-a]pyrimidine-3-carbaldehyde

> <CAS>
303025-13-0

> <URL>
https://www.enaminestore.com/catalog/EN300-18084695

> <ROCS_ShapeQuery>
x0446_0A_x1080_0A_x0929_0A_x0812_0A_x0719_0A_x1140_0A_x0528_0A_x0310_0A

> <ROCS_TanimotoCombo>
0.414 

> <ROCS_ShapeTanimoto>
0.283 

> <ROCS_ColorTanimoto>
0.131 

> <ROCS_RefTversky>
0.251 

> <ROCS_RefColorTversky>
0.143 

> <ROCS_RefTverskyCombo>
0.394 

> <ROCS_FitTversky>
1.859 

> <ROCS_FitColorTversky>
0.600 

> <ROCS_FitTverskyCombo>
2.459 

> <ROCS_ColorScore>
-5.112

> <ROCS_Overlap>
2961.221

> <ROCS_Rank>
329                 

$$$$
untitled-dbase-560228_9
  -OEChem-02082415563D

 35 36  0     0  0  0  0  0  0999 V2000
    6.3302   12.5891   25.0232 C   0  0  0  0  0  0  0  0  0  0  0  0
    8.9643   14.1149   21.0226 C   0  0  0  0  0  0  0  0  0  0  0  0
    7.9861   10.2394   22.9691 C   0  0  0  0  0  0  0  0  0  0  0  0
    9.2143   10.5527   25.1267 C   0  0  0  0  0  0  0  0  0  0  0  0
    9.0492   11.0785   22.2417 C   0  0  0  0  0  0  0  0  0  0  0  0
   10.2771   11.3938   24.4013 C   0  0  0  0  0  0  0  0  0  0  0  0
    8.4748   12.9968   23.7403 C   0  0  0  0  0  0  0  0  0  0  0  0
    7.8545   10.7045   24.4276 C   0  0  0  0  0  0  0  0  0  0  0  0
    9.6418   12.1378   23.2020 C   0  0  0  0  0  0  0  0  0  0  0  0
   10.2647   13.3514   21.0636 C   0  0  0  0  0  0  0  0  0  0  0  0
   10.6754   13.0061   22.4875 C   0  0  0  0  0  0  0  0  0  0  0  0
    6.0882   14.0765   24.9452 C   0  0  0  0  0  0  0  0  0  0  0  0
    7.4994   12.1343   24.4221 N   0  0  0  0  0  0  0  0  0  0  0  0
    5.5143   11.8630   25.5942 O   0  0  0  0  0  0  0  0  0  0  0  0
    7.9356   13.6816   20.5191 O   0  0  0  0  0  0  0  0  0  0  0  0
    9.0439   15.3257   21.6273 O   0  0  0  0  0  0  0  0  0  0  0  0
    7.0905   14.6829   24.2852 F   0  0  0  0  0  0  0  0  0  0  0  0
    4.9384   14.3352   24.2980 F   0  0  0  0  0  0  0  0  0  0  0  0
    6.0090   14.6105   26.1768 F   0  0  0  0  0  0  0  0  0  0  0  0
    7.0219   10.3299   22.4539 H   0  0  0  0  0  0  0  0  0  0  0  0
    8.2628    9.1788   22.9326 H   0  0  0  0  0  0  0  0  0  0  0  0
    9.5196    9.4994   25.1377 H   0  0  0  0  0  0  0  0  0  0  0  0
    9.1392   10.8684   26.1745 H   0  0  0  0  0  0  0  0  0  0  0  0
    9.8394   10.4203   21.8596 H   0  0  0  0  0  0  0  0  0  0  0  0
    8.5966   11.5624   21.3673 H   0  0  0  0  0  0  0  0  0  0  0  0
   10.7204   12.1083   25.1059 H   0  0  0  0  0  0  0  0  0  0  0  0
   11.0929   10.7432   24.0625 H   0  0  0  0  0  0  0  0  0  0  0  0
    8.8310   13.7467   24.4559 H   0  0  0  0  0  0  0  0  0  0  0  0
    7.9608   13.5222   22.9272 H   0  0  0  0  0  0  0  0  0  0  0  0
    7.0918   10.1162   24.9471 H   0  0  0  0  0  0  0  0  0  0  0  0
   11.0526   13.9023   20.5383 H   0  0  0  0  0  0  0  0  0  0  0  0
   10.1105   12.4295   20.4899 H   0  0  0  0  0  0  0  0  0  0  0  0
   10.7985   13.9322   23.0577 H   0  0  0  0  0  0  0  0  0  0  0  0
   11.6393   12.4876   22.4950 H   0  0  0  0  0  0  0  0  0  0  0  0
    8.2129   15.8466   21.6390 H   0  0  0  0  0  0  0  0  0  0  0  0
  1 12  1  0  0  0  0
  1 13  1  0  0  0  0
  1 14  2  0  0  0  0
  2 10  1  0  0  0  0
  2 15  2  0  0  0  0
  2 16  1  0  0  0  0
  3  5  1  0  0  0  0
  3  8  1  0  0  0  0
  4  6  1  0  0  0  0
  4  8  1  0  0  0  0
  5  9  1  0  0  0  0
  6  9  1  0  0  0  0
  7  9  1  0  0  0  0
  7 13  1  0  0  0  0
  8 13  1  0  0  0  0
  9 11  1  0  0  0  0
 10 11  1  0  0  0  0
 12 17  1  0  0  0  0
 12 18  1  0  0  0  0
 12 19  1  0  0  0  0
  3 20  1  0  0  0  0
  3 21  1  0  0  0  0
  4 22  1  0  0  0  0
  4 23  1  0  0  0  0
  5 24  1  0  0  0  0
  5 25  1  0  0  0  0
  6 26  1  0  0  0  0
  6 27  1  0  0  0  0
  7 28  1  0  0  0  0
  7 29  1  0  0  0  0
  8 30  1  0  0  0  0
 10 31  1  0  0  0  0
 10 32  1  0  0  0  0
 11 33  1  0  0  0  0
 11 34  1  0  0  0  0
 16 35  1  0  0  0  0
M  END
> <id>
EN300-37343805

> <smiles>
OC(=O)CCC1(CCC2CC1)CN2C(=O)C(F)(F)F

> <IUPAC Name>
3-[2-(2,2,2-trifluoroacetyl)-2-azabicyclo[2.2.2]octan-4-yl]propanoic acid

> <CAS>
2763915-19-9

> <URL>
https://www.enaminestore.com/catalog/EN300-37343805

> <ROCS_ShapeQuery>
x0446_0A_x1080_0A_x0929_0A_x0812_0A_x0719_0A_x1140_0A_x0528_0A_x0310_0A

> <ROCS_TanimotoCombo>
0.414 

> <ROCS_ShapeTanimoto>
0.226 

> <ROCS_ColorTanimoto>
0.188 

> <ROCS_RefTversky>
0.207 

> <ROCS_RefColorTversky>
0.208 

> <ROCS_RefTverskyCombo>
0.415 

> <ROCS_FitTversky>
1.711 

> <ROCS_FitColorTversky>
0.655 

> <ROCS_FitTverskyCombo>
2.366 

> <ROCS_ColorScore>
-7.468

> <ROCS_Overlap>
2443.282

> <ROCS_Rank>
330                 

$$$$
untitled-dbase-290232_8
  -OEChem-02082415563D

 48 52  0     1  0  0  0  0  0999 V2000
    8.2391   19.5860   21.8317 C   0  0  0  0  0  0  0  0  0  0  0  0
    5.5624   15.1930   25.8106 C   0  0  0  0  0  0  0  0  0  0  0  0
    8.4488   18.2252   22.1984 C   0  0  0  0  0  0  0  0  0  0  0  0
    5.5621   15.2091   24.3859 C   0  0  0  0  0  0  0  0  0  0  0  0
    6.9317   19.8296   21.4728 C   0  0  0  0  0  0  0  0  0  0  0  0
    6.7059   15.7551   26.3342 C   0  0  0  0  0  0  0  0  0  0  0  0
    7.2934   17.4806   22.1060 C   0  0  0  0  0  0  0  0  0  0  0  0
    6.7053   15.7832   23.8747 C   0  0  0  0  0  0  0  0  0  0  0  0
    8.2595   15.1055   21.9724 C   0  0  0  0  0  0  0  0  0  0  0  0
   10.0690   12.8733   23.1678 C   0  0  0  0  0  0  0  0  0  0  0  0
    8.4184   11.5028   21.6417 C   0  0  0  0  0  0  0  0  0  0  0  0
    9.7928   11.7639   24.2136 C   0  0  1  0  0  0  0  0  0  0  0  0
    8.3239   10.5441   22.8552 C   0  0  2  0  0  0  0  0  0  0  0  0
    8.3985   12.0061   24.7719 C   0  0  1  0  0  0  0  0  0  0  0  0
    7.4617   11.2284   23.9052 C   0  0  2  0  0  0  0  0  0  0  0  0
    9.0615   12.8736   21.9874 C   0  0  0  0  0  0  0  0  0  0  0  0
   10.8855   10.1636   22.4479 C   0  0  0  0  0  0  0  0  0  0  0  0
    9.8621    9.2038   24.4166 C   0  0  0  0  0  0  0  0  0  0  0  0
    7.0917   15.9939   22.4090 C   0  0  0  0  0  0  0  0  0  0  0  0
    9.7568   10.4014   23.4551 N   0  3  0  0  0  0  0  0  0  0  0  0
    9.2803   15.5080   21.4271 O   0  0  0  0  0  0  0  0  0  0  0  0
    7.6643   10.8914   25.2770 O   0  0  0  0  0  0  0  0  0  0  0  0
    6.0680   15.4449   21.5541 O   0  0  0  0  0  0  0  0  0  0  0  0
    8.0183   13.8011   22.3116 O   0  0  0  0  0  0  0  0  0  0  0  0
    5.9632   18.4213   21.5787 S   0  0  0  0  0  0  0  0  0  0  0  0
    7.7728   16.2992   25.1102 S   0  0  0  0  0  0  0  0  0  0  0  0
    9.0073   20.3481   21.8317 H   0  0  0  0  0  0  0  0  0  0  0  0
    4.7647   14.7906   26.4211 H   0  0  0  0  0  0  0  0  0  0  0  0
    9.4008   17.8182   22.5148 H   0  0  0  0  0  0  0  0  0  0  0  0
    4.7603   14.8194   23.7714 H   0  0  0  0  0  0  0  0  0  0  0  0
    6.4989   20.7671   21.1532 H   0  0  0  0  0  0  0  0  0  0  0  0
    6.9660   15.8719   27.3767 H   0  0  0  0  0  0  0  0  0  0  0  0
   10.0418   13.8491   23.6708 H   0  0  0  0  0  0  0  0  0  0  0  0
   11.0902   12.7680   22.7849 H   0  0  0  0  0  0  0  0  0  0  0  0
    8.9851   11.0199   20.8379 H   0  0  0  0  0  0  0  0  0  0  0  0
    7.4099   11.6600   21.2372 H   0  0  0  0  0  0  0  0  0  0  0  0
   10.5664   11.7122   24.9859 H   0  0  0  0  0  0  0  0  0  0  0  0
    7.9620    9.5493   22.5779 H   0  0  0  0  0  0  0  0  0  0  0  0
    8.1606   12.9995   25.1132 H   0  0  0  0  0  0  0  0  0  0  0  0
    6.5148   11.6338   23.5901 H   0  0  0  0  0  0  0  0  0  0  0  0
    9.5551   13.2808   21.0978 H   0  0  0  0  0  0  0  0  0  0  0  0
   10.7311    9.1805   21.9995 H   0  0  0  0  0  0  0  0  0  0  0  0
   10.8324   10.9516   21.6943 H   0  0  0  0  0  0  0  0  0  0  0  0
   11.8316   10.2030   22.9910 H   0  0  0  0  0  0  0  0  0  0  0  0
    9.8305    8.2914   23.8183 H   0  0  0  0  0  0  0  0  0  0  0  0
   10.8089    9.2886   24.9535 H   0  0  0  0  0  0  0  0  0  0  0  0
    9.0154    9.2518   25.1040 H   0  0  0  0  0  0  0  0  0  0  0  0
    5.2691   15.9498   21.7494 H   0  0  0  0  0  0  0  0  0  0  0  0
  1  3  1  0  0  0  0
  1  5  2  0  0  0  0
  2  4  1  0  0  0  0
  2  6  2  0  0  0  0
  3  7  2  0  0  0  0
  4  8  2  0  0  0  0
  5 25  1  0  0  0  0
  6 26  1  0  0  0  0
  7 19  1  0  0  0  0
  7 25  1  0  0  0  0
  8 19  1  0  0  0  0
  8 26  1  0  0  0  0
  9 19  1  0  0  0  0
  9 21  2  0  0  0  0
  9 24  1  0  0  0  0
 10 12  1  1  0  0  0
 10 16  1  0  0  0  0
 11 13  1  1  0  0  0
 11 16  1  0  0  0  0
 12 14  1  0  0  0  0
 12 20  1  0  0  0  0
 13 15  1  0  0  0  0
 13 20  1  0  0  0  0
 14 15  1  0  0  0  0
 14 22  1  6  0  0  0
 15 22  1  6  0  0  0
 16 24  1  1  0  0  0
 17 20  1  0  0  0  0
 18 20  1  0  0  0  0
 19 23  1  0  0  0  0
  1 27  1  0  0  0  0
  2 28  1  0  0  0  0
  3 29  1  0  0  0  0
  4 30  1  0  0  0  0
  5 31  1  0  0  0  0
  6 32  1  0  0  0  0
 10 33  1  0  0  0  0
 10 34  1  0  0  0  0
 11 35  1  0  0  0  0
 11 36  1  0  0  0  0
 12 37  1  0  0  0  0
 13 38  1  0  0  0  0
 14 39  1  0  0  0  0
 15 40  1  0  0  0  0
 16 41  1  0  0  0  0
 17 42  1  0  0  0  0
 17 43  1  0  0  0  0
 17 44  1  0  0  0  0
 18 45  1  0  0  0  0
 18 46  1  0  0  0  0
 18 47  1  0  0  0  0
 23 48  1  0  0  0  0
M  CHG  1  20   1
M  END
> <id>
EN300-7375203

> <smiles>
[Br-].C[N+]1(C)[C@H]2C[C@@H](C[C@@H]1[C@H]3O[C@H]32)OC(=O)C(O)(C4=CC=CS4)C5=CC=CS5

> <MDLNUMBER>
MFCD26940106

> <IUPAC Name>
(1R,2R,4S,5S,7R)-7-{[2-hydroxy-2,2-bis(thiophen-2-yl)acetyl]oxy}-9,9-dimethyl-3-oxa-9-azatricyclo[3.3.1.0,2,4]nonan-9-ium bromide

> <CAS>
136310-93-5

> <URL>
https://www.enaminestore.com/catalog/EN300-7375203

> <Saltdate>
[Br-]

> <ROCS_ShapeQuery>
x0446_0A_x1080_0A_x0929_0A_x0812_0A_x0719_0A_x1140_0A_x0528_0A_x0310_0A

> <ROCS_TanimotoCombo>
0.414 

> <ROCS_ShapeTanimoto>
0.225 

> <ROCS_ColorTanimoto>
0.189 

> <ROCS_RefTversky>
0.211 

> <ROCS_RefColorTversky>
0.236 

> <ROCS_RefTverskyCombo>
0.446 

> <ROCS_FitTversky>
1.444 

> <ROCS_FitColorTversky>
0.487 

> <ROCS_FitTverskyCombo>
1.931 

> <ROCS_ColorScore>
-8.521

> <ROCS_Overlap>
2492.164

> <ROCS_Rank>
331                 

$$$$
untitled-dbase-2297_8
  -OEChem-02082415563D

 39 41  0     0  0  0  0  0  0999 V2000
   10.4358   13.4240   22.8467 C   0  0  0  0  0  0  0  0  0  0  0  0
   10.1160   16.1010   21.0487 C   0  0  0  0  0  0  0  0  0  0  0  0
    8.9382   10.1265   25.1922 C   0  0  0  0  0  0  0  0  0  0  0  0
    6.9350   11.3192   24.2669 C   0  0  0  0  0  0  0  0  0  0  0  0
    8.2144    9.7140   22.8261 C   0  0  0  0  0  0  0  0  0  0  0  0
    9.0468   12.5893   24.7308 C   0  0  0  0  0  0  0  0  0  0  0  0
   10.3284   10.9812   23.2876 C   0  0  0  0  0  0  0  0  0  0  0  0
    8.3230   12.1766   22.3613 C   0  0  0  0  0  0  0  0  0  0  0  0
    8.1417   11.4425   25.2135 C   0  0  0  0  0  0  0  0  0  0  0  0
    9.4283    9.8280   23.7647 C   0  0  0  0  0  0  0  0  0  0  0  0
    7.4142   11.0281   22.8339 C   0  0  0  0  0  0  0  0  0  0  0  0
    9.5403   12.3062   23.2978 C   0  0  0  0  0  0  0  0  0  0  0  0
   11.0395   15.2885   20.1670 C   0  0  0  0  0  0  0  0  0  0  0  0
   11.8111   14.2241   20.9360 C   0  0  0  0  0  0  0  0  0  0  0  0
   10.9322   13.2656   21.5669 N   0  0  0  0  0  0  0  0  0  0  0  0
   10.6590   14.3620   23.6030 O   0  0  0  0  0  0  0  0  0  0  0  0
    8.9385   15.8522   21.2664 O   0  0  0  0  0  0  0  0  0  0  0  0
   10.7616   17.1653   21.5939 O   0  0  0  0  0  0  0  0  0  0  0  0
    9.7940   10.1958   25.8749 H   0  0  0  0  0  0  0  0  0  0  0  0
    8.3093    9.3029   25.5514 H   0  0  0  0  0  0  0  0  0  0  0  0
    6.2710   10.5162   24.6098 H   0  0  0  0  0  0  0  0  0  0  0  0
    6.3490   12.2463   24.2845 H   0  0  0  0  0  0  0  0  0  0  0  0
    8.5492    9.4855   21.8068 H   0  0  0  0  0  0  0  0  0  0  0  0
    7.5727    8.8830   23.1437 H   0  0  0  0  0  0  0  0  0  0  0  0
    8.4977   13.5394   24.7646 H   0  0  0  0  0  0  0  0  0  0  0  0
    9.8991   12.7034   25.4137 H   0  0  0  0  0  0  0  0  0  0  0  0
   11.2123   11.0560   23.9347 H   0  0  0  0  0  0  0  0  0  0  0  0
   10.7049   10.7692   22.2783 H   0  0  0  0  0  0  0  0  0  0  0  0
    8.6515   11.9923   21.3300 H   0  0  0  0  0  0  0  0  0  0  0  0
    7.7556   13.1164   22.3394 H   0  0  0  0  0  0  0  0  0  0  0  0
    7.7940   11.6486   26.2318 H   0  0  0  0  0  0  0  0  0  0  0  0
    9.9930    8.8892   23.7556 H   0  0  0  0  0  0  0  0  0  0  0  0
    6.5508   10.9402   22.1653 H   0  0  0  0  0  0  0  0  0  0  0  0
   10.4417   14.8202   19.3768 H   0  0  0  0  0  0  0  0  0  0  0  0
   11.7544   15.9831   19.7120 H   0  0  0  0  0  0  0  0  0  0  0  0
   12.4369   14.6644   21.7186 H   0  0  0  0  0  0  0  0  0  0  0  0
   12.4576   13.6625   20.2543 H   0  0  0  0  0  0  0  0  0  0  0  0
   10.6669   12.4361   21.0446 H   0  0  0  0  0  0  0  0  0  0  0  0
   10.2113   17.7269   22.1810 H   0  0  0  0  0  0  0  0  0  0  0  0
  1 12  1  0  0  0  0
  1 15  1  0  0  0  0
  1 16  2  0  0  0  0
  2 13  1  0  0  0  0
  2 17  2  0  0  0  0
  2 18  1  0  0  0  0
  3  9  1  0  0  0  0
  3 10  1  0  0  0  0
  4  9  1  0  0  0  0
  4 11  1  0  0  0  0
  5 10  1  0  0  0  0
  5 11  1  0  0  0  0
  6  9  1  0  0  0  0
  6 12  1  0  0  0  0
  7 10  1  0  0  0  0
  7 12  1  0  0  0  0
  8 11  1  0  0  0  0
  8 12  1  0  0  0  0
 13 14  1  0  0  0  0
 14 15  1  0  0  0  0
  3 19  1  0  0  0  0
  3 20  1  0  0  0  0
  4 21  1  0  0  0  0
  4 22  1  0  0  0  0
  5 23  1  0  0  0  0
  5 24  1  0  0  0  0
  6 25  1  0  0  0  0
  6 26  1  0  0  0  0
  7 27  1  0  0  0  0
  7 28  1  0  0  0  0
  8 29  1  0  0  0  0
  8 30  1  0  0  0  0
  9 31  1  0  0  0  0
 10 32  1  0  0  0  0
 11 33  1  0  0  0  0
 13 34  1  0  0  0  0
 13 35  1  0  0  0  0
 14 36  1  0  0  0  0
 14 37  1  0  0  0  0
 15 38  1  0  0  0  0
 18 39  1  0  0  0  0
M  END
> <id>
EN300-11560

> <smiles>
OC(=O)CCNC(=O)C1(CC2CC3CC(C2)C1)C3

> <MDLNUMBER>
MFCD06371359

> <IUPAC Name>
3-[(adamantan-1-yl)formamido]propanoic acid

> <CAS>
21241-42-9

> <Purity>
95

> <URL>
https://www.enaminestore.com/catalog/EN300-11560

> <ROCS_ShapeQuery>
x0446_0A_x1080_0A_x0929_0A_x0812_0A_x0719_0A_x1140_0A_x0528_0A_x0310_0A

> <ROCS_TanimotoCombo>
0.414 

> <ROCS_ShapeTanimoto>
0.220 

> <ROCS_ColorTanimoto>
0.194 

> <ROCS_RefTversky>
0.201 

> <ROCS_RefColorTversky>
0.220 

> <ROCS_RefTverskyCombo>
0.422 

> <ROCS_FitTversky>
1.723 

> <ROCS_FitColorTversky>
0.620 

> <ROCS_FitTverskyCombo>
2.343 

> <ROCS_ColorScore>
-7.912

> <ROCS_Overlap>
2378.119

> <ROCS_Rank>
332                 

$$$$
untitled-dbase-274131_3
  -OEChem-02082415563D

 40 42  0     0  0  0  0  0  0999 V2000
   12.2364   16.3946   21.9681 C   0  0  0  0  0  0  0  0  0  0  0  0
   12.6464   14.1955   22.8804 C   0  0  0  0  0  0  0  0  0  0  0  0
   10.6268   14.6257   21.6261 C   0  0  0  0  0  0  0  0  0  0  0  0
   13.0462   15.5182   22.6903 C   0  0  0  0  0  0  0  0  0  0  0  0
   11.0266   15.9484   21.4360 C   0  0  0  0  0  0  0  0  0  0  0  0
   11.4366   13.7492   22.3483 C   0  0  0  0  0  0  0  0  0  0  0  0
    5.5701   11.8605   25.5999 C   0  0  0  0  0  0  0  0  0  0  0  0
    5.9037   13.2477   25.4490 C   0  0  0  0  0  0  0  0  0  0  0  0
    6.3887   10.9228   25.1143 C   0  0  0  0  0  0  0  0  0  0  0  0
    9.6342   10.6446   23.2810 C   0  0  0  0  0  0  0  0  0  0  0  0
    7.0277   13.6316   24.8267 C   0  0  0  0  0  0  0  0  0  0  0  0
    9.8989   11.9721   23.1671 C   0  0  0  0  0  0  0  0  0  0  0  0
    7.9500   12.5721   24.2794 C   0  0  0  0  0  0  0  0  0  0  0  0
    8.3748   10.2082   23.9784 C   0  0  0  0  0  0  0  0  0  0  0  0
   10.5427    9.6122   22.7424 C   0  0  0  0  0  0  0  0  0  0  0  0
   14.3396   15.9954   23.2592 C   0  0  0  0  0  0  0  0  0  0  0  0
   10.1608   16.8856   20.6639 C   0  0  0  0  0  0  0  0  0  0  0  0
    7.4097   15.0680   24.6487 C   0  0  0  0  0  0  0  0  0  0  0  0
    9.0402   12.9270   23.6757 N   0  0  0  0  0  0  0  0  0  0  0  0
    7.5712   11.2424   24.4573 N   0  0  0  0  0  0  0  0  0  0  0  0
   11.0381   12.4307   22.5378 N   0  0  0  0  0  0  0  0  0  0  0  0
    8.1269    9.0072   24.0868 O   0  0  0  0  0  0  0  0  0  0  0  0
   11.7457    9.7871   22.6613 O   0  0  0  0  0  0  0  0  0  0  0  0
   12.5481   17.4259   21.8198 H   0  0  0  0  0  0  0  0  0  0  0  0
   13.2792   13.5134   23.4439 H   0  0  0  0  0  0  0  0  0  0  0  0
    9.6831   14.2794   21.2105 H   0  0  0  0  0  0  0  0  0  0  0  0
    4.6510   11.5971   26.1101 H   0  0  0  0  0  0  0  0  0  0  0  0
    5.2092   13.9737   25.8588 H   0  0  0  0  0  0  0  0  0  0  0  0
    6.1436    9.8722   25.2243 H   0  0  0  0  0  0  0  0  0  0  0  0
   10.0446    8.6869   22.4253 H   0  0  0  0  0  0  0  0  0  0  0  0
   14.1896   16.3878   24.2724 H   0  0  0  0  0  0  0  0  0  0  0  0
   15.0778   15.1843   23.3060 H   0  0  0  0  0  0  0  0  0  0  0  0
   14.7785   16.7888   22.6402 H   0  0  0  0  0  0  0  0  0  0  0  0
   10.4203   16.8554   19.5986 H   0  0  0  0  0  0  0  0  0  0  0  0
    9.0993   16.6272   20.7709 H   0  0  0  0  0  0  0  0  0  0  0  0
   10.2738   17.9178   21.0205 H   0  0  0  0  0  0  0  0  0  0  0  0
    8.0055   15.3962   25.4986 H   0  0  0  0  0  0  0  0  0  0  0  0
    6.5116   15.6799   24.5778 H   0  0  0  0  0  0  0  0  0  0  0  0
    7.9893   15.1820   23.7340 H   0  0  0  0  0  0  0  0  0  0  0  0
   11.6305   11.7015   22.1857 H   0  0  0  0  0  0  0  0  0  0  0  0
  1  4  2  0  0  0  0
  1  5  1  0  0  0  0
  2  4  1  0  0  0  0
  2  6  2  0  0  0  0
  3  5  2  0  0  0  0
  3  6  1  0  0  0  0
  4 16  1  0  0  0  0
  5 17  1  0  0  0  0
  6 21  1  0  0  0  0
  7  8  1  0  0  0  0
  7  9  2  0  0  0  0
  8 11  2  0  0  0  0
  9 20  1  0  0  0  0
 10 12  2  0  0  0  0
 10 14  1  0  0  0  0
 10 15  1  0  0  0  0
 11 13  1  0  0  0  0
 11 18  1  0  0  0  0
 12 19  1  0  0  0  0
 12 21  1  0  0  0  0
 13 19  2  0  0  0  0
 13 20  1  0  0  0  0
 14 20  1  0  0  0  0
 14 22  2  0  0  0  0
 15 23  2  0  0  0  0
  1 24  1  0  0  0  0
  2 25  1  0  0  0  0
  3 26  1  0  0  0  0
  7 27  1  0  0  0  0
  8 28  1  0  0  0  0
  9 29  1  0  0  0  0
 15 30  1  0  0  0  0
 16 31  1  0  0  0  0
 16 32  1  0  0  0  0
 16 33  1  0  0  0  0
 17 34  1  0  0  0  0
 17 35  1  0  0  0  0
 17 36  1  0  0  0  0
 18 37  1  0  0  0  0
 18 38  1  0  0  0  0
 18 39  1  0  0  0  0
 21 40  1  0  0  0  0
M  END
> <id>
EN300-22312861

> <smiles>
CC=1C=C(C)C=C(NC=2N=C3C(C)=CC=CN3C(=O)C2C=O)C1

> <MDLNUMBER>
MFCD00857623

> <IUPAC Name>
2-[(3,5-dimethylphenyl)amino]-9-methyl-4-oxo-4H-pyrido[1,2-a]pyrimidine-3-carbaldehyde

> <CAS>
306321-54-0

> <URL>
https://www.enaminestore.com/catalog/EN300-22312861

> <ROCS_ShapeQuery>
x0446_0A_x1080_0A_x0929_0A_x0812_0A_x0719_0A_x1140_0A_x0528_0A_x0310_0A

> <ROCS_TanimotoCombo>
0.414 

> <ROCS_ShapeTanimoto>
0.277 

> <ROCS_ColorTanimoto>
0.137 

> <ROCS_RefTversky>
0.247 

> <ROCS_RefColorTversky>
0.150 

> <ROCS_RefTverskyCombo>
0.396 

> <ROCS_FitTversky>
1.791 

> <ROCS_FitColorTversky>
0.627 

> <ROCS_FitTverskyCombo>
2.418 

> <ROCS_ColorScore>
-5.343

> <ROCS_Overlap>
2913.161

> <ROCS_Rank>
333                 

$$$$
untitled-dbase-367060_4
  -OEChem-02082415563D

 40 43  0     0  0  0  0  0  0999 V2000
    2.2427   14.4024   26.4057 C   0  0  0  0  0  0  0  0  0  0  0  0
    2.8544   14.9709   25.2885 C   0  0  0  0  0  0  0  0  0  0  0  0
    2.8442   13.3262   27.0582 C   0  0  0  0  0  0  0  0  0  0  0  0
    4.0676   14.4633   24.8237 C   0  0  0  0  0  0  0  0  0  0  0  0
    4.0574   12.8186   26.5935 C   0  0  0  0  0  0  0  0  0  0  0  0
   13.1375   15.2033   22.4828 C   0  0  0  0  0  0  0  0  0  0  0  0
   12.2990   14.7404   23.4968 C   0  0  0  0  0  0  0  0  0  0  0  0
    7.1397   13.5010   24.8656 C   0  0  0  0  0  0  0  0  0  0  0  0
   11.2776   15.1946   20.9408 C   0  0  0  0  0  0  0  0  0  0  0  0
    9.6336   10.6391   23.3762 C   0  0  0  0  0  0  0  0  0  0  0  0
    8.1584   12.6407   24.3474 C   0  0  0  0  0  0  0  0  0  0  0  0
    4.6692   13.3871   25.4762 C   0  0  0  0  0  0  0  0  0  0  0  0
   12.6268   15.4305   21.2048 C   0  0  0  0  0  0  0  0  0  0  0  0
   10.9498   14.5045   23.2328 C   0  0  0  0  0  0  0  0  0  0  0  0
   10.4391   14.7316   21.9548 C   0  0  0  0  0  0  0  0  0  0  0  0
    5.9256   12.8624   24.9956 C   0  0  0  0  0  0  0  0  0  0  0  0
    9.5112   12.8365   24.0517 C   0  0  0  0  0  0  0  0  0  0  0  0
    7.6556   11.3688   24.1058 C   0  0  0  0  0  0  0  0  0  0  0  0
   13.5007   15.9152   20.1482 C   0  0  0  0  0  0  0  0  0  0  0  0
    8.2264   15.5999   21.8776 C   0  0  0  0  0  0  0  0  0  0  0  0
   10.2535   11.8211   23.5607 N   0  0  0  0  0  0  0  0  0  0  0  0
    8.3491   10.3216   23.6181 N   0  0  0  0  0  0  0  0  0  0  0  0
   14.7012   16.1447   20.3189 O   0  0  0  0  0  0  0  0  0  0  0  0
   10.1312   14.0469   24.2439 O   0  0  0  0  0  0  0  0  0  0  0  0
    9.1228   14.5074   21.6849 O   0  0  0  0  0  0  0  0  0  0  0  0
    6.0025   11.2284   24.4955 S   0  0  0  0  0  0  0  0  0  0  0  0
    1.2983   14.7981   26.7679 H   0  0  0  0  0  0  0  0  0  0  0  0
    2.3857   15.8087   24.7804 H   0  0  0  0  0  0  0  0  0  0  0  0
    2.3684   12.8842   27.9288 H   0  0  0  0  0  0  0  0  0  0  0  0
    4.5332   14.9191   23.9532 H   0  0  0  0  0  0  0  0  0  0  0  0
    4.5131   11.9787   27.1125 H   0  0  0  0  0  0  0  0  0  0  0  0
   14.1871   15.3838   22.6999 H   0  0  0  0  0  0  0  0  0  0  0  0
   12.7029   14.5650   24.4901 H   0  0  0  0  0  0  0  0  0  0  0  0
    7.2970   14.5404   25.1287 H   0  0  0  0  0  0  0  0  0  0  0  0
   10.8757   15.3730   19.9460 H   0  0  0  0  0  0  0  0  0  0  0  0
   10.2509    9.8403   22.9805 H   0  0  0  0  0  0  0  0  0  0  0  0
   13.0483   16.0814   19.1462 H   0  0  0  0  0  0  0  0  0  0  0  0
    7.2100   15.2869   21.6269 H   0  0  0  0  0  0  0  0  0  0  0  0
    8.5285   16.4366   21.2425 H   0  0  0  0  0  0  0  0  0  0  0  0
    8.2622   15.9087   22.9250 H   0  0  0  0  0  0  0  0  0  0  0  0
  1  2  1  0  0  0  0
  1  3  2  0  0  0  0
  2  4  2  0  0  0  0
  3  5  1  0  0  0  0
  4 12  1  0  0  0  0
  5 12  2  0  0  0  0
  6  7  2  0  0  0  0
  6 13  1  0  0  0  0
  7 14  1  0  0  0  0
  8 11  1  0  0  0  0
  8 16  2  0  0  0  0
  9 13  2  0  0  0  0
  9 15  1  0  0  0  0
 10 21  2  0  0  0  0
 10 22  1  0  0  0  0
 11 17  2  0  0  0  0
 11 18  1  0  0  0  0
 12 16  1  0  0  0  0
 13 19  1  0  0  0  0
 14 15  2  0  0  0  0
 14 24  1  0  0  0  0
 15 25  1  0  0  0  0
 16 26  1  0  0  0  0
 17 21  1  0  0  0  0
 17 24  1  0  0  0  0
 18 22  2  0  0  0  0
 18 26  1  0  0  0  0
 19 23  2  0  0  0  0
 20 25  1  0  0  0  0
  1 27  1  0  0  0  0
  2 28  1  0  0  0  0
  3 29  1  0  0  0  0
  4 30  1  0  0  0  0
  5 31  1  0  0  0  0
  6 32  1  0  0  0  0
  7 33  1  0  0  0  0
  8 34  1  0  0  0  0
  9 35  1  0  0  0  0
 10 36  1  0  0  0  0
 19 37  1  0  0  0  0
 20 38  1  0  0  0  0
 20 39  1  0  0  0  0
 20 40  1  0  0  0  0
M  END
> <id>
EN300-24402290

> <smiles>
COC=1C=C(C=O)C=CC1OC=2N=CN=C3SC(=CC23)C=4C=CC=CC4

> <MDLNUMBER>
MFCD02654805

> <IUPAC Name>
3-methoxy-4-({6-phenylthieno[2,3-d]pyrimidin-4-yl}oxy)benzaldehyde

> <CAS>
379248-83-6

> <URL>
https://www.enaminestore.com/catalog/EN300-24402290

> <ROCS_ShapeQuery>
x0446_0A_x1080_0A_x0929_0A_x0812_0A_x0719_0A_x1140_0A_x0528_0A_x0310_0A

> <ROCS_TanimotoCombo>
0.414 

> <ROCS_ShapeTanimoto>
0.239 

> <ROCS_ColorTanimoto>
0.175 

> <ROCS_RefTversky>
0.222 

> <ROCS_RefColorTversky>
0.192 

> <ROCS_RefTverskyCombo>
0.414 

> <ROCS_FitTversky>
1.491 

> <ROCS_FitColorTversky>
0.659 

> <ROCS_FitTverskyCombo>
2.150 

> <ROCS_ColorScore>
-6.884

> <ROCS_Overlap>
2620.726

> <ROCS_Rank>
334                 

$$$$
untitled-dbase-353179_2
  -OEChem-02082415563D

 41 43  0     0  0  0  0  0  0999 V2000
   10.5356   15.5777   21.3218 C   0  0  0  0  0  0  0  0  0  0  0  0
    9.9255   10.8629   23.2100 C   0  0  0  0  0  0  0  0  0  0  0  0
    7.0891   12.9377   24.6023 C   0  0  0  0  0  0  0  0  0  0  0  0
    8.0579   12.0313   24.1277 C   0  0  0  0  0  0  0  0  0  0  0  0
    9.3122   12.0801   23.5068 C   0  0  0  0  0  0  0  0  0  0  0  0
    9.2704    9.6813   23.5406 C   0  0  0  0  0  0  0  0  0  0  0  0
    7.5172   10.7848   24.4022 C   0  0  0  0  0  0  0  0  0  0  0  0
    9.9681   13.3712   23.1751 C   0  0  0  0  0  0  0  0  0  0  0  0
   14.2289   15.6962   21.1035 C   0  0  0  0  0  0  0  0  0  0  0  0
   13.3160   15.2829   19.9546 C   0  0  0  0  0  0  0  0  0  0  0  0
   13.4306   16.0978   22.3385 C   0  0  0  0  0  0  0  0  0  0  0  0
   12.3459   14.1768   20.3739 C   0  0  0  0  0  0  0  0  0  0  0  0
   12.4611   14.9950   22.7677 C   0  0  0  0  0  0  0  0  0  0  0  0
   11.5283   14.5284   21.6327 C   0  0  0  0  0  0  0  0  0  0  0  0
    9.9408    8.3845   23.2161 C   0  0  0  0  0  0  0  0  0  0  0  0
    5.3720   10.0316   25.4678 C   0  0  0  0  0  0  0  0  0  0  0  0
    9.7561   16.4017   21.0777 N   0  0  0  0  0  0  0  0  0  0  0  0
    6.0241   12.3274   25.1326 N   0  0  0  0  0  0  0  0  0  0  0  0
    8.0594    9.5827   24.1405 N   0  0  0  0  0  0  0  0  0  0  0  0
    6.3129   11.0204   24.9969 N   0  0  0  0  0  0  0  0  0  0  0  0
   10.7972   13.3530   22.0696 N   0  0  0  0  0  0  0  0  0  0  0  0
    9.7626   14.3494   23.8888 O   0  0  0  0  0  0  0  0  0  0  0  0
   10.8992   10.8399   22.7283 H   0  0  0  0  0  0  0  0  0  0  0  0
    7.1116   14.0182   24.5853 H   0  0  0  0  0  0  0  0  0  0  0  0
   14.9039   14.8701   21.3535 H   0  0  0  0  0  0  0  0  0  0  0  0
   14.8574   16.5372   20.7855 H   0  0  0  0  0  0  0  0  0  0  0  0
   12.7475   16.1539   19.6077 H   0  0  0  0  0  0  0  0  0  0  0  0
   13.9223   14.9442   19.1056 H   0  0  0  0  0  0  0  0  0  0  0  0
   14.1182   16.3247   23.1614 H   0  0  0  0  0  0  0  0  0  0  0  0
   12.8711   17.0163   22.1308 H   0  0  0  0  0  0  0  0  0  0  0  0
   11.6604   13.9813   19.5347 H   0  0  0  0  0  0  0  0  0  0  0  0
   12.9018   13.2392   20.5219 H   0  0  0  0  0  0  0  0  0  0  0  0
   13.0280   14.1485   23.1785 H   0  0  0  0  0  0  0  0  0  0  0  0
   11.8560   15.3776   23.6024 H   0  0  0  0  0  0  0  0  0  0  0  0
   10.5661    8.0618   24.0556 H   0  0  0  0  0  0  0  0  0  0  0  0
    9.2033    7.6010   23.0060 H   0  0  0  0  0  0  0  0  0  0  0  0
   10.5714    8.4790   22.3242 H   0  0  0  0  0  0  0  0  0  0  0  0
    5.6134    9.8056   26.5098 H   0  0  0  0  0  0  0  0  0  0  0  0
    4.3561   10.4285   25.3882 H   0  0  0  0  0  0  0  0  0  0  0  0
    5.4542    9.1320   24.8514 H   0  0  0  0  0  0  0  0  0  0  0  0
   10.9710   12.4952   21.5624 H   0  0  0  0  0  0  0  0  0  0  0  0
  1 14  1  0  0  0  0
  1 17  3  0  0  0  0
  2  5  2  0  0  0  0
  2  6  1  0  0  0  0
  3  4  1  0  0  0  0
  3 18  2  0  0  0  0
  4  5  1  0  0  0  0
  4  7  2  0  0  0  0
  5  8  1  0  0  0  0
  6 15  1  0  0  0  0
  6 19  2  0  0  0  0
  7 19  1  0  0  0  0
  7 20  1  0  0  0  0
  8 21  1  0  0  0  0
  8 22  2  0  0  0  0
  9 10  1  0  0  0  0
  9 11  1  0  0  0  0
 10 12  1  0  0  0  0
 11 13  1  0  0  0  0
 12 14  1  0  0  0  0
 13 14  1  0  0  0  0
 14 21  1  0  0  0  0
 16 20  1  0  0  0  0
 18 20  1  0  0  0  0
  2 23  1  0  0  0  0
  3 24  1  0  0  0  0
  9 25  1  0  0  0  0
  9 26  1  0  0  0  0
 10 27  1  0  0  0  0
 10 28  1  0  0  0  0
 11 29  1  0  0  0  0
 11 30  1  0  0  0  0
 12 31  1  0  0  0  0
 12 32  1  0  0  0  0
 13 33  1  0  0  0  0
 13 34  1  0  0  0  0
 15 35  1  0  0  0  0
 15 36  1  0  0  0  0
 15 37  1  0  0  0  0
 16 38  1  0  0  0  0
 16 39  1  0  0  0  0
 16 40  1  0  0  0  0
 21 41  1  0  0  0  0
M  END
> <id>
EN300-6542530

> <smiles>
CC=1C=C(C(=O)NC2(CCCCC2)C#N)C=3C=NN(C)C3N1

> <IUPAC Name>
N-(1-cyanocyclohexyl)-1,6-dimethyl-1H-pyrazolo[3,4-b]pyridine-4-carboxamide

> <CAS>
2127719-65-5

> <URL>
https://www.enaminestore.com/catalog/EN300-6542530

> <ROCS_ShapeQuery>
x0446_0A_x1080_0A_x0929_0A_x0812_0A_x0719_0A_x1140_0A_x0528_0A_x0310_0A

> <ROCS_TanimotoCombo>
0.414 

> <ROCS_ShapeTanimoto>
0.248 

> <ROCS_ColorTanimoto>
0.166 

> <ROCS_RefTversky>
0.225 

> <ROCS_RefColorTversky>
0.180 

> <ROCS_RefTverskyCombo>
0.405 

> <ROCS_FitTversky>
1.689 

> <ROCS_FitColorTversky>
0.680 

> <ROCS_FitTverskyCombo>
2.368 

> <ROCS_ColorScore>
-6.444

> <ROCS_Overlap>
2659.206

> <ROCS_Rank>
335                 

$$$$
untitled-dbase-474136_1
  -OEChem-02082415563D

 32 33  0     1  0  0  0  0  0999 V2000
    9.6720   12.6522   23.4379 C   0  0  0  0  0  0  0  0  0  0  0  0
   10.3640   11.4973   24.1345 C   0  0  0  0  0  0  0  0  0  0  0  0
    8.1284   10.9904   25.1178 C   0  0  0  0  0  0  0  0  0  0  0  0
    7.5008   12.1995   24.3884 C   0  0  0  0  0  0  0  0  0  0  0  0
    9.1935   10.4834   24.1121 C   0  0  1  0  0  0  0  0  0  0  0  0
    8.2572   12.2187   23.0400 C   0  0  2  0  0  0  0  0  0  0  0  0
    8.5125   10.7170   22.7346 C   0  0  0  0  0  0  0  0  0  0  0  0
    7.2417    9.8722   22.5184 C   0  0  0  0  0  0  0  0  0  0  0  0
    9.4267   10.4537   21.5205 C   0  0  0  0  0  0  0  0  0  0  0  0
    7.6201   13.0606   21.9610 C   0  0  0  0  0  0  0  0  0  0  0  0
    6.2557   15.2609   21.3709 N   0  0  0  0  0  0  0  0  0  0  0  0
   10.1667   13.7528   23.2504 O   0  0  0  0  0  0  0  0  0  0  0  0
    6.9179   14.7705   23.8076 O   0  0  0  0  0  0  0  0  0  0  0  0
    8.7028   15.4316   22.1454 O   0  0  0  0  0  0  0  0  0  0  0  0
    7.4616   14.7453   22.4605 S   0  0  0  0  0  0  0  0  0  0  0  0
   11.2207   11.1562   23.5493 H   0  0  0  0  0  0  0  0  0  0  0  0
   10.6678   11.7720   25.1472 H   0  0  0  0  0  0  0  0  0  0  0  0
    8.5658   11.2798   26.0793 H   0  0  0  0  0  0  0  0  0  0  0  0
    7.3725   10.2243   25.3197 H   0  0  0  0  0  0  0  0  0  0  0  0
    6.4225   12.0581   24.2585 H   0  0  0  0  0  0  0  0  0  0  0  0
    7.6500   13.1213   24.9626 H   0  0  0  0  0  0  0  0  0  0  0  0
    9.5142    9.4576   24.3096 H   0  0  0  0  0  0  0  0  0  0  0  0
    6.8305   10.0930   21.5399 H   0  0  0  0  0  0  0  0  0  0  0  0
    6.5166   10.1186   23.2858 H   0  0  0  0  0  0  0  0  0  0  0  0
    7.4994    8.8209   22.5800 H   0  0  0  0  0  0  0  0  0  0  0  0
    8.8692   10.6413   20.6103 H   0  0  0  0  0  0  0  0  0  0  0  0
    9.7576    9.4220   21.5438 H   0  0  0  0  0  0  0  0  0  0  0  0
   10.2826   11.1165   21.5717 H   0  0  0  0  0  0  0  0  0  0  0  0
    6.6142   12.7008   21.7228 H   0  0  0  0  0  0  0  0  0  0  0  0
    8.2226   13.0523   21.0474 H   0  0  0  0  0  0  0  0  0  0  0  0
    6.5160   15.3609   20.3820 H   0  0  0  0  0  0  0  0  0  0  0  0
    5.3005   14.9108   21.5143 H   0  0  0  0  0  0  0  0  0  0  0  0
  1  2  1  0  0  0  0
  1  6  1  0  0  0  0
  1 12  2  0  0  0  0
  2  5  1  0  0  0  0
  3  4  1  0  0  0  0
  3  5  1  6  0  0  0
  4  6  1  0  0  0  0
  5  7  1  0  0  0  0
  6  7  1  0  0  0  0
  6 10  1  1  0  0  0
  7  8  1  0  0  0  0
  7  9  1  0  0  0  0
 10 15  1  0  0  0  0
 11 15  1  0  0  0  0
 13 15  2  0  0  0  0
 14 15  2  0  0  0  0
  2 16  1  0  0  0  0
  2 17  1  0  0  0  0
  3 18  1  0  0  0  0
  3 19  1  0  0  0  0
  4 20  1  0  0  0  0
  4 21  1  0  0  0  0
  5 22  1  0  0  0  0
  8 23  1  0  0  0  0
  8 24  1  0  0  0  0
  8 25  1  0  0  0  0
  9 26  1  0  0  0  0
  9 27  1  0  0  0  0
  9 28  1  0  0  0  0
 10 29  1  0  0  0  0
 10 30  1  0  0  0  0
 11 31  1  0  0  0  0
 11 32  1  0  0  0  0
M  END
> <id>
EN300-19631959

> <smiles>
CC1(C)[C@@H]2CC[C@@]1(CS(=O)(=O)N)C(=O)C2

> <MDLNUMBER>
MFCD00075611

> <IUPAC Name>
[(1S,4R)-7,7-dimethyl-2-oxobicyclo[2.2.1]heptan-1-yl]methanesulfonamide

> <CAS>
60933-63-3

> <URL>
https://www.enaminestore.com/catalog/EN300-19631959

> <ROCS_ShapeQuery>
x0446_0A_x1080_0A_x0929_0A_x0812_0A_x0719_0A_x1140_0A_x0528_0A_x0310_0A

> <ROCS_TanimotoCombo>
0.414 

> <ROCS_ShapeTanimoto>
0.208 

> <ROCS_ColorTanimoto>
0.206 

> <ROCS_RefTversky>
0.190 

> <ROCS_RefColorTversky>
0.231 

> <ROCS_RefTverskyCombo>
0.421 

> <ROCS_FitTversky>
1.822 

> <ROCS_FitColorTversky>
0.656 

> <ROCS_FitTverskyCombo>
2.478 

> <ROCS_ColorScore>
-8.288

> <ROCS_Overlap>
2244.082

> <ROCS_Rank>
336                 

$$$$
untitled-dbase-391802_3
  -OEChem-02082415563D

 39 41  0     1  0  0  0  0  0999 V2000
    5.9052   11.0433   26.2885 C   0  0  0  0  0  0  0  0  0  0  0  0
    9.9295   15.0403   22.5243 C   0  0  0  0  0  0  0  0  0  0  0  0
    9.3497   10.4164   22.3294 C   0  0  0  0  0  0  0  0  0  0  0  0
    8.1776   12.6326   22.3801 C   0  0  0  0  0  0  0  0  0  0  0  0
   10.3172   12.3103   23.6581 C   0  0  0  0  0  0  0  0  0  0  0  0
    7.1757   10.6569   23.5579 C   0  0  0  0  0  0  0  0  0  0  0  0
    9.3150   10.3352   24.8361 C   0  0  0  0  0  0  0  0  0  0  0  0
    8.1410   12.5550   24.8925 C   0  0  0  0  0  0  0  0  0  0  0  0
    7.9774   11.1088   22.3250 C   0  0  2  0  0  0  0  0  0  0  0  0
   10.1217   10.7859   23.6061 C   0  0  1  0  0  0  0  0  0  0  0  0
    8.9487   13.0300   23.6603 C   0  0  0  0  0  0  0  0  0  0  0  0
    7.9337   11.0246   24.8506 C   0  0  0  0  0  0  0  0  0  0  0  0
    5.3176   10.4644   27.5326 C   0  0  0  0  0  0  0  0  0  0  0  0
    9.1479   14.5475   23.7093 C   0  0  0  0  0  0  0  0  0  0  0  0
    7.1803   10.5932   26.0084 N   0  0  0  0  0  0  0  0  0  0  0  0
    5.2518   11.8406   25.6259 O   0  0  0  0  0  0  0  0  0  0  0  0
   11.1437   15.1522   22.4471 O   0  0  0  0  0  0  0  0  0  0  0  0
    9.0770   15.3550   21.5155 O   0  0  0  0  0  0  0  0  0  0  0  0
    9.2206    9.3287   22.2710 H   0  0  0  0  0  0  0  0  0  0  0  0
    9.9238   10.7166   21.4443 H   0  0  0  0  0  0  0  0  0  0  0  0
    8.7254   12.9642   21.4886 H   0  0  0  0  0  0  0  0  0  0  0  0
    7.2013   13.1337   22.3536 H   0  0  0  0  0  0  0  0  0  0  0  0
   10.8887   12.5783   24.5561 H   0  0  0  0  0  0  0  0  0  0  0  0
   10.9151   12.6340   22.7963 H   0  0  0  0  0  0  0  0  0  0  0  0
    6.1865   11.1329   23.5464 H   0  0  0  0  0  0  0  0  0  0  0  0
    7.0093    9.5729   23.5076 H   0  0  0  0  0  0  0  0  0  0  0  0
    9.1968    9.2440   24.8154 H   0  0  0  0  0  0  0  0  0  0  0  0
    9.8728   10.5786   25.7498 H   0  0  0  0  0  0  0  0  0  0  0  0
    8.6697   12.8381   25.8129 H   0  0  0  0  0  0  0  0  0  0  0  0
    7.1679   13.0642   24.9177 H   0  0  0  0  0  0  0  0  0  0  0  0
    7.4321   10.8411   21.4130 H   0  0  0  0  0  0  0  0  0  0  0  0
   11.0982   10.2888   23.6032 H   0  0  0  0  0  0  0  0  0  0  0  0
    5.5426   11.0700   28.4253 H   0  0  0  0  0  0  0  0  0  0  0  0
    4.2182   10.4054   27.4904 H   0  0  0  0  0  0  0  0  0  0  0  0
    5.6529    9.4450   27.7822 H   0  0  0  0  0  0  0  0  0  0  0  0
    8.1690   15.0291   23.7154 H   0  0  0  0  0  0  0  0  0  0  0  0
    9.6888   14.8002   24.6223 H   0  0  0  0  0  0  0  0  0  0  0  0
    7.6091    9.9287   26.6442 H   0  0  0  0  0  0  0  0  0  0  0  0
    9.5534   15.6812   20.7224 H   0  0  0  0  0  0  0  0  0  0  0  0
  1 13  1  0  0  0  0
  1 15  1  0  0  0  0
  1 16  2  0  0  0  0
  2 14  1  0  0  0  0
  2 17  2  0  0  0  0
  2 18  1  0  0  0  0
  3  9  1  6  0  0  0
  3 10  1  0  0  0  0
  4  9  1  0  0  0  0
  4 11  1  0  0  0  0
  5 10  1  0  0  0  0
  5 11  1  0  0  0  0
  6  9  1  0  0  0  0
  6 12  1  0  0  0  0
  7 10  1  1  0  0  0
  7 12  1  0  0  0  0
  8 11  1  0  0  0  0
  8 12  1  0  0  0  0
 11 14  1  6  0  0  0
 12 15  1  1  0  0  0
  3 19  1  0  0  0  0
  3 20  1  0  0  0  0
  4 21  1  0  0  0  0
  4 22  1  0  0  0  0
  5 23  1  0  0  0  0
  5 24  1  0  0  0  0
  6 25  1  0  0  0  0
  6 26  1  0  0  0  0
  7 27  1  0  0  0  0
  7 28  1  0  0  0  0
  8 29  1  0  0  0  0
  8 30  1  0  0  0  0
  9 31  1  0  0  0  0
 10 32  1  0  0  0  0
 13 33  1  0  0  0  0
 13 34  1  0  0  0  0
 13 35  1  0  0  0  0
 14 36  1  0  0  0  0
 14 37  1  0  0  0  0
 15 38  1  0  0  0  0
 18 39  1  0  0  0  0
M  END
> <id>
EN300-236138

> <smiles>
CC(=O)N[C@@]1(C[C@H]2C[C@@H]3C[C@](CC(=O)O)(C2)C1)C3

> <MDLNUMBER>
MFCD01790037

> <IUPAC Name>
2-[(1r,3s,5R,7S)-3-acetamidoadamantan-1-yl]acetic acid

> <CAS>
75667-93-5

> <URL>
https://www.enaminestore.com/catalog/EN300-236138

> <ROCS_ShapeQuery>
x0446_0A_x1080_0A_x0929_0A_x0812_0A_x0719_0A_x1140_0A_x0528_0A_x0310_0A

> <ROCS_TanimotoCombo>
0.414 

> <ROCS_ShapeTanimoto>
0.221 

> <ROCS_ColorTanimoto>
0.193 

> <ROCS_RefTversky>
0.202 

> <ROCS_RefColorTversky>
0.219 

> <ROCS_RefTverskyCombo>
0.422 

> <ROCS_FitTversky>
1.723 

> <ROCS_FitColorTversky>
0.617 

> <ROCS_FitTverskyCombo>
2.340 

> <ROCS_ColorScore>
-7.874

> <ROCS_Overlap>
2387.023

> <ROCS_Rank>
337                 

$$$$
untitled-dbase-409286_5
  -OEChem-02082415563D

 34 36  0     0  0  0  0  0  0999 V2000
    8.1783   14.7476   22.4843 C   0  0  0  0  0  0  0  0  0  0  0  0
    8.9656   13.6239   22.5021 C   0  0  0  0  0  0  0  0  0  0  0  0
    6.9507   14.9555   23.1868 C   0  0  0  0  0  0  0  0  0  0  0  0
    9.9554   10.3517   24.0590 C   0  0  0  0  0  0  0  0  0  0  0  0
    7.4667   10.5830   24.1207 C   0  0  0  0  0  0  0  0  0  0  0  0
   10.0244   11.3443   22.8894 C   0  0  0  0  0  0  0  0  0  0  0  0
    7.5232   11.5783   22.9526 C   0  0  0  0  0  0  0  0  0  0  0  0
    8.9046   12.3791   24.7216 C   0  0  0  0  0  0  0  0  0  0  0  0
    8.7679   10.8671   24.8841 C   0  0  0  0  0  0  0  0  0  0  0  0
    8.8617   12.3305   23.1815 C   0  0  0  0  0  0  0  0  0  0  0  0
    4.0677   17.0518   22.2346 C   0  0  0  0  0  0  0  0  0  0  0  0
    4.8353   16.0999   23.1269 C   0  0  0  0  0  0  0  0  0  0  0  0
    8.7421   15.6908   21.6707 N   0  0  0  0  0  0  0  0  0  0  0  0
    9.8661   15.1840   21.1760 N   0  0  0  0  0  0  0  0  0  0  0  0
    9.9982   13.9445   21.6756 N   0  0  0  0  0  0  0  0  0  0  0  0
    6.6475   14.4369   24.2857 O   0  0  0  0  0  0  0  0  0  0  0  0
    6.1001   15.8109   22.5217 O   0  0  0  0  0  0  0  0  0  0  0  0
    9.8155    9.3216   23.7163 H   0  0  0  0  0  0  0  0  0  0  0  0
   10.8820   10.3938   24.6425 H   0  0  0  0  0  0  0  0  0  0  0  0
    6.5936   10.7916   24.7495 H   0  0  0  0  0  0  0  0  0  0  0  0
    7.3985    9.5468   23.7747 H   0  0  0  0  0  0  0  0  0  0  0  0
   10.9956   11.8544   22.8856 H   0  0  0  0  0  0  0  0  0  0  0  0
    9.9103   10.8429   21.9217 H   0  0  0  0  0  0  0  0  0  0  0  0
    7.4934   11.0703   21.9825 H   0  0  0  0  0  0  0  0  0  0  0  0
    6.6644   12.2595   22.9963 H   0  0  0  0  0  0  0  0  0  0  0  0
    8.0708   12.9396   25.1605 H   0  0  0  0  0  0  0  0  0  0  0  0
    9.8476   12.7740   25.1166 H   0  0  0  0  0  0  0  0  0  0  0  0
    8.7590   10.5025   25.9131 H   0  0  0  0  0  0  0  0  0  0  0  0
    4.6142   17.9899   22.1032 H   0  0  0  0  0  0  0  0  0  0  0  0
    3.8937   16.6033   21.2510 H   0  0  0  0  0  0  0  0  0  0  0  0
    3.0840   17.2729   22.6621 H   0  0  0  0  0  0  0  0  0  0  0  0
    4.2833   15.1639   23.2542 H   0  0  0  0  0  0  0  0  0  0  0  0
    5.0090   16.5499   24.1089 H   0  0  0  0  0  0  0  0  0  0  0  0
   10.8041   13.3908   21.4109 H   0  0  0  0  0  0  0  0  0  0  0  0
  1  2  2  0  0  0  0
  1  3  1  0  0  0  0
  1 13  1  0  0  0  0
  2 10  1  0  0  0  0
  2 15  1  0  0  0  0
  3 16  2  0  0  0  0
  3 17  1  0  0  0  0
  4  6  1  0  0  0  0
  4  9  1  0  0  0  0
  5  7  1  0  0  0  0
  5  9  1  0  0  0  0
  6 10  1  0  0  0  0
  7 10  1  0  0  0  0
  8  9  1  0  0  0  0
  8 10  1  0  0  0  0
 11 12  1  0  0  0  0
 12 17  1  0  0  0  0
 13 14  2  0  0  0  0
 14 15  1  0  0  0  0
  4 18  1  0  0  0  0
  4 19  1  0  0  0  0
  5 20  1  0  0  0  0
  5 21  1  0  0  0  0
  6 22  1  0  0  0  0
  6 23  1  0  0  0  0
  7 24  1  0  0  0  0
  7 25  1  0  0  0  0
  8 26  1  0  0  0  0
  8 27  1  0  0  0  0
  9 28  1  0  0  0  0
 11 29  1  0  0  0  0
 11 30  1  0  0  0  0
 11 31  1  0  0  0  0
 12 32  1  0  0  0  0
 12 33  1  0  0  0  0
 15 34  1  0  0  0  0
M  END
> <id>
EN300-786417

> <smiles>
CCOC(=O)C=1N=NNC1C2(CCC3CC2)C3

> <IUPAC Name>
ethyl 5-{bicyclo[2.2.1]heptan-1-yl}-1H-1,2,3-triazole-4-carboxylate

> <CAS>
2137774-82-2

> <URL>
https://www.enaminestore.com/catalog/EN300-786417

> <ROCS_ShapeQuery>
x0446_0A_x1080_0A_x0929_0A_x0812_0A_x0719_0A_x1140_0A_x0528_0A_x0310_0A

> <ROCS_TanimotoCombo>
0.414 

> <ROCS_ShapeTanimoto>
0.206 

> <ROCS_ColorTanimoto>
0.208 

> <ROCS_RefTversky>
0.190 

> <ROCS_RefColorTversky>
0.234 

> <ROCS_RefTverskyCombo>
0.425 

> <ROCS_FitTversky>
1.652 

> <ROCS_FitColorTversky>
0.651 

> <ROCS_FitTverskyCombo>
2.302 

> <ROCS_ColorScore>
-8.420

> <ROCS_Overlap>
2245.142

> <ROCS_Rank>
338                 

$$$$
untitled-dbase-511584_7
  -OEChem-02082415563D

 40 42  0     0  0  0  0  0  0999 V2000
   13.5154   15.1130   22.4445 C   0  0  0  0  0  0  0  0  0  0  0  0
   12.9977   14.4346   23.5478 C   0  0  0  0  0  0  0  0  0  0  0  0
   12.7075   15.3574   21.3339 C   0  0  0  0  0  0  0  0  0  0  0  0
   11.6721   14.0003   23.5405 C   0  0  0  0  0  0  0  0  0  0  0  0
   11.3819   14.9232   21.3266 C   0  0  0  0  0  0  0  0  0  0  0  0
    5.8053   12.5279   24.4473 C   0  0  0  0  0  0  0  0  0  0  0  0
    7.8831   12.4597   23.7129 C   0  0  0  0  0  0  0  0  0  0  0  0
   10.8642   14.2446   22.4299 C   0  0  0  0  0  0  0  0  0  0  0  0
    7.5539   11.3163   24.4284 C   0  0  0  0  0  0  0  0  0  0  0  0
    9.1419   12.6142   23.1663 C   0  0  0  0  0  0  0  0  0  0  0  0
    9.6311   10.5387   24.0625 C   0  0  0  0  0  0  0  0  0  0  0  0
    8.5357   14.5290   21.6856 C   0  0  0  0  0  0  0  0  0  0  0  0
    7.0948   15.0762   19.2696 C   0  0  0  0  0  0  0  0  0  0  0  0
    5.4306   13.3859   20.0958 C   0  0  0  0  0  0  0  0  0  0  0  0
    5.8410   15.4844   21.4134 C   0  0  0  0  0  0  0  0  0  0  0  0
    6.4687   14.4290   20.5040 C   0  0  0  0  0  0  0  0  0  0  0  0
    6.2598   11.3710   24.8795 N   0  0  0  0  0  0  0  0  0  0  0  0
    8.4290   10.3021   24.6307 N   0  0  0  0  0  0  0  0  0  0  0  0
   10.0368   11.6179   23.3519 N   0  0  0  0  0  0  0  0  0  0  0  0
    6.7496   13.2215   23.7375 N   0  0  0  0  0  0  0  0  0  0  0  0
    9.4932   13.7955   22.4227 N   0  0  0  0  0  0  0  0  0  0  0  0
    8.5869   15.7408   21.4781 O   0  0  0  0  0  0  0  0  0  0  0  0
    7.4944   13.7531   21.2324 O   0  0  0  0  0  0  0  0  0  0  0  0
   10.8030    9.3061   24.2675 Cl  0  0  0  0  0  0  0  0  0  0  0  0
   14.5472   15.4520   22.4501 H   0  0  0  0  0  0  0  0  0  0  0  0
   13.6261   14.2449   24.4129 H   0  0  0  0  0  0  0  0  0  0  0  0
   13.1106   15.8866   20.4753 H   0  0  0  0  0  0  0  0  0  0  0  0
   11.2796   13.4727   24.4062 H   0  0  0  0  0  0  0  0  0  0  0  0
   10.7617   15.1193   20.4556 H   0  0  0  0  0  0  0  0  0  0  0  0
    4.8120   12.9210   24.6110 H   0  0  0  0  0  0  0  0  0  0  0  0
    7.8405   15.8255   19.5583 H   0  0  0  0  0  0  0  0  0  0  0  0
    7.5788   14.3338   18.6266 H   0  0  0  0  0  0  0  0  0  0  0  0
    6.3380   15.6049   18.6788 H   0  0  0  0  0  0  0  0  0  0  0  0
    4.9788   12.9190   20.9784 H   0  0  0  0  0  0  0  0  0  0  0  0
    5.8958   12.5760   19.5222 H   0  0  0  0  0  0  0  0  0  0  0  0
    4.6324   13.8261   19.4895 H   0  0  0  0  0  0  0  0  0  0  0  0
    5.3918   15.0204   22.2989 H   0  0  0  0  0  0  0  0  0  0  0  0
    6.5797   16.2208   21.7462 H   0  0  0  0  0  0  0  0  0  0  0  0
    5.0314   16.0123   20.8966 H   0  0  0  0  0  0  0  0  0  0  0  0
    6.6269   14.1305   23.3113 H   0  0  0  0  0  0  0  0  0  0  0  0
  1  2  1  0  0  0  0
  1  3  2  0  0  0  0
  2  4  2  0  0  0  0
  3  5  1  0  0  0  0
  4  8  1  0  0  0  0
  5  8  2  0  0  0  0
  6 17  2  0  0  0  0
  6 20  1  0  0  0  0
  7  9  1  0  0  0  0
  7 10  2  0  0  0  0
  7 20  1  0  0  0  0
  8 21  1  0  0  0  0
  9 17  1  0  0  0  0
  9 18  2  0  0  0  0
 10 19  1  0  0  0  0
 10 21  1  0  0  0  0
 11 18  1  0  0  0  0
 11 19  2  0  0  0  0
 11 24  1  0  0  0  0
 12 21  1  0  0  0  0
 12 22  2  0  0  0  0
 12 23  1  0  0  0  0
 13 16  1  0  0  0  0
 14 16  1  0  0  0  0
 15 16  1  0  0  0  0
 16 23  1  0  0  0  0
  1 25  1  0  0  0  0
  2 26  1  0  0  0  0
  3 27  1  0  0  0  0
  4 28  1  0  0  0  0
  5 29  1  0  0  0  0
  6 30  1  0  0  0  0
 13 31  1  0  0  0  0
 13 32  1  0  0  0  0
 13 33  1  0  0  0  0
 14 34  1  0  0  0  0
 14 35  1  0  0  0  0
 14 36  1  0  0  0  0
 15 37  1  0  0  0  0
 15 38  1  0  0  0  0
 15 39  1  0  0  0  0
 20 40  1  0  0  0  0
M  END
> <id>
EN300-28297877

> <smiles>
CC(C)(C)OC(=O)N(C=1C=CC=CC1)C=2N=C(Cl)N=C3N=CNC23

> <IUPAC Name>
tert-butyl N-(2-chloro-7H-purin-6-yl)-N-phenylcarbamate

> <CAS>
2680779-12-6

> <URL>
https://www.enaminestore.com/catalog/EN300-28297877

> <ROCS_ShapeQuery>
x0446_0A_x1080_0A_x0929_0A_x0812_0A_x0719_0A_x1140_0A_x0528_0A_x0310_0A

> <ROCS_TanimotoCombo>
0.414 

> <ROCS_ShapeTanimoto>
0.260 

> <ROCS_ColorTanimoto>
0.154 

> <ROCS_RefTversky>
0.236 

> <ROCS_RefColorTversky>
0.176 

> <ROCS_RefTverskyCombo>
0.411 

> <ROCS_FitTversky>
1.657 

> <ROCS_FitColorTversky>
0.553 

> <ROCS_FitTverskyCombo>
2.210 

> <ROCS_ColorScore>
-6.305

> <ROCS_Overlap>
2783.418

> <ROCS_Rank>
339                 

$$$$
untitled-dbase-340975_5
  -OEChem-02082415563D

 41 45  0     0  0  0  0  0  0999 V2000
   11.7457   19.6321   25.0459 C   0  0  0  0  0  0  0  0  0  0  0  0
    5.6109   13.3433   25.2458 C   0  0  0  0  0  0  0  0  0  0  0  0
   10.5123   19.0801   25.3919 C   0  0  0  0  0  0  0  0  0  0  0  0
   12.4268   19.1676   23.9207 C   0  0  0  0  0  0  0  0  0  0  0  0
    5.1857   12.0402   24.9835 C   0  0  0  0  0  0  0  0  0  0  0  0
    6.9538   13.7009   25.0830 C   0  0  0  0  0  0  0  0  0  0  0  0
    9.9601   18.0634   24.6128 C   0  0  0  0  0  0  0  0  0  0  0  0
   11.8745   18.1509   23.1416 C   0  0  0  0  0  0  0  0  0  0  0  0
    6.0999   11.0781   24.5613 C   0  0  0  0  0  0  0  0  0  0  0  0
    7.8822   12.7511   24.6483 C   0  0  0  0  0  0  0  0  0  0  0  0
   10.3685    9.6861   23.4686 C   0  0  0  0  0  0  0  0  0  0  0  0
   10.6412   17.5988   23.4876 C   0  0  0  0  0  0  0  0  0  0  0  0
    7.4379   11.4430   24.4026 C   0  0  0  0  0  0  0  0  0  0  0  0
    9.3471    8.7223   23.4104 C   0  0  0  0  0  0  0  0  0  0  0  0
    9.7390   10.8497   23.8553 C   0  0  0  0  0  0  0  0  0  0  0  0
    9.7547   15.3167   23.0637 C   0  0  0  0  0  0  0  0  0  0  0  0
    9.3374   13.0125   24.4368 C   0  0  0  0  0  0  0  0  0  0  0  0
   11.7680    9.5440   23.1956 C   0  0  0  0  0  0  0  0  0  0  0  0
    9.4660    7.2992   23.0471 C   0  0  0  0  0  0  0  0  0  0  0  0
    8.1517    9.2192   23.7334 N   0  0  0  0  0  0  0  0  0  0  0  0
    9.2675   14.7055   22.0086 N   0  0  0  0  0  0  0  0  0  0  0  0
    9.3105   15.6310   20.9905 N   0  0  0  0  0  0  0  0  0  0  0  0
    9.8128   16.7841   21.4150 N   0  0  0  0  0  0  0  0  0  0  0  0
   10.1989   12.1077   24.0741 N   0  0  0  0  0  0  0  0  0  0  0  0
    8.4103   10.5161   24.0020 N   0  0  0  0  0  0  0  0  0  0  0  0
   10.0898   16.5851   22.7111 N   0  0  0  0  0  0  0  0  0  0  0  0
   12.5908   10.4758   23.2796 O   0  0  0  0  0  0  0  0  0  0  0  0
    9.9566   14.6354   24.6963 S   0  0  0  0  0  0  0  0  0  0  0  0
   12.1753   20.4249   25.6511 H   0  0  0  0  0  0  0  0  0  0  0  0
    4.8925   14.0876   25.5787 H   0  0  0  0  0  0  0  0  0  0  0  0
    9.9812   19.4426   26.2671 H   0  0  0  0  0  0  0  0  0  0  0  0
   13.3865   19.5990   23.6512 H   0  0  0  0  0  0  0  0  0  0  0  0
    4.1399   11.7766   25.1136 H   0  0  0  0  0  0  0  0  0  0  0  0
    7.2341   14.7265   25.2997 H   0  0  0  0  0  0  0  0  0  0  0  0
    8.9976   17.6423   24.8931 H   0  0  0  0  0  0  0  0  0  0  0  0
   12.4157   17.7987   22.2667 H   0  0  0  0  0  0  0  0  0  0  0  0
    5.7514   10.0677   24.3701 H   0  0  0  0  0  0  0  0  0  0  0  0
   12.1510    8.5358   22.8871 H   0  0  0  0  0  0  0  0  0  0  0  0
    9.6663    6.6754   23.9347 H   0  0  0  0  0  0  0  0  0  0  0  0
    8.5482    6.9134   22.5692 H   0  0  0  0  0  0  0  0  0  0  0  0
   10.2815    7.1210   22.3238 H   0  0  0  0  0  0  0  0  0  0  0  0
  1  3  1  0  0  0  0
  1  4  2  0  0  0  0
  2  5  1  0  0  0  0
  2  6  2  0  0  0  0
  3  7  2  0  0  0  0
  4  8  1  0  0  0  0
  5  9  2  0  0  0  0
  6 10  1  0  0  0  0
  7 12  1  0  0  0  0
  8 12  2  0  0  0  0
  9 13  1  0  0  0  0
 10 13  2  0  0  0  0
 10 17  1  0  0  0  0
 11 14  1  0  0  0  0
 11 15  2  0  0  0  0
 11 18  1  0  0  0  0
 12 26  1  0  0  0  0
 13 25  1  0  0  0  0
 14 19  1  0  0  0  0
 14 20  2  0  0  0  0
 15 24  1  0  0  0  0
 15 25  1  0  0  0  0
 16 21  2  0  0  0  0
 16 26  1  0  0  0  0
 16 28  1  0  0  0  0
 17 24  2  0  0  0  0
 17 28  1  0  0  0  0
 18 27  2  0  0  0  0
 20 25  1  0  0  0  0
 21 22  1  0  0  0  0
 22 23  2  0  0  0  0
 23 26  1  0  0  0  0
  1 29  1  0  0  0  0
  2 30  1  0  0  0  0
  3 31  1  0  0  0  0
  4 32  1  0  0  0  0
  5 33  1  0  0  0  0
  6 34  1  0  0  0  0
  7 35  1  0  0  0  0
  8 36  1  0  0  0  0
  9 37  1  0  0  0  0
 18 38  1  0  0  0  0
 19 39  1  0  0  0  0
 19 40  1  0  0  0  0
 19 41  1  0  0  0  0
M  END
> <id>
EN300-26617047

> <smiles>
CC1=NN2C(N=C(SC3=NN=NN3C=4C=CC=CC4)C=5C=CC=CC52)=C1C=O

> <IUPAC Name>
2-methyl-5-[(1-phenyl-1H-1,2,3,4-tetrazol-5-yl)sulfanyl]pyrazolo[1,5-a]quinazoline-3-carbaldehyde

> <CAS>
380388-39-6

> <URL>
https://www.enaminestore.com/catalog/EN300-26617047

> <ROCS_ShapeQuery>
x0446_0A_x1080_0A_x0929_0A_x0812_0A_x0719_0A_x1140_0A_x0528_0A_x0310_0A

> <ROCS_TanimotoCombo>
0.414 

> <ROCS_ShapeTanimoto>
0.225 

> <ROCS_ColorTanimoto>
0.188 

> <ROCS_RefTversky>
0.213 

> <ROCS_RefColorTversky>
0.216 

> <ROCS_RefTverskyCombo>
0.429 

> <ROCS_FitTversky>
1.342 

> <ROCS_FitColorTversky>
0.598 

> <ROCS_FitTverskyCombo>
1.940 

> <ROCS_ColorScore>
-7.750

> <ROCS_Overlap>
2521.357

> <ROCS_Rank>
340                 

$$$$
untitled-dbase-274871_3
  -OEChem-02082415563D

 25 26  0     0  0  0  0  0  0999 V2000
    5.6540   12.9490   24.9339 C   0  0  0  0  0  0  0  0  0  0  0  0
    5.3706   11.6737   25.4067 C   0  0  0  0  0  0  0  0  0  0  0  0
    6.8520   13.1833   24.2651 C   0  0  0  0  0  0  0  0  0  0  0  0
    6.2853   10.6362   25.2099 C   0  0  0  0  0  0  0  0  0  0  0  0
    9.8724   11.2962   23.2181 C   0  0  0  0  0  0  0  0  0  0  0  0
    7.7718   12.1396   24.0673 C   0  0  0  0  0  0  0  0  0  0  0  0
    8.9852   12.3476   23.3976 C   0  0  0  0  0  0  0  0  0  0  0  0
    7.4907   10.8422   24.5445 C   0  0  0  0  0  0  0  0  0  0  0  0
    9.5101   10.0627   23.7201 C   0  0  0  0  0  0  0  0  0  0  0  0
    9.3757   13.6483   22.8620 C   0  0  0  0  0  0  0  0  0  0  0  0
    8.5383   14.3448   21.8220 C   0  0  0  0  0  0  0  0  0  0  0  0
   10.4339    8.9029   23.5518 C   0  0  0  0  0  0  0  0  0  0  0  0
    8.3499    9.8199   24.3719 N   0  0  0  0  0  0  0  0  0  0  0  0
   10.3799   14.2679   23.2205 O   0  0  0  0  0  0  0  0  0  0  0  0
    7.5153   13.8636   21.3806 O   0  0  0  0  0  0  0  0  0  0  0  0
    9.1034   15.5210   21.5184 O   0  0  0  0  0  0  0  0  0  0  0  0
    4.9464   13.7583   25.0862 H   0  0  0  0  0  0  0  0  0  0  0  0
    4.4374   11.4823   25.9284 H   0  0  0  0  0  0  0  0  0  0  0  0
    7.0486   14.1910   23.9070 H   0  0  0  0  0  0  0  0  0  0  0  0
    6.0400    9.6463   25.5909 H   0  0  0  0  0  0  0  0  0  0  0  0
   10.8171   11.4354   22.7019 H   0  0  0  0  0  0  0  0  0  0  0  0
   11.1225    8.8376   24.4027 H   0  0  0  0  0  0  0  0  0  0  0  0
    9.8783    7.9593   23.4796 H   0  0  0  0  0  0  0  0  0  0  0  0
   11.0246    8.9956   22.6314 H   0  0  0  0  0  0  0  0  0  0  0  0
    8.5872   16.0196   20.8497 H   0  0  0  0  0  0  0  0  0  0  0  0
  1  2  1  0  0  0  0
  1  3  2  0  0  0  0
  2  4  2  0  0  0  0
  3  6  1  0  0  0  0
  4  8  1  0  0  0  0
  5  7  2  0  0  0  0
  5  9  1  0  0  0  0
  6  7  1  0  0  0  0
  6  8  2  0  0  0  0
  7 10  1  0  0  0  0
  8 13  1  0  0  0  0
  9 12  1  0  0  0  0
  9 13  2  0  0  0  0
 10 11  1  0  0  0  0
 10 14  2  0  0  0  0
 11 15  2  0  0  0  0
 11 16  1  0  0  0  0
  1 17  1  0  0  0  0
  2 18  1  0  0  0  0
  3 19  1  0  0  0  0
  4 20  1  0  0  0  0
  5 21  1  0  0  0  0
 12 22  1  0  0  0  0
 12 23  1  0  0  0  0
 12 24  1  0  0  0  0
 16 25  1  0  0  0  0
M  END
> <id>
EN300-1800518

> <smiles>
CC=1C=C(C(=O)C(=O)O)C=2C=CC=CC2N1

> <IUPAC Name>
2-(2-methylquinolin-4-yl)-2-oxoacetic acid

> <CAS>
2229305-07-9

> <URL>
https://www.enaminestore.com/catalog/EN300-1800518

> <ROCS_ShapeQuery>
x0446_0A_x1080_0A_x0929_0A_x0812_0A_x0719_0A_x1140_0A_x0528_0A_x0310_0A

> <ROCS_TanimotoCombo>
0.414 

> <ROCS_ShapeTanimoto>
0.220 

> <ROCS_ColorTanimoto>
0.194 

> <ROCS_RefTversky>
0.201 

> <ROCS_RefColorTversky>
0.201 

> <ROCS_RefTverskyCombo>
0.402 

> <ROCS_FitTversky>
1.797 

> <ROCS_FitColorTversky>
0.841 

> <ROCS_FitTverskyCombo>
2.638 

> <ROCS_ColorScore>
-7.171

> <ROCS_Overlap>
2367.405

> <ROCS_Rank>
341                 

$$$$
untitled-dbase-387356_0
  -OEChem-02082415563D

 34 35  0     1  0  0  0  0  0999 V2000
    7.4785   13.4260   22.9520 C   0  0  0  0  0  0  0  0  0  0  0  0
   10.5525   13.2250   23.1301 C   0  0  0  0  0  0  0  0  0  0  0  0
    7.6814   10.9358   22.9396 C   0  0  0  0  0  0  0  0  0  0  0  0
   10.0346   10.7600   23.1115 C   0  0  0  0  0  0  0  0  0  0  0  0
    8.1841   11.9631   24.9673 C   0  0  0  0  0  0  0  0  0  0  0  0
    8.7453   10.1315   23.6568 C   0  0  1  0  0  0  0  0  0  0  0  0
    8.2407   12.2545   23.4736 C   0  0  2  0  0  0  0  0  0  0  0  0
   13.0363   14.3244   24.0210 C   0  0  0  0  0  0  0  0  0  0  0  0
   14.0112   13.3460   21.9230 C   0  0  0  0  0  0  0  0  0  0  0  0
   12.2285   15.1087   21.7700 C   0  0  0  0  0  0  0  0  0  0  0  0
   12.7552   13.9210   22.5743 C   0  0  0  0  0  0  0  0  0  0  0  0
    9.6495   12.1741   23.0705 N   0  0  0  0  0  0  0  0  0  0  0  0
    7.3586   13.7158   21.7709 O   0  0  0  0  0  0  0  0  0  0  0  0
   10.3056   14.3288   23.6097 O   0  0  0  0  0  0  0  0  0  0  0  0
    8.5880   10.5632   25.0380 O   0  0  0  0  0  0  0  0  0  0  0  0
    6.9337   14.1347   23.9709 O   0  0  0  0  0  0  0  0  0  0  0  0
   11.7592   12.8922   22.5735 O   0  0  0  0  0  0  0  0  0  0  0  0
    7.7101   10.8463   21.8480 H   0  0  0  0  0  0  0  0  0  0  0  0
    6.6662   10.7312   23.2986 H   0  0  0  0  0  0  0  0  0  0  0  0
   10.8912   10.6198   23.7773 H   0  0  0  0  0  0  0  0  0  0  0  0
   10.2711   10.4350   22.0940 H   0  0  0  0  0  0  0  0  0  0  0  0
    8.8695   12.5714   25.5660 H   0  0  0  0  0  0  0  0  0  0  0  0
    7.1752   12.0519   25.3844 H   0  0  0  0  0  0  0  0  0  0  0  0
    8.6848    9.0456   23.5693 H   0  0  0  0  0  0  0  0  0  0  0  0
   12.1372   14.7377   24.4920 H   0  0  0  0  0  0  0  0  0  0  0  0
   13.3814   13.4735   24.6173 H   0  0  0  0  0  0  0  0  0  0  0  0
   13.7984   15.1108   24.0667 H   0  0  0  0  0  0  0  0  0  0  0  0
   13.8141   13.0552   20.8849 H   0  0  0  0  0  0  0  0  0  0  0  0
   14.3385   12.4374   22.4413 H   0  0  0  0  0  0  0  0  0  0  0  0
   14.8360   14.0658   21.9308 H   0  0  0  0  0  0  0  0  0  0  0  0
   12.0268   14.8195   20.7322 H   0  0  0  0  0  0  0  0  0  0  0  0
   11.3066   15.5113   22.2020 H   0  0  0  0  0  0  0  0  0  0  0  0
   12.9731   15.9118   21.7281 H   0  0  0  0  0  0  0  0  0  0  0  0
    6.4291   14.9116   23.6481 H   0  0  0  0  0  0  0  0  0  0  0  0
  1  7  1  0  0  0  0
  1 13  2  0  0  0  0
  1 16  1  0  0  0  0
  2 12  1  0  0  0  0
  2 14  2  0  0  0  0
  2 17  1  0  0  0  0
  3  6  1  0  0  0  0
  3  7  1  0  0  0  0
  4  6  1  0  0  0  0
  4 12  1  0  0  0  0
  5  7  1  0  0  0  0
  5 15  1  0  0  0  0
  6 15  1  0  0  0  0
  7 12  1  0  0  0  0
  8 11  1  0  0  0  0
  9 11  1  0  0  0  0
 10 11  1  0  0  0  0
 11 17  1  0  0  0  0
  3 18  1  0  0  0  0
  3 19  1  0  0  0  0
  4 20  1  0  0  0  0
  4 21  1  0  0  0  0
  5 22  1  0  0  0  0
  5 23  1  0  0  0  0
  6 24  1  0  0  0  0
  8 25  1  0  0  0  0
  8 26  1  0  0  0  0
  8 27  1  0  0  0  0
  9 28  1  0  0  0  0
  9 29  1  0  0  0  0
  9 30  1  0  0  0  0
 10 31  1  0  0  0  0
 10 32  1  0  0  0  0
 10 33  1  0  0  0  0
 16 34  1  0  0  0  0
M  END
> <id>
EN300-746883

> <smiles>
CC(C)(C)OC(=O)N1CC2CC1(CO2)C(=O)O

> <MDLNUMBER>
MFCD31456971

> <IUPAC Name>
5-[(tert-butoxy)carbonyl]-2-oxa-5-azabicyclo[2.2.1]heptane-4-carboxylic acid

> <CAS>
1934363-79-7

> <Purity>
95

> <URL>
https://www.enaminestore.com/catalog/EN300-746883

> <ROCS_ShapeQuery>
x0446_0A_x1080_0A_x0929_0A_x0812_0A_x0719_0A_x1140_0A_x0528_0A_x0310_0A

> <ROCS_TanimotoCombo>
0.414 

> <ROCS_ShapeTanimoto>
0.234 

> <ROCS_ColorTanimoto>
0.180 

> <ROCS_RefTversky>
0.211 

> <ROCS_RefColorTversky>
0.211 

> <ROCS_RefTverskyCombo>
0.422 

> <ROCS_FitTversky>
1.838 

> <ROCS_FitColorTversky>
0.554 

> <ROCS_FitTverskyCombo>
2.391 

> <ROCS_ColorScore>
-7.574

> <ROCS_Overlap>
2492.738

> <ROCS_Rank>
342                 

$$$$
untitled-dbase-93683_6
  -OEChem-02082415563D

 37 39  0     1  0  0  0  0  0999 V2000
   11.8558   15.9547   21.2303 C   0  0  0  0  0  0  0  0  0  0  0  0
   12.9317   15.0797   21.3798 C   0  0  0  0  0  0  0  0  0  0  0  0
   10.6646   15.7191   21.9168 C   0  0  0  0  0  0  0  0  0  0  0  0
   12.8165   13.9691   22.2157 C   0  0  0  0  0  0  0  0  0  0  0  0
   10.5494   14.6084   22.7527 C   0  0  0  0  0  0  0  0  0  0  0  0
   11.6253   13.7334   22.9022 C   0  0  0  0  0  0  0  0  0  0  0  0
    9.4636   11.5696   22.7469 C   0  0  0  0  0  0  0  0  0  0  0  0
    9.4119   12.0264   25.0589 C   0  0  0  0  0  0  0  0  0  0  0  0
    6.8780   12.1406   23.0196 C   0  0  0  0  0  0  0  0  0  0  0  0
    8.0302   11.1464   23.2128 C   0  0  2  0  0  0  0  0  0  0  0  0
    8.0047   11.4190   24.7376 C   0  0  2  0  0  0  0  0  0  0  0  0
    6.7824   12.3589   24.5525 C   0  0  0  0  0  0  0  0  0  0  0  0
    5.5314   12.0691   26.5207 C   0  0  0  0  0  0  0  0  0  0  0  0
    6.0608   14.5873   24.3625 C   0  0  0  0  0  0  0  0  0  0  0  0
   11.5005   12.5380   23.8020 C   0  0  0  0  0  0  0  0  0  0  0  0
   10.1360   12.0484   23.8685 N   0  0  0  0  0  0  0  0  0  0  0  0
    9.9187   11.4975   21.6088 O   0  0  0  0  0  0  0  0  0  0  0  0
    9.8085   12.4102   26.1559 O   0  0  0  0  0  0  0  0  0  0  0  0
    5.5609   11.8417   25.1270 O   0  0  0  0  0  0  0  0  0  0  0  0
    7.0113   13.7271   24.9560 O   0  0  0  0  0  0  0  0  0  0  0  0
   11.9461   16.8202   20.5804 H   0  0  0  0  0  0  0  0  0  0  0  0
   13.8597   15.2636   20.8462 H   0  0  0  0  0  0  0  0  0  0  0  0
    9.8271   16.4007   21.8015 H   0  0  0  0  0  0  0  0  0  0  0  0
   13.6600   13.2926   22.3260 H   0  0  0  0  0  0  0  0  0  0  0  0
    9.6174   14.4327   23.2835 H   0  0  0  0  0  0  0  0  0  0  0  0
    7.1408   13.0390   22.4503 H   0  0  0  0  0  0  0  0  0  0  0  0
    5.9838   11.7016   22.5641 H   0  0  0  0  0  0  0  0  0  0  0  0
    7.7781   10.1146   22.9454 H   0  0  0  0  0  0  0  0  0  0  0  0
    7.7940   10.5267   25.3387 H   0  0  0  0  0  0  0  0  0  0  0  0
    4.6019   11.6718   26.9358 H   0  0  0  0  0  0  0  0  0  0  0  0
    5.6014   13.1420   26.7172 H   0  0  0  0  0  0  0  0  0  0  0  0
    6.3808   11.5600   26.9820 H   0  0  0  0  0  0  0  0  0  0  0  0
    6.2507   15.6156   24.6797 H   0  0  0  0  0  0  0  0  0  0  0  0
    5.0549   14.2823   24.6619 H   0  0  0  0  0  0  0  0  0  0  0  0
    6.1511   14.5211   23.2757 H   0  0  0  0  0  0  0  0  0  0  0  0
   12.1356   11.7192   23.4465 H   0  0  0  0  0  0  0  0  0  0  0  0
   11.8200   12.7784   24.8214 H   0  0  0  0  0  0  0  0  0  0  0  0
  1  2  1  0  0  0  0
  1  3  2  0  0  0  0
  2  4  2  0  0  0  0
  3  5  1  0  0  0  0
  4  6  1  0  0  0  0
  5  6  2  0  0  0  0
  6 15  1  0  0  0  0
  7 10  1  0  0  0  0
  7 16  1  0  0  0  0
  7 17  2  0  0  0  0
  8 11  1  6  0  0  0
  8 16  1  0  0  0  0
  8 18  2  0  0  0  0
  9 10  1  6  0  0  0
  9 12  1  0  0  0  0
 10 11  1  0  0  0  0
 11 12  1  0  0  0  0
 12 19  1  0  0  0  0
 12 20  1  0  0  0  0
 13 19  1  0  0  0  0
 14 20  1  0  0  0  0
 15 16  1  0  0  0  0
  1 21  1  0  0  0  0
  2 22  1  0  0  0  0
  3 23  1  0  0  0  0
  4 24  1  0  0  0  0
  5 25  1  0  0  0  0
  9 26  1  0  0  0  0
  9 27  1  0  0  0  0
 10 28  1  0  0  0  0
 11 29  1  0  0  0  0
 13 30  1  0  0  0  0
 13 31  1  0  0  0  0
 13 32  1  0  0  0  0
 14 33  1  0  0  0  0
 14 34  1  0  0  0  0
 14 35  1  0  0  0  0
 15 36  1  0  0  0  0
 15 37  1  0  0  0  0
M  END
> <id>
EN300-396055

> <smiles>
COC1(C[C@@H]2[C@H]1C(=O)N(CC=3C=CC=CC3)C2=O)OC |&1:4,5,r|

> <MDLNUMBER>
MFCD31542436

> <IUPAC Name>
rac-(1R,5R)-3-benzyl-6,6-dimethoxy-3-azabicyclo[3.2.0]heptane-2,4-dione

> <CAS>
2137900-51-5

> <Purity>
95

> <URL>
https://www.enaminestore.com/catalog/EN300-396055

> <ROCS_ShapeQuery>
x0446_0A_x1080_0A_x0929_0A_x0812_0A_x0719_0A_x1140_0A_x0528_0A_x0310_0A

> <ROCS_TanimotoCombo>
0.414 

> <ROCS_ShapeTanimoto>
0.228 

> <ROCS_ColorTanimoto>
0.186 

> <ROCS_RefTversky>
0.209 

> <ROCS_RefColorTversky>
0.208 

> <ROCS_RefTverskyCombo>
0.416 

> <ROCS_FitTversky>
1.667 

> <ROCS_FitColorTversky>
0.641 

> <ROCS_FitTverskyCombo>
2.308 

> <ROCS_ColorScore>
-7.448

> <ROCS_Overlap>
2463.603

> <ROCS_Rank>
343                 

$$$$
untitled-dbase-522887_0
  -OEChem-02082415563D

 30 33  0     0  0  0  0  0  0999 V2000
   11.3499   16.7446   21.5728 C   0  0  0  0  0  0  0  0  0  0  0  0
   12.5760   17.4003   21.7161 C   0  0  0  0  0  0  0  0  0  0  0  0
   13.4044   15.6636   23.2214 C   0  0  0  0  0  0  0  0  0  0  0  0
   11.1858   15.5608   22.2621 C   0  0  0  0  0  0  0  0  0  0  0  0
   12.1866   15.0342   23.0655 C   0  0  0  0  0  0  0  0  0  0  0  0
   13.5933   16.8649   22.5323 C   0  0  0  0  0  0  0  0  0  0  0  0
   10.0388   14.6553   22.3151 C   0  0  0  0  0  0  0  0  0  0  0  0
   11.6936   13.7842   23.6437 C   0  0  0  0  0  0  0  0  0  0  0  0
    8.0002   10.2936   23.9778 C   0  0  0  0  0  0  0  0  0  0  0  0
    9.7059   11.2916   22.5058 C   0  0  0  0  0  0  0  0  0  0  0  0
    9.5964   12.1283   25.0087 C   0  0  0  0  0  0  0  0  0  0  0  0
    8.0772   12.9273   23.7894 C   0  0  0  0  0  0  0  0  0  0  0  0
    8.1134   11.6775   24.7433 C   0  0  0  0  0  0  0  0  0  0  0  0
    9.5434   12.4919   23.4951 C   0  0  0  0  0  0  0  0  0  0  0  0
    8.8589   10.2376   22.8709 N   0  0  0  0  0  0  0  0  0  0  0  0
   10.4135   13.6282   23.1560 N   0  0  0  0  0  0  0  0  0  0  0  0
    8.9958   14.8350   21.7145 O   0  0  0  0  0  0  0  0  0  0  0  0
   12.3410   13.0778   24.3938 O   0  0  0  0  0  0  0  0  0  0  0  0
    7.2596    9.3599   24.2894 O   0  0  0  0  0  0  0  0  0  0  0  0
   10.4568   11.2331   21.5323 O   0  0  0  0  0  0  0  0  0  0  0  0
   15.2368   17.7885   22.6985 Br  0  0  0  0  0  0  0  0  0  0  0  0
   10.5683   17.1562   20.9454 H   0  0  0  0  0  0  0  0  0  0  0  0
   12.7337   18.3359   21.1841 H   0  0  0  0  0  0  0  0  0  0  0  0
   14.1777   15.2392   23.8525 H   0  0  0  0  0  0  0  0  0  0  0  0
    9.7089   12.9663   25.7069 H   0  0  0  0  0  0  0  0  0  0  0  0
   10.2914   11.3327   25.2922 H   0  0  0  0  0  0  0  0  0  0  0  0
    7.3759   12.8659   22.9523 H   0  0  0  0  0  0  0  0  0  0  0  0
    7.9477   13.8923   24.2939 H   0  0  0  0  0  0  0  0  0  0  0  0
    7.4513   11.7436   25.6114 H   0  0  0  0  0  0  0  0  0  0  0  0
    8.8671    9.3929   22.3073 H   0  0  0  0  0  0  0  0  0  0  0  0
  1  2  2  0  0  0  0
  1  4  1  0  0  0  0
  2  6  1  0  0  0  0
  3  5  1  0  0  0  0
  3  6  2  0  0  0  0
  4  5  2  0  0  0  0
  4  7  1  0  0  0  0
  5  8  1  0  0  0  0
  6 21  1  0  0  0  0
  7 16  1  0  0  0  0
  7 17  2  0  0  0  0
  8 16  1  0  0  0  0
  8 18  2  0  0  0  0
  9 13  1  0  0  0  0
  9 15  1  0  0  0  0
  9 19  2  0  0  0  0
 10 14  1  0  0  0  0
 10 15  1  0  0  0  0
 10 20  2  0  0  0  0
 11 13  1  6  0  0  0
 11 14  1  0  0  0  0
 12 13  1  0  0  0  0
 12 14  1  0  0  0  0
 14 16  1  1  0  0  0
  1 22  1  0  0  0  0
  2 23  1  0  0  0  0
  3 24  1  0  0  0  0
 11 25  1  0  0  0  0
 11 26  1  0  0  0  0
 12 27  1  0  0  0  0
 12 28  1  0  0  0  0
 13 29  1  0  0  0  0
 15 30  1  0  0  0  0
M  END
> <id>
EN300-37468213

> <smiles>
BrC=1C=CC=2C(=O)N(C(=O)C2C1)[C@]3(C[C@H]4C3)C(=O)NC4=O

> <IUPAC Name>
5-bromo-2-[(1r)-2,4-dioxo-3-azabicyclo[3.1.1]heptan-1-yl]-2,3-dihydro-1H-isoindole-1,3-dione

> <URL>
https://www.enaminestore.com/catalog/EN300-37468213

> <ROCS_ShapeQuery>
x0446_0A_x1080_0A_x0929_0A_x0812_0A_x0719_0A_x1140_0A_x0528_0A_x0310_0A

> <ROCS_TanimotoCombo>
0.414 

> <ROCS_ShapeTanimoto>
0.233 

> <ROCS_ColorTanimoto>
0.181 

> <ROCS_RefTversky>
0.214 

> <ROCS_RefColorTversky>
0.218 

> <ROCS_RefTverskyCombo>
0.431 

> <ROCS_FitTversky>
1.626 

> <ROCS_FitColorTversky>
0.516 

> <ROCS_FitTverskyCombo>
2.142 

> <ROCS_ColorScore>
-7.839

> <ROCS_Overlap>
2526.224

> <ROCS_Rank>
344                 

$$$$
untitled-dbase-351820_8
  -OEChem-02082415563D

 40 42  0     0  0  0  0  0  0999 V2000
   10.5091   15.5683   21.1348 C   0  0  0  0  0  0  0  0  0  0  0  0
   10.1167   10.7943   23.3384 C   0  0  0  0  0  0  0  0  0  0  0  0
    8.1842   12.0898   23.8651 C   0  0  0  0  0  0  0  0  0  0  0  0
    9.4969   12.0425   23.3817 C   0  0  0  0  0  0  0  0  0  0  0  0
    9.4098    9.6782   23.7710 C   0  0  0  0  0  0  0  0  0  0  0  0
    7.1882   13.0562   24.0914 C   0  0  0  0  0  0  0  0  0  0  0  0
    7.5916   10.9020   24.2656 C   0  0  0  0  0  0  0  0  0  0  0  0
   10.2134   13.2632   22.9306 C   0  0  0  0  0  0  0  0  0  0  0  0
   13.9042   15.2152   19.7026 C   0  0  0  0  0  0  0  0  0  0  0  0
   12.6164   15.0597   18.9016 C   0  0  0  0  0  0  0  0  0  0  0  0
   13.6211   15.5786   21.1558 C   0  0  0  0  0  0  0  0  0  0  0  0
   11.6650   14.0533   19.5515 C   0  0  0  0  0  0  0  0  0  0  0  0
   12.6740   14.5742   21.8150 C   0  0  0  0  0  0  0  0  0  0  0  0
   11.3634   14.3673   21.0303 C   0  0  0  0  0  0  0  0  0  0  0  0
   10.0870    8.3462   23.7188 C   0  0  0  0  0  0  0  0  0  0  0  0
    7.2527   14.5073   23.8495 C   0  0  0  0  0  0  0  0  0  0  0  0
    9.8382   16.5113   21.2168 N   0  0  0  0  0  0  0  0  0  0  0  0
    8.1414    9.6738   24.2456 N   0  0  0  0  0  0  0  0  0  0  0  0
    6.0689   12.5233   24.5895 N   0  0  0  0  0  0  0  0  0  0  0  0
   10.6293   13.2586   21.6126 N   0  0  0  0  0  0  0  0  0  0  0  0
   10.4105   14.1736   23.7311 O   0  0  0  0  0  0  0  0  0  0  0  0
    6.3261   11.1628   24.6988 O   0  0  0  0  0  0  0  0  0  0  0  0
   11.1349   10.6969   22.9719 H   0  0  0  0  0  0  0  0  0  0  0  0
   14.4791   14.2834   19.6610 H   0  0  0  0  0  0  0  0  0  0  0  0
   14.5260   15.9949   19.2457 H   0  0  0  0  0  0  0  0  0  0  0  0
   12.1171   16.0323   18.8193 H   0  0  0  0  0  0  0  0  0  0  0  0
   12.8544   14.7406   17.8795 H   0  0  0  0  0  0  0  0  0  0  0  0
   14.5636   15.6174   21.7140 H   0  0  0  0  0  0  0  0  0  0  0  0
   13.1826   16.5812   21.2044 H   0  0  0  0  0  0  0  0  0  0  0  0
   10.7243   14.0469   18.9792 H   0  0  0  0  0  0  0  0  0  0  0  0
   12.0779   13.0391   19.4468 H   0  0  0  0  0  0  0  0  0  0  0  0
   13.1963   13.6187   21.9594 H   0  0  0  0  0  0  0  0  0  0  0  0
   12.4397   14.9380   22.8260 H   0  0  0  0  0  0  0  0  0  0  0  0
   10.6146    8.1532   24.6593 H   0  0  0  0  0  0  0  0  0  0  0  0
    9.3618    7.5411   23.5515 H   0  0  0  0  0  0  0  0  0  0  0  0
   10.8097    8.3029   22.8954 H   0  0  0  0  0  0  0  0  0  0  0  0
    6.9145   14.7591   22.8296 H   0  0  0  0  0  0  0  0  0  0  0  0
    6.6247   15.0768   24.5578 H   0  0  0  0  0  0  0  0  0  0  0  0
    8.2768   14.9049   23.9676 H   0  0  0  0  0  0  0  0  0  0  0  0
   10.4887   12.4479   21.0244 H   0  0  0  0  0  0  0  0  0  0  0  0
  1 14  1  0  0  0  0
  1 17  3  0  0  0  0
  2  4  2  0  0  0  0
  2  5  1  0  0  0  0
  3  4  1  0  0  0  0
  3  6  1  0  0  0  0
  3  7  2  0  0  0  0
  4  8  1  0  0  0  0
  5 15  1  0  0  0  0
  5 18  2  0  0  0  0
  6 16  1  0  0  0  0
  6 19  2  0  0  0  0
  7 18  1  0  0  0  0
  7 22  1  0  0  0  0
  8 20  1  0  0  0  0
  8 21  2  0  0  0  0
  9 10  1  0  0  0  0
  9 11  1  0  0  0  0
 10 12  1  0  0  0  0
 11 13  1  0  0  0  0
 12 14  1  0  0  0  0
 13 14  1  0  0  0  0
 14 20  1  0  0  0  0
 19 22  1  0  0  0  0
  2 23  1  0  0  0  0
  9 24  1  0  0  0  0
  9 25  1  0  0  0  0
 10 26  1  0  0  0  0
 10 27  1  0  0  0  0
 11 28  1  0  0  0  0
 11 29  1  0  0  0  0
 12 30  1  0  0  0  0
 12 31  1  0  0  0  0
 13 32  1  0  0  0  0
 13 33  1  0  0  0  0
 15 34  1  0  0  0  0
 15 35  1  0  0  0  0
 15 36  1  0  0  0  0
 16 37  1  0  0  0  0
 16 38  1  0  0  0  0
 16 39  1  0  0  0  0
 20 40  1  0  0  0  0
M  END
> <id>
EN300-26689248

> <smiles>
CC1=NOC=2N=C(C)C=C(C(=O)NC3(CCCCC3)C#N)C12

> <IUPAC Name>
N-(1-cyanocyclohexyl)-3,6-dimethyl-[1,2]oxazolo[5,4-b]pyridine-4-carboxamide

> <CAS>
2128549-30-2

> <URL>
https://www.enaminestore.com/catalog/EN300-26689248

> <ROCS_ShapeQuery>
x0446_0A_x1080_0A_x0929_0A_x0812_0A_x0719_0A_x1140_0A_x0528_0A_x0310_0A

> <ROCS_TanimotoCombo>
0.414 

> <ROCS_ShapeTanimoto>
0.246 

> <ROCS_ColorTanimoto>
0.168 

> <ROCS_RefTversky>
0.223 

> <ROCS_RefColorTversky>
0.182 

> <ROCS_RefTverskyCombo>
0.406 

> <ROCS_FitTversky>
1.679 

> <ROCS_FitColorTversky>
0.686 

> <ROCS_FitTverskyCombo>
2.365 

> <ROCS_ColorScore>
-6.509

> <ROCS_Overlap>
2638.726

> <ROCS_Rank>
345                 

$$$$
untitled-dbase-32786_2
  -OEChem-02082415563D

 37 39  0     0  0  0  0  0  0999 V2000
    8.7988   14.9756   22.0289 C   0  0  0  0  0  0  0  0  0  0  0  0
    8.4535   12.9075   23.1892 C   0  0  0  0  0  0  0  0  0  0  0  0
    7.9946   14.1135   22.8289 C   0  0  0  0  0  0  0  0  0  0  0  0
    6.6348   14.5061   23.2936 C   0  0  0  0  0  0  0  0  0  0  0  0
    8.4734   11.6316   25.3128 C   0  0  0  0  0  0  0  0  0  0  0  0
    7.4791   10.6297   23.2342 C   0  0  0  0  0  0  0  0  0  0  0  0
   10.6132   12.0767   24.0748 C   0  0  0  0  0  0  0  0  0  0  0  0
    9.6189   11.0749   21.9963 C   0  0  0  0  0  0  0  0  0  0  0  0
    9.6556    9.7554   24.1333 C   0  0  0  0  0  0  0  0  0  0  0  0
    7.6619   11.9307   24.0383 C   0  0  0  0  0  0  0  0  0  0  0  0
    9.8188   12.3794   22.7905 C   0  0  0  0  0  0  0  0  0  0  0  0
    9.8531   11.0514   24.9407 C   0  0  0  0  0  0  0  0  0  0  0  0
    8.8536   10.0442   22.8512 C   0  0  0  0  0  0  0  0  0  0  0  0
    4.4333   16.6498   22.6338 C   0  0  0  0  0  0  0  0  0  0  0  0
    4.4935   15.1417   22.5169 C   0  0  0  0  0  0  0  0  0  0  0  0
    9.4533   15.6793   21.3783 N   0  0  0  0  0  0  0  0  0  0  0  0
    6.3017   14.5922   24.4671 O   0  0  0  0  0  0  0  0  0  0  0  0
    5.8377   14.7505   22.2169 O   0  0  0  0  0  0  0  0  0  0  0  0
    8.6020   12.5473   25.9039 H   0  0  0  0  0  0  0  0  0  0  0  0
    7.9281   10.9191   25.9441 H   0  0  0  0  0  0  0  0  0  0  0  0
    6.9161    9.8994   23.8285 H   0  0  0  0  0  0  0  0  0  0  0  0
    6.8915   10.8237   22.3278 H   0  0  0  0  0  0  0  0  0  0  0  0
   11.6045   11.6839   23.8170 H   0  0  0  0  0  0  0  0  0  0  0  0
   10.7751   12.9994   24.6467 H   0  0  0  0  0  0  0  0  0  0  0  0
    9.0644   11.2758   21.0707 H   0  0  0  0  0  0  0  0  0  0  0  0
   10.5925   10.6643   21.7014 H   0  0  0  0  0  0  0  0  0  0  0  0
   10.6304    9.3238   23.8750 H   0  0  0  0  0  0  0  0  0  0  0  0
    9.1291    9.0115   24.7437 H   0  0  0  0  0  0  0  0  0  0  0  0
    6.6816   12.3377   24.3110 H   0  0  0  0  0  0  0  0  0  0  0  0
   10.3673   13.1045   22.1785 H   0  0  0  0  0  0  0  0  0  0  0  0
   10.4241   10.8391   25.8512 H   0  0  0  0  0  0  0  0  0  0  0  0
    8.7167    9.1184   22.2815 H   0  0  0  0  0  0  0  0  0  0  0  0
    5.0872   17.0055   23.4348 H   0  0  0  0  0  0  0  0  0  0  0  0
    4.7366   17.1222   21.6937 H   0  0  0  0  0  0  0  0  0  0  0  0
    3.4099   16.9802   22.8404 H   0  0  0  0  0  0  0  0  0  0  0  0
    3.8373   14.7925   21.7141 H   0  0  0  0  0  0  0  0  0  0  0  0
    4.1910   14.6712   23.4572 H   0  0  0  0  0  0  0  0  0  0  0  0
  1  3  1  0  0  0  0
  1 16  3  0  0  0  0
  2  3  2  0  0  0  0
  2 10  1  0  0  0  0
  2 11  1  0  0  0  0
  3  4  1  0  0  0  0
  4 17  2  0  0  0  0
  4 18  1  0  0  0  0
  5 10  1  0  0  0  0
  5 12  1  0  0  0  0
  6 10  1  0  0  0  0
  6 13  1  0  0  0  0
  7 11  1  0  0  0  0
  7 12  1  0  0  0  0
  8 11  1  0  0  0  0
  8 13  1  0  0  0  0
  9 12  1  0  0  0  0
  9 13  1  0  0  0  0
 14 15  1  0  0  0  0
 15 18  1  0  0  0  0
  5 19  1  0  0  0  0
  5 20  1  0  0  0  0
  6 21  1  0  0  0  0
  6 22  1  0  0  0  0
  7 23  1  0  0  0  0
  7 24  1  0  0  0  0
  8 25  1  0  0  0  0
  8 26  1  0  0  0  0
  9 27  1  0  0  0  0
  9 28  1  0  0  0  0
 10 29  1  0  0  0  0
 11 30  1  0  0  0  0
 12 31  1  0  0  0  0
 13 32  1  0  0  0  0
 14 33  1  0  0  0  0
 14 34  1  0  0  0  0
 14 35  1  0  0  0  0
 15 36  1  0  0  0  0
 15 37  1  0  0  0  0
M  END
> <id>
EN300-156527

> <smiles>
CCOC(=O)C(=C1C2CC3CC(C2)CC1C3)C#N

> <MDLNUMBER>
MFCD00167911

> <IUPAC Name>
ethyl 2-(adamantan-2-ylidene)-2-cyanoacetate

> <CAS>
25694-16-0

> <Purity>
95

> <URL>
https://www.enaminestore.com/catalog/EN300-156527

> <MP>
74-79

> <ROCS_ShapeQuery>
x0446_0A_x1080_0A_x0929_0A_x0812_0A_x0719_0A_x1140_0A_x0528_0A_x0310_0A

> <ROCS_TanimotoCombo>
0.414 

> <ROCS_ShapeTanimoto>
0.223 

> <ROCS_ColorTanimoto>
0.190 

> <ROCS_RefTversky>
0.204 

> <ROCS_RefColorTversky>
0.204 

> <ROCS_RefTverskyCombo>
0.408 

> <ROCS_FitTversky>
1.743 

> <ROCS_FitColorTversky>
0.737 

> <ROCS_FitTverskyCombo>
2.479 

> <ROCS_ColorScore>
-7.307

> <ROCS_Overlap>
2406.355

> <ROCS_Rank>
346                 

$$$$
untitled-dbase-563526_3
  -OEChem-02082415563D

 57 62  0     1  0  0  0  0  0999 V2000
    2.7070   14.2395   22.3555 C   0  0  0  0  0  0  0  0  0  0  0  0
    7.6520   16.8770   24.4470 C   0  0  0  0  0  0  0  0  0  0  0  0
    2.1306   13.4823   23.3888 C   0  0  0  0  0  0  0  0  0  0  0  0
    7.8182   16.5156   25.7943 C   0  0  0  0  0  0  0  0  0  0  0  0
    3.8828   14.9652   22.5672 C   0  0  0  0  0  0  0  0  0  0  0  0
    6.5694   16.3982   23.7035 C   0  0  0  0  0  0  0  0  0  0  0  0
    2.7195   13.4345   24.6536 C   0  0  0  0  0  0  0  0  0  0  0  0
    6.9060   15.6670   26.4241 C   0  0  0  0  0  0  0  0  0  0  0  0
   11.4521   14.6281   23.0055 C   0  0  0  0  0  0  0  0  0  0  0  0
    9.5217   14.9739   21.7365 C   0  0  0  0  0  0  0  0  0  0  0  0
   11.1270   16.5767   21.8810 C   0  0  0  0  0  0  0  0  0  0  0  0
    4.4677   14.9180   23.8222 C   0  0  0  0  0  0  0  0  0  0  0  0
    5.6640   15.5559   24.3281 C   0  0  0  0  0  0  0  0  0  0  0  0
    3.8878   14.1507   24.8576 C   0  0  0  0  0  0  0  0  0  0  0  0
    5.8375   15.1903   25.6821 C   0  0  0  0  0  0  0  0  0  0  0  0
   10.2456   14.1317   22.5556 C   0  0  0  0  0  0  0  0  0  0  0  0
    7.3259   12.0733   25.9726 C   0  0  0  0  0  0  0  0  0  0  0  0
    9.3995    9.8536   24.0207 C   0  0  0  0  0  0  0  0  0  0  0  0
    8.1707   10.0674   23.1158 C   0  0  0  0  0  0  0  0  0  0  0  0
   10.2351   12.2526   24.3477 C   0  0  0  0  0  0  0  0  0  0  0  0
    8.1850   12.6093   22.8178 C   0  0  0  0  0  0  0  0  0  0  0  0
    4.7108   14.2714   26.1323 C   0  0  0  0  0  0  0  0  0  0  0  0
    9.4268   11.0787   24.9400 C   0  0  1  0  0  0  0  0  0  0  0  0
    7.5789   11.4049   23.5704 C   0  0  2  0  0  0  0  0  0  0  0  0
    9.7421   12.7338   22.9398 C   0  0  0  0  0  0  0  0  0  0  0  0
    5.2128   12.9335   26.6321 C   0  0  0  0  0  0  0  0  0  0  0  0
   11.9253   15.8507   22.6867 N   0  0  0  0  0  0  0  0  0  0  0  0
    9.9337   16.2075   21.3777 N   0  0  0  0  0  0  0  0  0  0  0  0
    8.0371   11.4951   24.9398 N   0  0  0  0  0  0  0  0  0  0  0  0
    7.7965   12.3238   27.0798 O   0  0  0  0  0  0  0  0  0  0  0  0
   10.3089   11.8492   21.9575 O   0  0  0  0  0  0  0  0  0  0  0  0
    6.0294   12.3342   25.6201 O   0  0  0  0  0  0  0  0  0  0  0  0
    2.2300   14.2623   21.3790 H   0  0  0  0  0  0  0  0  0  0  0  0
    8.3750   17.5389   23.9774 H   0  0  0  0  0  0  0  0  0  0  0  0
    1.2140   12.9298   23.1995 H   0  0  0  0  0  0  0  0  0  0  0  0
    8.6671   16.9035   26.3510 H   0  0  0  0  0  0  0  0  0  0  0  0
    4.3153   15.5467   21.7598 H   0  0  0  0  0  0  0  0  0  0  0  0
    6.4534   16.6876   22.6643 H   0  0  0  0  0  0  0  0  0  0  0  0
    2.2686   12.8523   25.4496 H   0  0  0  0  0  0  0  0  0  0  0  0
    7.0355   15.3947   27.4658 H   0  0  0  0  0  0  0  0  0  0  0  0
   12.0964   14.0434   23.6547 H   0  0  0  0  0  0  0  0  0  0  0  0
    8.5597   14.6771   21.3304 H   0  0  0  0  0  0  0  0  0  0  0  0
   11.4827   17.5632   21.6101 H   0  0  0  0  0  0  0  0  0  0  0  0
    9.2555    8.9413   24.6118 H   0  0  0  0  0  0  0  0  0  0  0  0
   10.3209    9.7293   23.4439 H   0  0  0  0  0  0  0  0  0  0  0  0
    8.4327   10.0536   22.0535 H   0  0  0  0  0  0  0  0  0  0  0  0
    7.4529    9.2568   23.2887 H   0  0  0  0  0  0  0  0  0  0  0  0
   10.1798   13.0887   25.0590 H   0  0  0  0  0  0  0  0  0  0  0  0
   11.2917   11.9611   24.2863 H   0  0  0  0  0  0  0  0  0  0  0  0
    7.9003   12.5469   21.7594 H   0  0  0  0  0  0  0  0  0  0  0  0
    7.7158   13.5198   23.2164 H   0  0  0  0  0  0  0  0  0  0  0  0
    4.1147   14.7826   26.8976 H   0  0  0  0  0  0  0  0  0  0  0  0
    9.7861   10.8349   25.9441 H   0  0  0  0  0  0  0  0  0  0  0  0
    6.4865   11.4235   23.5050 H   0  0  0  0  0  0  0  0  0  0  0  0
    4.3739   12.2657   26.8493 H   0  0  0  0  0  0  0  0  0  0  0  0
    5.8122   13.0624   27.5382 H   0  0  0  0  0  0  0  0  0  0  0  0
    9.9770   12.1467   21.0970 H   0  0  0  0  0  0  0  0  0  0  0  0
  1  3  1  0  0  0  0
  1  5  2  0  0  0  0
  2  4  1  0  0  0  0
  2  6  2  0  0  0  0
  3  7  2  0  0  0  0
  4  8  2  0  0  0  0
  5 12  1  0  0  0  0
  6 13  1  0  0  0  0
  7 14  1  0  0  0  0
  8 15  1  0  0  0  0
  9 16  1  0  0  0  0
  9 27  2  0  0  0  0
 10 16  2  0  0  0  0
 10 28  1  0  0  0  0
 11 27  1  0  0  0  0
 11 28  2  0  0  0  0
 12 13  1  0  0  0  0
 12 14  2  0  0  0  0
 13 15  2  0  0  0  0
 14 22  1  0  0  0  0
 15 22  1  0  0  0  0
 16 25  1  6  0  0  0
 17 29  1  0  0  0  0
 17 30  2  0  0  0  0
 17 32  1  0  0  0  0
 18 19  1  0  0  0  0
 18 23  1  0  0  0  0
 19 24  1  0  0  0  0
 20 23  1  0  0  0  0
 20 25  1  0  0  0  0
 21 24  1  0  0  0  0
 21 25  1  0  0  0  0
 22 26  1  0  0  0  0
 23 29  1  6  0  0  0
 24 29  1  6  0  0  0
 25 31  1  1  0  0  0
 26 32  1  0  0  0  0
  1 33  1  0  0  0  0
  2 34  1  0  0  0  0
  3 35  1  0  0  0  0
  4 36  1  0  0  0  0
  5 37  1  0  0  0  0
  6 38  1  0  0  0  0
  7 39  1  0  0  0  0
  8 40  1  0  0  0  0
  9 41  1  0  0  0  0
 10 42  1  0  0  0  0
 11 43  1  0  0  0  0
 18 44  1  0  0  0  0
 18 45  1  0  0  0  0
 19 46  1  0  0  0  0
 19 47  1  0  0  0  0
 20 48  1  0  0  0  0
 20 49  1  0  0  0  0
 21 50  1  0  0  0  0
 21 51  1  0  0  0  0
 22 52  1  0  0  0  0
 23 53  1  0  0  0  0
 24 54  1  0  0  0  0
 26 55  1  0  0  0  0
 26 56  1  0  0  0  0
 31 57  1  0  0  0  0
M  END
> <id>
EN300-37389861

> <smiles>
O[C@@]1(C[C@@H]2CC[C@H](C1)N2C(=O)OCC3C=4C=CC=CC4C=5C=CC=CC35)C=6C=NC=NC6

> <IUPAC Name>
(9H-fluoren-9-yl)methyl (1R,3S,5S)-3-hydroxy-3-(pyrimidin-5-yl)-8-azabicyclo[3.2.1]octane-8-carboxylate

> <URL>
https://www.enaminestore.com/catalog/EN300-37389861

> <ROCS_ShapeQuery>
x0446_0A_x1080_0A_x0929_0A_x0812_0A_x0719_0A_x1140_0A_x0528_0A_x0310_0A

> <ROCS_TanimotoCombo>
0.414 

> <ROCS_ShapeTanimoto>
0.239 

> <ROCS_ColorTanimoto>
0.174 

> <ROCS_RefTversky>
0.227 

> <ROCS_RefColorTversky>
0.214 

> <ROCS_RefTverskyCombo>
0.441 

> <ROCS_FitTversky>
1.309 

> <ROCS_FitColorTversky>
0.484 

> <ROCS_FitTverskyCombo>
1.793 

> <ROCS_ColorScore>
-7.725

> <ROCS_Overlap>
2681.662

> <ROCS_Rank>
347                 

$$$$
untitled-dbase-347869_0
  -OEChem-02082415563D

 52 57  0     0  0  0  0  0  0999 V2000
   13.0231   15.3827   20.8285 C   0  0  0  0  0  0  0  0  0  0  0  0
   13.1265   14.2127   23.0447 C   0  0  0  0  0  0  0  0  0  0  0  0
   12.5466   16.6499   22.9395 C   0  0  0  0  0  0  0  0  0  0  0  0
    9.8839   11.0030   24.8567 C   0  0  0  0  0  0  0  0  0  0  0  0
    8.7352    9.8433   22.9524 C   0  0  0  0  0  0  0  0  0  0  0  0
    7.3794   10.9028   24.7762 C   0  0  0  0  0  0  0  0  0  0  0  0
   11.2685   13.6966   21.4399 C   0  0  0  0  0  0  0  0  0  0  0  0
   10.6862   16.1425   21.3338 C   0  0  0  0  0  0  0  0  0  0  0  0
   10.7894   14.9688   23.5569 C   0  0  0  0  0  0  0  0  0  0  0  0
    9.9209   12.0197   22.5632 C   0  0  0  0  0  0  0  0  0  0  0  0
    8.5605   13.0835   24.3936 C   0  0  0  0  0  0  0  0  0  0  0  0
    7.4082   11.9204   22.4831 C   0  0  0  0  0  0  0  0  0  0  0  0
   12.7610   14.0552   21.5592 C   0  0  0  0  0  0  0  0  0  0  0  0
   12.1778   16.5049   21.4536 C   0  0  0  0  0  0  0  0  0  0  0  0
   12.2812   15.3290   23.6806 C   0  0  0  0  0  0  0  0  0  0  0  0
    9.9504   10.6972   23.3511 C   0  0  0  0  0  0  0  0  0  0  0  0
    8.5874   11.7625   25.1841 C   0  0  0  0  0  0  0  0  0  0  0  0
    7.4333   10.5974   23.2701 C   0  0  0  0  0  0  0  0  0  0  0  0
   10.3979   14.8111   22.0681 C   0  0  0  0  0  0  0  0  0  0  0  0
    8.6206   12.7992   22.8736 C   0  0  0  0  0  0  0  0  0  0  0  0
    8.5893   14.3640   21.9272 P   0  0  0  0  0  0  0  0  0  0  0  0
   14.0880   15.6389   20.8891 H   0  0  0  0  0  0  0  0  0  0  0  0
   12.7807   15.2788   19.7638 H   0  0  0  0  0  0  0  0  0  0  0  0
   12.9582   13.2670   23.5745 H   0  0  0  0  0  0  0  0  0  0  0  0
   14.1932   14.4482   23.1448 H   0  0  0  0  0  0  0  0  0  0  0  0
   13.6030   16.9286   23.0376 H   0  0  0  0  0  0  0  0  0  0  0  0
   11.9608   17.4585   23.3935 H   0  0  0  0  0  0  0  0  0  0  0  0
    9.9248   10.0688   25.4301 H   0  0  0  0  0  0  0  0  0  0  0  0
   10.7543   11.5993   25.1570 H   0  0  0  0  0  0  0  0  0  0  0  0
    8.7791    9.6052   21.8825 H   0  0  0  0  0  0  0  0  0  0  0  0
    8.7556    8.8884   23.4920 H   0  0  0  0  0  0  0  0  0  0  0  0
    7.3758    9.9667   25.3482 H   0  0  0  0  0  0  0  0  0  0  0  0
    6.4473   11.4276   25.0190 H   0  0  0  0  0  0  0  0  0  0  0  0
   11.0123   13.5545   20.3812 H   0  0  0  0  0  0  0  0  0  0  0  0
   11.0848   12.7338   21.9357 H   0  0  0  0  0  0  0  0  0  0  0  0
   10.0797   16.9569   21.7527 H   0  0  0  0  0  0  0  0  0  0  0  0
   10.4148   16.0677   20.2722 H   0  0  0  0  0  0  0  0  0  0  0  0
   10.5920   14.0414   24.1113 H   0  0  0  0  0  0  0  0  0  0  0  0
   10.1855   15.7517   24.0360 H   0  0  0  0  0  0  0  0  0  0  0  0
   10.8040   12.6183   22.8244 H   0  0  0  0  0  0  0  0  0  0  0  0
    9.9984   11.8048   21.4887 H   0  0  0  0  0  0  0  0  0  0  0  0
    7.6495   13.6412   24.6492 H   0  0  0  0  0  0  0  0  0  0  0  0
    9.4064   13.7107   24.7056 H   0  0  0  0  0  0  0  0  0  0  0  0
    7.4159   11.7033   21.4064 H   0  0  0  0  0  0  0  0  0  0  0  0
    6.4658   12.4470   22.6871 H   0  0  0  0  0  0  0  0  0  0  0  0
   13.3686   13.2608   21.1116 H   0  0  0  0  0  0  0  0  0  0  0  0
   12.3716   17.4483   20.9310 H   0  0  0  0  0  0  0  0  0  0  0  0
   12.5482   15.4382   24.7377 H   0  0  0  0  0  0  0  0  0  0  0  0
   10.8743   10.1532   23.1250 H   0  0  0  0  0  0  0  0  0  0  0  0
    8.5445   11.9742   26.2583 H   0  0  0  0  0  0  0  0  0  0  0  0
    6.5715    9.9828   22.9866 H   0  0  0  0  0  0  0  0  0  0  0  0
    8.6492   13.8253   20.6251 H   0  0  0  0  0  0  0  0  0  0  0  0
  1 13  1  0  0  0  0
  1 14  1  0  0  0  0
  2 13  1  0  0  0  0
  2 15  1  0  0  0  0
  3 14  1  0  0  0  0
  3 15  1  0  0  0  0
  4 16  1  0  0  0  0
  4 17  1  0  0  0  0
  5 16  1  0  0  0  0
  5 18  1  0  0  0  0
  6 17  1  0  0  0  0
  6 18  1  0  0  0  0
  7 13  1  0  0  0  0
  7 19  1  0  0  0  0
  8 14  1  0  0  0  0
  8 19  1  0  0  0  0
  9 15  1  0  0  0  0
  9 19  1  0  0  0  0
 10 16  1  0  0  0  0
 10 20  1  0  0  0  0
 11 17  1  0  0  0  0
 11 20  1  0  0  0  0
 12 18  1  0  0  0  0
 12 20  1  0  0  0  0
 19 21  1  0  0  0  0
 20 21  1  0  0  0  0
  1 22  1  0  0  0  0
  1 23  1  0  0  0  0
  2 24  1  0  0  0  0
  2 25  1  0  0  0  0
  3 26  1  0  0  0  0
  3 27  1  0  0  0  0
  4 28  1  0  0  0  0
  4 29  1  0  0  0  0
  5 30  1  0  0  0  0
  5 31  1  0  0  0  0
  6 32  1  0  0  0  0
  6 33  1  0  0  0  0
  7 34  1  0  0  0  0
  7 35  1  0  0  0  0
  8 36  1  0  0  0  0
  8 37  1  0  0  0  0
  9 38  1  0  0  0  0
  9 39  1  0  0  0  0
 10 40  1  0  0  0  0
 10 41  1  0  0  0  0
 11 42  1  0  0  0  0
 11 43  1  0  0  0  0
 12 44  1  0  0  0  0
 12 45  1  0  0  0  0
 13 46  1  0  0  0  0
 14 47  1  0  0  0  0
 15 48  1  0  0  0  0
 16 49  1  0  0  0  0
 17 50  1  0  0  0  0
 18 51  1  0  0  0  0
 21 52  1  0  0  0  0
M  END
> <id>
EN300-7563447

> <smiles>
C1C2CC3CC1CC(C2)(C3)PC4(CC5CC6CC(C5)C4)C6

> <IUPAC Name>
bis(adamantan-1-yl)phosphane

> <CAS>
131211-27-3

> <Purity>
95

> <URL>
https://www.enaminestore.com/catalog/EN300-7563447

> <MP>
181-185

> <ROCS_ShapeQuery>
x0446_0A_x1080_0A_x0929_0A_x0812_0A_x0719_0A_x1140_0A_x0528_0A_x0310_0A

> <ROCS_TanimotoCombo>
0.414 

> <ROCS_ShapeTanimoto>
0.241 

> <ROCS_ColorTanimoto>
0.173 

> <ROCS_RefTversky>
0.219 

> <ROCS_RefColorTversky>
0.205 

> <ROCS_RefTverskyCombo>
0.424 

> <ROCS_FitTversky>
1.700 

> <ROCS_FitColorTversky>
0.522 

> <ROCS_FitTverskyCombo>
2.222 

> <ROCS_ColorScore>
-7.382

> <ROCS_Overlap>
2588.390

> <ROCS_Rank>
348                 

$$$$
untitled-dbase-322101_4
  -OEChem-02082415563D

 64 69  0     0  0  0  0  0  0999 V2000
    7.6112   11.9347   22.4018 C   0  0  0  0  0  0  0  0  0  0  0  0
    7.3835   11.7674   24.8940 C   0  0  0  0  0  0  0  0  0  0  0  0
    8.1115    9.7699   23.5646 C   0  0  0  0  0  0  0  0  0  0  0  0
   10.4768   16.0444   21.6317 C   0  0  0  0  0  0  0  0  0  0  0  0
   12.5252   15.2039   20.4533 C   0  0  0  0  0  0  0  0  0  0  0  0
   12.7545   16.6714   22.4734 C   0  0  0  0  0  0  0  0  0  0  0  0
    9.2456   13.1180   23.8930 C   0  0  0  0  0  0  0  0  0  0  0  0
    9.9766   11.1136   22.5584 C   0  0  0  0  0  0  0  0  0  0  0  0
    9.7486   10.9459   25.0585 C   0  0  0  0  0  0  0  0  0  0  0  0
   11.0922   13.6156   21.7640 C   0  0  0  0  0  0  0  0  0  0  0  0
   11.3219   15.0882   23.7917 C   0  0  0  0  0  0  0  0  0  0  0  0
   13.3767   14.2446   22.6098 C   0  0  0  0  0  0  0  0  0  0  0  0
    7.7749   12.6927   23.7297 C   0  0  0  0  0  0  0  0  0  0  0  0
    8.5070   10.6849   22.3937 C   0  0  0  0  0  0  0  0  0  0  0  0
    8.2786   10.5170   24.8982 C   0  0  0  0  0  0  0  0  0  0  0  0
   11.0819   14.8608   20.8585 C   0  0  0  0  0  0  0  0  0  0  0  0
   11.3126   16.3356   22.8892 C   0  0  0  0  0  0  0  0  0  0  0  0
   13.3709   15.4905   21.7052 C   0  0  0  0  0  0  0  0  0  0  0  0
   10.1662   11.8741   23.8929 C   0  0  0  0  0  0  0  0  0  0  0  0
   11.9330   13.8845   23.0350 C   0  0  0  0  0  0  0  0  0  0  0  0
   15.8700   10.2267   25.0340 C   0  0  0  0  0  0  0  0  0  0  0  0
   14.4032   10.4782   24.7224 C   0  0  0  0  0  0  0  0  0  0  0  0
   14.2124   10.9814   23.2908 C   0  0  0  0  0  0  0  0  0  0  0  0
   12.7329   11.1910   22.9736 C   0  0  0  0  0  0  0  0  0  0  0  0
   11.9475   12.3983   24.1004 P   0  0  0  0  0  0  0  0  0  0  0  0
    6.5625   11.6438   22.2642 H   0  0  0  0  0  0  0  0  0  0  0  0
    7.8728   12.5896   21.5616 H   0  0  0  0  0  0  0  0  0  0  0  0
    7.4815   12.3018   25.8469 H   0  0  0  0  0  0  0  0  0  0  0  0
    6.3308   11.4734   24.8007 H   0  0  0  0  0  0  0  0  0  0  0  0
    7.0717    9.4405   23.4477 H   0  0  0  0  0  0  0  0  0  0  0  0
    8.7337    8.8665   23.5606 H   0  0  0  0  0  0  0  0  0  0  0  0
   10.4453   16.9333   20.9897 H   0  0  0  0  0  0  0  0  0  0  0  0
    9.4412   15.8181   21.9133 H   0  0  0  0  0  0  0  0  0  0  0  0
   12.9633   14.3726   19.8872 H   0  0  0  0  0  0  0  0  0  0  0  0
   12.5301   16.0779   19.7904 H   0  0  0  0  0  0  0  0  0  0  0  0
   12.7633   17.5715   21.8464 H   0  0  0  0  0  0  0  0  0  0  0  0
   13.3576   16.8964   23.3615 H   0  0  0  0  0  0  0  0  0  0  0  0
    9.5186   13.8028   23.0786 H   0  0  0  0  0  0  0  0  0  0  0  0
    9.3588   13.6854   24.8267 H   0  0  0  0  0  0  0  0  0  0  0  0
   10.6206   10.2246   22.5226 H   0  0  0  0  0  0  0  0  0  0  0  0
   10.2688   11.7433   21.7073 H   0  0  0  0  0  0  0  0  0  0  0  0
    9.8762   11.4530   26.0244 H   0  0  0  0  0  0  0  0  0  0  0  0
   10.3867   10.0520   25.0902 H   0  0  0  0  0  0  0  0  0  0  0  0
   10.0599   13.3512   22.0304 H   0  0  0  0  0  0  0  0  0  0  0  0
   11.4966   12.7617   21.2037 H   0  0  0  0  0  0  0  0  0  0  0  0
   11.8932   15.3044   24.7045 H   0  0  0  0  0  0  0  0  0  0  0  0
   10.2957   14.8649   24.1132 H   0  0  0  0  0  0  0  0  0  0  0  0
   13.8444   13.4080   22.0734 H   0  0  0  0  0  0  0  0  0  0  0  0
   14.0037   14.4382   23.4910 H   0  0  0  0  0  0  0  0  0  0  0  0
    7.1317   13.5797   23.7306 H   0  0  0  0  0  0  0  0  0  0  0  0
    8.3832   10.1477   21.4467 H   0  0  0  0  0  0  0  0  0  0  0  0
    7.9930    9.8606   25.7278 H   0  0  0  0  0  0  0  0  0  0  0  0
   10.4843   14.6607   19.9622 H   0  0  0  0  0  0  0  0  0  0  0  0
   10.8784   17.1817   23.4336 H   0  0  0  0  0  0  0  0  0  0  0  0
   14.3969   15.7370   21.4098 H   0  0  0  0  0  0  0  0  0  0  0  0
   16.2855    9.4936   24.3357 H   0  0  0  0  0  0  0  0  0  0  0  0
   16.4534   11.1487   24.9454 H   0  0  0  0  0  0  0  0  0  0  0  0
   15.9944    9.8373   26.0495 H   0  0  0  0  0  0  0  0  0  0  0  0
   14.0062   11.2138   25.4313 H   0  0  0  0  0  0  0  0  0  0  0  0
   13.8403    9.5491   24.8691 H   0  0  0  0  0  0  0  0  0  0  0  0
   14.7630   11.9220   23.1605 H   0  0  0  0  0  0  0  0  0  0  0  0
   14.6496   10.2584   22.5900 H   0  0  0  0  0  0  0  0  0  0  0  0
   12.6163   11.5510   21.9456 H   0  0  0  0  0  0  0  0  0  0  0  0
   12.1929   10.2413   23.0531 H   0  0  0  0  0  0  0  0  0  0  0  0
  1 13  1  0  0  0  0
  1 14  1  0  0  0  0
  2 13  1  0  0  0  0
  2 15  1  0  0  0  0
  3 14  1  0  0  0  0
  3 15  1  0  0  0  0
  4 16  1  0  0  0  0
  4 17  1  0  0  0  0
  5 16  1  0  0  0  0
  5 18  1  0  0  0  0
  6 17  1  0  0  0  0
  6 18  1  0  0  0  0
  7 13  1  0  0  0  0
  7 19  1  0  0  0  0
  8 14  1  0  0  0  0
  8 19  1  0  0  0  0
  9 15  1  0  0  0  0
  9 19  1  0  0  0  0
 10 16  1  0  0  0  0
 10 20  1  0  0  0  0
 11 17  1  0  0  0  0
 11 20  1  0  0  0  0
 12 18  1  0  0  0  0
 12 20  1  0  0  0  0
 19 25  1  0  0  0  0
 20 25  1  0  0  0  0
 21 22  1  0  0  0  0
 22 23  1  0  0  0  0
 23 24  1  0  0  0  0
 24 25  1  0  0  0  0
  1 26  1  0  0  0  0
  1 27  1  0  0  0  0
  2 28  1  0  0  0  0
  2 29  1  0  0  0  0
  3 30  1  0  0  0  0
  3 31  1  0  0  0  0
  4 32  1  0  0  0  0
  4 33  1  0  0  0  0
  5 34  1  0  0  0  0
  5 35  1  0  0  0  0
  6 36  1  0  0  0  0
  6 37  1  0  0  0  0
  7 38  1  0  0  0  0
  7 39  1  0  0  0  0
  8 40  1  0  0  0  0
  8 41  1  0  0  0  0
  9 42  1  0  0  0  0
  9 43  1  0  0  0  0
 10 44  1  0  0  0  0
 10 45  1  0  0  0  0
 11 46  1  0  0  0  0
 11 47  1  0  0  0  0
 12 48  1  0  0  0  0
 12 49  1  0  0  0  0
 13 50  1  0  0  0  0
 14 51  1  0  0  0  0
 15 52  1  0  0  0  0
 16 53  1  0  0  0  0
 17 54  1  0  0  0  0
 18 55  1  0  0  0  0
 21 56  1  0  0  0  0
 21 57  1  0  0  0  0
 21 58  1  0  0  0  0
 22 59  1  0  0  0  0
 22 60  1  0  0  0  0
 23 61  1  0  0  0  0
 23 62  1  0  0  0  0
 24 63  1  0  0  0  0
 24 64  1  0  0  0  0
M  END
> <id>
EN300-177282

> <smiles>
CCCCP(C1(CC2CC3CC(C2)C1)C3)C4(CC5CC6CC(C5)C4)C6

> <MDLNUMBER>
MFCD05861606

> <IUPAC Name>
bis(adamantan-1-yl)(butyl)phosphane

> <CAS>
321921-71-5

> <Purity>
95

> <URL>
https://www.enaminestore.com/catalog/EN300-177282

> <MP>
108-110

> <ROCS_ShapeQuery>
x0446_0A_x1080_0A_x0929_0A_x0812_0A_x0719_0A_x1140_0A_x0528_0A_x0310_0A

> <ROCS_TanimotoCombo>
0.414 

> <ROCS_ShapeTanimoto>
0.252 

> <ROCS_ColorTanimoto>
0.161 

> <ROCS_RefTversky>
0.230 

> <ROCS_RefColorTversky>
0.197 

> <ROCS_RefTverskyCombo>
0.427 

> <ROCS_FitTversky>
1.633 

> <ROCS_FitColorTversky>
0.470 

> <ROCS_FitTverskyCombo>
2.103 

> <ROCS_ColorScore>
-7.100

> <ROCS_Overlap>
2716.052

> <ROCS_Rank>
349                 

$$$$
untitled-dbase-93640_4
  -OEChem-02082415563D

 64 69  0     0  0  0  0  0  0999 V2000
    7.6112   11.9347   22.4018 C   0  0  0  0  0  0  0  0  0  0  0  0
    7.3835   11.7674   24.8940 C   0  0  0  0  0  0  0  0  0  0  0  0
    8.1115    9.7699   23.5646 C   0  0  0  0  0  0  0  0  0  0  0  0
   10.4768   16.0444   21.6317 C   0  0  0  0  0  0  0  0  0  0  0  0
   12.5252   15.2039   20.4533 C   0  0  0  0  0  0  0  0  0  0  0  0
   12.7545   16.6714   22.4734 C   0  0  0  0  0  0  0  0  0  0  0  0
    9.2456   13.1180   23.8930 C   0  0  0  0  0  0  0  0  0  0  0  0
    9.9766   11.1136   22.5584 C   0  0  0  0  0  0  0  0  0  0  0  0
    9.7486   10.9459   25.0585 C   0  0  0  0  0  0  0  0  0  0  0  0
   11.0922   13.6156   21.7640 C   0  0  0  0  0  0  0  0  0  0  0  0
   11.3219   15.0882   23.7917 C   0  0  0  0  0  0  0  0  0  0  0  0
   13.3767   14.2446   22.6098 C   0  0  0  0  0  0  0  0  0  0  0  0
    7.7749   12.6927   23.7297 C   0  0  0  0  0  0  0  0  0  0  0  0
    8.5070   10.6849   22.3937 C   0  0  0  0  0  0  0  0  0  0  0  0
    8.2786   10.5170   24.8982 C   0  0  0  0  0  0  0  0  0  0  0  0
   11.0819   14.8608   20.8585 C   0  0  0  0  0  0  0  0  0  0  0  0
   11.3126   16.3356   22.8892 C   0  0  0  0  0  0  0  0  0  0  0  0
   13.3709   15.4905   21.7052 C   0  0  0  0  0  0  0  0  0  0  0  0
   10.1662   11.8741   23.8929 C   0  0  0  0  0  0  0  0  0  0  0  0
   11.9330   13.8845   23.0350 C   0  0  0  0  0  0  0  0  0  0  0  0
   15.8700   10.2267   25.0340 C   0  0  0  0  0  0  0  0  0  0  0  0
   14.4032   10.4782   24.7224 C   0  0  0  0  0  0  0  0  0  0  0  0
   14.2124   10.9814   23.2908 C   0  0  0  0  0  0  0  0  0  0  0  0
   12.7329   11.1910   22.9736 C   0  0  0  0  0  0  0  0  0  0  0  0
   11.9475   12.3983   24.1004 P   0  0  0  0  0  0  0  0  0  0  0  0
    6.5625   11.6438   22.2642 H   0  0  0  0  0  0  0  0  0  0  0  0
    7.8728   12.5896   21.5616 H   0  0  0  0  0  0  0  0  0  0  0  0
    7.4815   12.3018   25.8469 H   0  0  0  0  0  0  0  0  0  0  0  0
    6.3308   11.4734   24.8007 H   0  0  0  0  0  0  0  0  0  0  0  0
    7.0717    9.4405   23.4477 H   0  0  0  0  0  0  0  0  0  0  0  0
    8.7337    8.8665   23.5606 H   0  0  0  0  0  0  0  0  0  0  0  0
   10.4453   16.9333   20.9897 H   0  0  0  0  0  0  0  0  0  0  0  0
    9.4412   15.8181   21.9133 H   0  0  0  0  0  0  0  0  0  0  0  0
   12.9633   14.3726   19.8872 H   0  0  0  0  0  0  0  0  0  0  0  0
   12.5301   16.0779   19.7904 H   0  0  0  0  0  0  0  0  0  0  0  0
   12.7633   17.5715   21.8464 H   0  0  0  0  0  0  0  0  0  0  0  0
   13.3576   16.8964   23.3615 H   0  0  0  0  0  0  0  0  0  0  0  0
    9.5186   13.8028   23.0786 H   0  0  0  0  0  0  0  0  0  0  0  0
    9.3588   13.6854   24.8267 H   0  0  0  0  0  0  0  0  0  0  0  0
   10.6206   10.2246   22.5226 H   0  0  0  0  0  0  0  0  0  0  0  0
   10.2688   11.7433   21.7073 H   0  0  0  0  0  0  0  0  0  0  0  0
    9.8762   11.4530   26.0244 H   0  0  0  0  0  0  0  0  0  0  0  0
   10.3867   10.0520   25.0902 H   0  0  0  0  0  0  0  0  0  0  0  0
   10.0599   13.3512   22.0304 H   0  0  0  0  0  0  0  0  0  0  0  0
   11.4966   12.7617   21.2037 H   0  0  0  0  0  0  0  0  0  0  0  0
   11.8932   15.3044   24.7045 H   0  0  0  0  0  0  0  0  0  0  0  0
   10.2957   14.8649   24.1132 H   0  0  0  0  0  0  0  0  0  0  0  0
   13.8444   13.4080   22.0734 H   0  0  0  0  0  0  0  0  0  0  0  0
   14.0037   14.4382   23.4910 H   0  0  0  0  0  0  0  0  0  0  0  0
    7.1317   13.5797   23.7306 H   0  0  0  0  0  0  0  0  0  0  0  0
    8.3832   10.1477   21.4467 H   0  0  0  0  0  0  0  0  0  0  0  0
    7.9930    9.8606   25.7278 H   0  0  0  0  0  0  0  0  0  0  0  0
   10.4843   14.6607   19.9622 H   0  0  0  0  0  0  0  0  0  0  0  0
   10.8784   17.1817   23.4336 H   0  0  0  0  0  0  0  0  0  0  0  0
   14.3969   15.7370   21.4098 H   0  0  0  0  0  0  0  0  0  0  0  0
   16.2855    9.4936   24.3357 H   0  0  0  0  0  0  0  0  0  0  0  0
   16.4534   11.1487   24.9454 H   0  0  0  0  0  0  0  0  0  0  0  0
   15.9944    9.8373   26.0495 H   0  0  0  0  0  0  0  0  0  0  0  0
   14.0062   11.2138   25.4313 H   0  0  0  0  0  0  0  0  0  0  0  0
   13.8403    9.5491   24.8691 H   0  0  0  0  0  0  0  0  0  0  0  0
   14.7630   11.9220   23.1605 H   0  0  0  0  0  0  0  0  0  0  0  0
   14.6496   10.2584   22.5900 H   0  0  0  0  0  0  0  0  0  0  0  0
   12.6163   11.5510   21.9456 H   0  0  0  0  0  0  0  0  0  0  0  0
   12.1929   10.2413   23.0531 H   0  0  0  0  0  0  0  0  0  0  0  0
  1 13  1  0  0  0  0
  1 14  1  0  0  0  0
  2 13  1  0  0  0  0
  2 15  1  0  0  0  0
  3 14  1  0  0  0  0
  3 15  1  0  0  0  0
  4 16  1  0  0  0  0
  4 17  1  0  0  0  0
  5 16  1  0  0  0  0
  5 18  1  0  0  0  0
  6 17  1  0  0  0  0
  6 18  1  0  0  0  0
  7 13  1  0  0  0  0
  7 19  1  0  0  0  0
  8 14  1  0  0  0  0
  8 19  1  0  0  0  0
  9 15  1  0  0  0  0
  9 19  1  0  0  0  0
 10 16  1  0  0  0  0
 10 20  1  0  0  0  0
 11 17  1  0  0  0  0
 11 20  1  0  0  0  0
 12 18  1  0  0  0  0
 12 20  1  0  0  0  0
 19 25  1  0  0  0  0
 20 25  1  0  0  0  0
 21 22  1  0  0  0  0
 22 23  1  0  0  0  0
 23 24  1  0  0  0  0
 24 25  1  0  0  0  0
  1 26  1  0  0  0  0
  1 27  1  0  0  0  0
  2 28  1  0  0  0  0
  2 29  1  0  0  0  0
  3 30  1  0  0  0  0
  3 31  1  0  0  0  0
  4 32  1  0  0  0  0
  4 33  1  0  0  0  0
  5 34  1  0  0  0  0
  5 35  1  0  0  0  0
  6 36  1  0  0  0  0
  6 37  1  0  0  0  0
  7 38  1  0  0  0  0
  7 39  1  0  0  0  0
  8 40  1  0  0  0  0
  8 41  1  0  0  0  0
  9 42  1  0  0  0  0
  9 43  1  0  0  0  0
 10 44  1  0  0  0  0
 10 45  1  0  0  0  0
 11 46  1  0  0  0  0
 11 47  1  0  0  0  0
 12 48  1  0  0  0  0
 12 49  1  0  0  0  0
 13 50  1  0  0  0  0
 14 51  1  0  0  0  0
 15 52  1  0  0  0  0
 16 53  1  0  0  0  0
 17 54  1  0  0  0  0
 18 55  1  0  0  0  0
 21 56  1  0  0  0  0
 21 57  1  0  0  0  0
 21 58  1  0  0  0  0
 22 59  1  0  0  0  0
 22 60  1  0  0  0  0
 23 61  1  0  0  0  0
 23 62  1  0  0  0  0
 24 63  1  0  0  0  0
 24 64  1  0  0  0  0
M  END
> <id>
EN300-181438

> <smiles>
I.CCCCP(C1(CC2CC3CC(C2)C1)C3)C4(CC5CC6CC(C5)C4)C6

> <MDLNUMBER>
MFCD10566973

> <IUPAC Name>
bis(adamantan-1-yl)(butyl)phosphane hydroiodide

> <CAS>
714951-87-8

> <URL>
https://www.enaminestore.com/catalog/EN300-181438

> <Saltdate>
I

> <ROCS_ShapeQuery>
x0446_0A_x1080_0A_x0929_0A_x0812_0A_x0719_0A_x1140_0A_x0528_0A_x0310_0A

> <ROCS_TanimotoCombo>
0.414 

> <ROCS_ShapeTanimoto>
0.252 

> <ROCS_ColorTanimoto>
0.161 

> <ROCS_RefTversky>
0.230 

> <ROCS_RefColorTversky>
0.197 

> <ROCS_RefTverskyCombo>
0.427 

> <ROCS_FitTversky>
1.633 

> <ROCS_FitColorTversky>
0.470 

> <ROCS_FitTverskyCombo>
2.103 

> <ROCS_ColorScore>
-7.100

> <ROCS_Overlap>
2716.052

> <ROCS_Rank>
350                 

$$$$
untitled-dbase-2950_3
  -OEChem-02082415563D

 36 38  0     1  0  0  0  0  0999 V2000
   10.5784   13.5166   23.0719 C   0  0  0  0  0  0  0  0  0  0  0  0
   10.8301   16.0018   20.9992 C   0  0  0  0  0  0  0  0  0  0  0  0
    7.1456   11.3531   24.5491 C   0  0  0  0  0  0  0  0  0  0  0  0
    9.4700   12.2278   24.8971 C   0  0  0  0  0  0  0  0  0  0  0  0
    8.2792   12.6510   22.7262 C   0  0  0  0  0  0  0  0  0  0  0  0
    9.0854    9.7628   24.6296 C   0  0  0  0  0  0  0  0  0  0  0  0
    7.8927   10.1860   22.4573 C   0  0  0  0  0  0  0  0  0  0  0  0
   10.2235   11.0608   22.8024 C   0  0  0  0  0  0  0  0  0  0  0  0
    8.5075   11.0681   25.2058 C   0  0  2  0  0  0  0  0  0  0  0  0
    7.3112   11.4932   23.0260 C   0  0  1  0  0  0  0  0  0  0  0  0
    9.6504   12.3746   23.3732 C   0  0  0  0  0  0  0  0  0  0  0  0
    9.2613    9.8951   23.1043 C   0  0  0  0  0  0  0  0  0  0  0  0
   11.6540   14.7690   21.2125 C   0  0  0  0  0  0  0  0  0  0  0  0
   10.7971   13.7230   21.7232 N   0  0  0  0  0  0  0  0  0  0  0  0
   11.0594   14.1639   23.9946 O   0  0  0  0  0  0  0  0  0  0  0  0
    9.6370   16.1270   21.2313 O   0  0  0  0  0  0  0  0  0  0  0  0
   11.6069   16.9968   20.4978 O   0  0  0  0  0  0  0  0  0  0  0  0
    9.9293    8.3760   22.4417 Cl  0  0  0  0  0  0  0  0  0  0  0  0
    6.4436   10.5414   24.7760 H   0  0  0  0  0  0  0  0  0  0  0  0
    6.7148   12.2722   24.9647 H   0  0  0  0  0  0  0  0  0  0  0  0
    9.0801   13.1592   25.3286 H   0  0  0  0  0  0  0  0  0  0  0  0
   10.4396   12.0486   25.3798 H   0  0  0  0  0  0  0  0  0  0  0  0
    8.3867   12.7764   21.6407 H   0  0  0  0  0  0  0  0  0  0  0  0
    7.8616   13.5938   23.1034 H   0  0  0  0  0  0  0  0  0  0  0  0
   10.0474    9.5438   25.1108 H   0  0  0  0  0  0  0  0  0  0  0  0
    8.4138    8.9279   24.8688 H   0  0  0  0  0  0  0  0  0  0  0  0
    7.1945    9.3605   22.6474 H   0  0  0  0  0  0  0  0  0  0  0  0
    7.9927   10.2723   21.3676 H   0  0  0  0  0  0  0  0  0  0  0  0
   10.3788   11.1574   21.7189 H   0  0  0  0  0  0  0  0  0  0  0  0
   11.2137   10.8654   23.2366 H   0  0  0  0  0  0  0  0  0  0  0  0
    8.3823   10.9702   26.2899 H   0  0  0  0  0  0  0  0  0  0  0  0
    6.3379   11.6959   22.5652 H   0  0  0  0  0  0  0  0  0  0  0  0
   12.0823   14.4440   20.2607 H   0  0  0  0  0  0  0  0  0  0  0  0
   12.4441   14.9711   21.9403 H   0  0  0  0  0  0  0  0  0  0  0  0
   10.3336   13.1104   21.0589 H   0  0  0  0  0  0  0  0  0  0  0  0
   11.0948   17.8198   20.3473 H   0  0  0  0  0  0  0  0  0  0  0  0
  1 11  1  0  0  0  0
  1 14  1  0  0  0  0
  1 15  2  0  0  0  0
  2 13  1  0  0  0  0
  2 16  2  0  0  0  0
  2 17  1  0  0  0  0
  3  9  1  0  0  0  0
  3 10  1  0  0  0  0
  4  9  1  0  0  0  0
  4 11  1  0  0  0  0
  5 10  1  0  0  0  0
  5 11  1  0  0  0  0
  6  9  1  0  0  0  0
  6 12  1  0  0  0  0
  7 10  1  0  0  0  0
  7 12  1  0  0  0  0
  8 11  1  0  0  0  0
  8 12  1  0  0  0  0
 12 18  1  0  0  0  0
 13 14  1  0  0  0  0
  3 19  1  0  0  0  0
  3 20  1  0  0  0  0
  4 21  1  0  0  0  0
  4 22  1  0  0  0  0
  5 23  1  0  0  0  0
  5 24  1  0  0  0  0
  6 25  1  0  0  0  0
  6 26  1  0  0  0  0
  7 27  1  0  0  0  0
  7 28  1  0  0  0  0
  8 29  1  0  0  0  0
  8 30  1  0  0  0  0
  9 31  1  0  0  0  0
 10 32  1  0  0  0  0
 13 33  1  0  0  0  0
 13 34  1  0  0  0  0
 14 35  1  0  0  0  0
 17 36  1  0  0  0  0
M  END
> <id>
EN300-09743

> <smiles>
OC(=O)CNC(=O)C1(CC2CC3CC(Cl)(C2)C1)C3

> <MDLNUMBER>
MFCD04971965

> <IUPAC Name>
2-[(3-chloroadamantan-1-yl)formamido]acetic acid

> <CAS>
750608-09-4

> <Purity>
95

> <URL>
https://www.enaminestore.com/catalog/EN300-09743

> <ROCS_ShapeQuery>
x0446_0A_x1080_0A_x0929_0A_x0812_0A_x0719_0A_x1140_0A_x0528_0A_x0310_0A

> <ROCS_TanimotoCombo>
0.414 

> <ROCS_ShapeTanimoto>
0.227 

> <ROCS_ColorTanimoto>
0.187 

> <ROCS_RefTversky>
0.206 

> <ROCS_RefColorTversky>
0.213 

> <ROCS_RefTverskyCombo>
0.420 

> <ROCS_FitTversky>
1.768 

> <ROCS_FitColorTversky>
0.600 

> <ROCS_FitTverskyCombo>
2.368 

> <ROCS_ColorScore>
-7.658

> <ROCS_Overlap>
2437.271

> <ROCS_Rank>
351                 

$$$$
untitled-dbase-269046_0
  -OEChem-02082415563D

 40 43  0     0  0  0  0  0  0999 V2000
    9.6804   14.2965   22.1841 C   0  0  0  0  0  0  0  0  0  0  0  0
   12.9064   15.9784   22.7188 C   0  0  0  0  0  0  0  0  0  0  0  0
   13.3668   14.6494   22.1332 C   0  0  0  0  0  0  0  0  0  0  0  0
    7.7536   11.4667   24.8196 C   0  0  0  0  0  0  0  0  0  0  0  0
    8.2235   10.2485   22.6779 C   0  0  0  0  0  0  0  0  0  0  0  0
   10.0525   10.5731   24.3628 C   0  0  0  0  0  0  0  0  0  0  0  0
    7.8087   12.7214   22.6488 C   0  0  0  0  0  0  0  0  0  0  0  0
    9.6408   13.0464   24.3367 C   0  0  0  0  0  0  0  0  0  0  0  0
   10.1110   11.8276   22.1914 C   0  0  0  0  0  0  0  0  0  0  0  0
   11.4453   16.0434   22.3014 C   0  0  0  0  0  0  0  0  0  0  0  0
   12.1569   13.7487   22.3378 C   0  0  0  0  0  0  0  0  0  0  0  0
    7.4194   11.3927   23.3197 C   0  0  0  0  0  0  0  0  0  0  0  0
    9.2587   11.7189   25.0143 C   0  0  0  0  0  0  0  0  0  0  0  0
    9.7314   10.4946   22.8600 C   0  0  0  0  0  0  0  0  0  0  0  0
    9.3170   12.9838   22.8306 C   0  0  0  0  0  0  0  0  0  0  0  0
   11.0138   14.6537   22.2682 N   0  0  0  0  0  0  0  0  0  0  0  0
    8.8190   14.9751   21.6225 O   0  0  0  0  0  0  0  0  0  0  0  0
   12.9890   15.9588   23.8118 H   0  0  0  0  0  0  0  0  0  0  0  0
   13.4881   16.8236   22.3409 H   0  0  0  0  0  0  0  0  0  0  0  0
   13.5797   14.7616   21.0635 H   0  0  0  0  0  0  0  0  0  0  0  0
   14.2631   14.2648   22.6277 H   0  0  0  0  0  0  0  0  0  0  0  0
    7.1752   12.2697   25.2928 H   0  0  0  0  0  0  0  0  0  0  0  0
    7.4643   10.5312   25.3137 H   0  0  0  0  0  0  0  0  0  0  0  0
    7.9425    9.2917   23.1347 H   0  0  0  0  0  0  0  0  0  0  0  0
    7.9826   10.1746   21.6103 H   0  0  0  0  0  0  0  0  0  0  0  0
   11.1281   10.7326   24.5081 H   0  0  0  0  0  0  0  0  0  0  0  0
    9.8036    9.6218   24.8490 H   0  0  0  0  0  0  0  0  0  0  0  0
    7.5525   12.6914   21.5816 H   0  0  0  0  0  0  0  0  0  0  0  0
    7.2222   13.5427   23.0817 H   0  0  0  0  0  0  0  0  0  0  0  0
    9.0997   13.8759   24.8108 H   0  0  0  0  0  0  0  0  0  0  0  0
   10.7087   13.2507   24.4890 H   0  0  0  0  0  0  0  0  0  0  0  0
   11.1901   12.0023   22.2932 H   0  0  0  0  0  0  0  0  0  0  0  0
    9.9088   11.7751   21.1134 H   0  0  0  0  0  0  0  0  0  0  0  0
   10.8267   16.6283   22.9885 H   0  0  0  0  0  0  0  0  0  0  0  0
   11.3328   16.4509   21.2906 H   0  0  0  0  0  0  0  0  0  0  0  0
   12.0847   12.9619   21.5821 H   0  0  0  0  0  0  0  0  0  0  0  0
   12.1620   13.2916   23.3332 H   0  0  0  0  0  0  0  0  0  0  0  0
    6.3471   11.2112   23.1876 H   0  0  0  0  0  0  0  0  0  0  0  0
    9.4907   11.7688   26.0839 H   0  0  0  0  0  0  0  0  0  0  0  0
   10.2982    9.6764   22.4023 H   0  0  0  0  0  0  0  0  0  0  0  0
  1 15  1  0  0  0  0
  1 16  1  0  0  0  0
  1 17  2  0  0  0  0
  2  3  1  0  0  0  0
  2 10  1  0  0  0  0
  3 11  1  0  0  0  0
  4 12  1  0  0  0  0
  4 13  1  0  0  0  0
  5 12  1  0  0  0  0
  5 14  1  0  0  0  0
  6 13  1  0  0  0  0
  6 14  1  0  0  0  0
  7 12  1  0  0  0  0
  7 15  1  0  0  0  0
  8 13  1  0  0  0  0
  8 15  1  0  0  0  0
  9 14  1  0  0  0  0
  9 15  1  0  0  0  0
 10 16  1  0  0  0  0
 11 16  1  0  0  0  0
  2 18  1  0  0  0  0
  2 19  1  0  0  0  0
  3 20  1  0  0  0  0
  3 21  1  0  0  0  0
  4 22  1  0  0  0  0
  4 23  1  0  0  0  0
  5 24  1  0  0  0  0
  5 25  1  0  0  0  0
  6 26  1  0  0  0  0
  6 27  1  0  0  0  0
  7 28  1  0  0  0  0
  7 29  1  0  0  0  0
  8 30  1  0  0  0  0
  8 31  1  0  0  0  0
  9 32  1  0  0  0  0
  9 33  1  0  0  0  0
 10 34  1  0  0  0  0
 10 35  1  0  0  0  0
 11 36  1  0  0  0  0
 11 37  1  0  0  0  0
 12 38  1  0  0  0  0
 13 39  1  0  0  0  0
 14 40  1  0  0  0  0
M  END
> <id>
EN300-13259113

> <smiles>
O=C(N1CCCC1)C2(CC3CC4CC(C3)C2)C4

> <IUPAC Name>
1-(adamantane-1-carbonyl)pyrrolidine

> <CAS>
22508-51-6

> <URL>
https://www.enaminestore.com/catalog/EN300-13259113

> <ROCS_ShapeQuery>
x0446_0A_x1080_0A_x0929_0A_x0812_0A_x0719_0A_x1140_0A_x0528_0A_x0310_0A

> <ROCS_TanimotoCombo>
0.414 

> <ROCS_ShapeTanimoto>
0.228 

> <ROCS_ColorTanimoto>
0.186 

> <ROCS_RefTversky>
0.207 

> <ROCS_RefColorTversky>
0.200 

> <ROCS_RefTverskyCombo>
0.407 

> <ROCS_FitTversky>
1.802 

> <ROCS_FitColorTversky>
0.721 

> <ROCS_FitTverskyCombo>
2.523 

> <ROCS_ColorScore>
-7.145

> <ROCS_Overlap>
2443.424

> <ROCS_Rank>
352                 

$$$$
untitled-dbase-21631_1
  -OEChem-02082415563D

 42 45  0     1  0  0  0  0  0999 V2000
   10.3218   14.6127   21.6292 C   0  0  0  0  0  0  0  0  0  0  0  0
   11.8137   14.2788   23.4999 C   0  0  0  0  0  0  0  0  0  0  0  0
   11.0452   15.7448   21.2542 C   0  0  0  0  0  0  0  0  0  0  0  0
   12.5372   15.4109   23.1250 C   0  0  0  0  0  0  0  0  0  0  0  0
   10.7060   13.8797   22.7521 C   0  0  0  0  0  0  0  0  0  0  0  0
   12.1529   16.1439   22.0021 C   0  0  0  0  0  0  0  0  0  0  0  0
    6.2056   12.1984   24.2411 C   0  0  0  0  0  0  0  0  0  0  0  0
    9.7083    9.7176   23.8102 C   0  0  0  0  0  0  0  0  0  0  0  0
    9.8728   11.5172   22.0752 C   0  0  0  0  0  0  0  0  0  0  0  0
   10.5317   12.0008   24.4464 C   0  0  0  0  0  0  0  0  0  0  0  0
    7.6242   10.7243   22.8456 C   0  0  0  0  0  0  0  0  0  0  0  0
    8.2773   11.2169   25.2185 C   0  0  0  0  0  0  0  0  0  0  0  0
    8.4324   13.0188   23.4741 C   0  0  0  0  0  0  0  0  0  0  0  0
    9.0657   10.2934   22.5408 C   0  0  2  0  0  0  0  0  0  0  0  0
    9.7202   10.7810   24.9169 C   0  0  1  0  0  0  0  0  0  0  0  0
    9.9094   12.6321   23.1659 C   0  0  0  0  0  0  0  0  0  0  0  0
    7.6231   11.7949   23.9493 C   0  0  0  0  0  0  0  0  0  0  0  0
   12.9269   17.3536   21.5995 C   0  0  0  0  0  0  0  0  0  0  0  0
    5.6536   12.0881   25.3258 O   0  0  0  0  0  0  0  0  0  0  0  0
    5.6134   12.7031   23.1313 O   0  0  0  0  0  0  0  0  0  0  0  0
    9.4597   14.3094   21.0409 H   0  0  0  0  0  0  0  0  0  0  0  0
   12.1207   13.7128   24.3756 H   0  0  0  0  0  0  0  0  0  0  0  0
   10.7395   16.3088   20.3771 H   0  0  0  0  0  0  0  0  0  0  0  0
   13.3989   15.7151   23.7133 H   0  0  0  0  0  0  0  0  0  0  0  0
    9.1517    8.8337   24.1449 H   0  0  0  0  0  0  0  0  0  0  0  0
   10.7321    9.3870   23.5962 H   0  0  0  0  0  0  0  0  0  0  0  0
   10.8961   11.2080   21.8217 H   0  0  0  0  0  0  0  0  0  0  0  0
    9.4367   11.9144   21.1484 H   0  0  0  0  0  0  0  0  0  0  0  0
   10.5713   12.7482   25.2502 H   0  0  0  0  0  0  0  0  0  0  0  0
   11.5708   11.7018   24.2536 H   0  0  0  0  0  0  0  0  0  0  0  0
    7.1480   11.1116   21.9351 H   0  0  0  0  0  0  0  0  0  0  0  0
    7.0304    9.8539   23.1548 H   0  0  0  0  0  0  0  0  0  0  0  0
    7.7010   10.3596   25.5905 H   0  0  0  0  0  0  0  0  0  0  0  0
    8.2713   11.9623   26.0247 H   0  0  0  0  0  0  0  0  0  0  0  0
    8.4042   13.8071   24.2400 H   0  0  0  0  0  0  0  0  0  0  0  0
    7.9656   13.4589   22.5812 H   0  0  0  0  0  0  0  0  0  0  0  0
    9.0633    9.5328   21.7519 H   0  0  0  0  0  0  0  0  0  0  0  0
   10.1758   10.3648   25.8225 H   0  0  0  0  0  0  0  0  0  0  0  0
   12.5173   18.2480   22.0847 H   0  0  0  0  0  0  0  0  0  0  0  0
   13.9847   17.2605   21.8776 H   0  0  0  0  0  0  0  0  0  0  0  0
   12.8963   17.5025   20.5123 H   0  0  0  0  0  0  0  0  0  0  0  0
    4.6851   12.9711   23.3010 H   0  0  0  0  0  0  0  0  0  0  0  0
  1  3  2  0  0  0  0
  1  5  1  0  0  0  0
  2  4  1  0  0  0  0
  2  5  2  0  0  0  0
  3  6  1  0  0  0  0
  4  6  2  0  0  0  0
  5 16  1  0  0  0  0
  6 18  1  0  0  0  0
  7 17  1  0  0  0  0
  7 19  2  0  0  0  0
  7 20  1  0  0  0  0
  8 14  1  0  0  0  0
  8 15  1  0  0  0  0
  9 14  1  0  0  0  0
  9 16  1  0  0  0  0
 10 15  1  0  0  0  0
 10 16  1  0  0  0  0
 11 14  1  0  0  0  0
 11 17  1  0  0  0  0
 12 15  1  0  0  0  0
 12 17  1  0  0  0  0
 13 16  1  0  0  0  0
 13 17  1  0  0  0  0
  1 21  1  0  0  0  0
  2 22  1  0  0  0  0
  3 23  1  0  0  0  0
  4 24  1  0  0  0  0
  8 25  1  0  0  0  0
  8 26  1  0  0  0  0
  9 27  1  0  0  0  0
  9 28  1  0  0  0  0
 10 29  1  0  0  0  0
 10 30  1  0  0  0  0
 11 31  1  0  0  0  0
 11 32  1  0  0  0  0
 12 33  1  0  0  0  0
 12 34  1  0  0  0  0
 13 35  1  0  0  0  0
 13 36  1  0  0  0  0
 14 37  1  0  0  0  0
 15 38  1  0  0  0  0
 18 39  1  0  0  0  0
 18 40  1  0  0  0  0
 18 41  1  0  0  0  0
 20 42  1  0  0  0  0
M  END
> <id>
EN300-00145

> <smiles>
CC=1C=CC(=CC1)C2(CC3CC4CC(C3)(C2)C(=O)O)C4

> <MDLNUMBER>
MFCD00267983

> <IUPAC Name>
3-(4-methylphenyl)adamantane-1-carboxylic acid

> <CAS>
56531-69-2

> <Purity>
95

> <URL>
https://www.enaminestore.com/catalog/EN300-00145

> <MP>
175-177

> <ROCS_ShapeQuery>
x0446_0A_x1080_0A_x0929_0A_x0812_0A_x0719_0A_x1140_0A_x0528_0A_x0310_0A

> <ROCS_TanimotoCombo>
0.414 

> <ROCS_ShapeTanimoto>
0.252 

> <ROCS_ColorTanimoto>
0.161 

> <ROCS_RefTversky>
0.227 

> <ROCS_RefColorTversky>
0.185 

> <ROCS_RefTverskyCombo>
0.411 

> <ROCS_FitTversky>
1.799 

> <ROCS_FitColorTversky>
0.561 

> <ROCS_FitTverskyCombo>
2.361 

> <ROCS_ColorScore>
-6.624

> <ROCS_Overlap>
2677.451

> <ROCS_Rank>
353                 

$$$$
untitled-dbase-407985_2
  -OEChem-02082415563D

 31 33  0     0  0  0  0  0  0999 V2000
    8.1779   14.7473   22.4841 C   0  0  0  0  0  0  0  0  0  0  0  0
    8.9654   13.6237   22.5020 C   0  0  0  0  0  0  0  0  0  0  0  0
    6.9504   14.9552   23.1867 C   0  0  0  0  0  0  0  0  0  0  0  0
    9.9558   10.3519   24.0596 C   0  0  0  0  0  0  0  0  0  0  0  0
    7.4670   10.5830   24.1215 C   0  0  0  0  0  0  0  0  0  0  0  0
   10.0245   11.3443   22.8897 C   0  0  0  0  0  0  0  0  0  0  0  0
    7.5232   11.5781   22.9532 C   0  0  0  0  0  0  0  0  0  0  0  0
    8.9048   12.3794   24.7218 C   0  0  0  0  0  0  0  0  0  0  0  0
    8.7683   10.8674   24.8847 C   0  0  0  0  0  0  0  0  0  0  0  0
    8.8617   12.3304   23.1818 C   0  0  0  0  0  0  0  0  0  0  0  0
    4.8348   16.0994   23.1268 C   0  0  0  0  0  0  0  0  0  0  0  0
    8.7415   15.6904   21.6702 N   0  0  0  0  0  0  0  0  0  0  0  0
    9.8655   15.1836   21.1755 N   0  0  0  0  0  0  0  0  0  0  0  0
    9.9978   13.9443   21.6753 N   0  0  0  0  0  0  0  0  0  0  0  0
    6.6473   14.4369   24.2857 O   0  0  0  0  0  0  0  0  0  0  0  0
    6.0996   15.8103   22.5215 O   0  0  0  0  0  0  0  0  0  0  0  0
    9.8159    9.3218   23.7171 H   0  0  0  0  0  0  0  0  0  0  0  0
   10.8824   10.3944   24.6430 H   0  0  0  0  0  0  0  0  0  0  0  0
    6.5940   10.7916   24.7504 H   0  0  0  0  0  0  0  0  0  0  0  0
    7.3988    9.5467   23.7757 H   0  0  0  0  0  0  0  0  0  0  0  0
   10.9956   11.8545   22.8858 H   0  0  0  0  0  0  0  0  0  0  0  0
    9.9103   10.8427   21.9221 H   0  0  0  0  0  0  0  0  0  0  0  0
    7.4934   11.0698   21.9832 H   0  0  0  0  0  0  0  0  0  0  0  0
    6.6643   12.2591   22.9969 H   0  0  0  0  0  0  0  0  0  0  0  0
    8.0710   12.9399   25.1608 H   0  0  0  0  0  0  0  0  0  0  0  0
    9.8478   12.7745   25.1166 H   0  0  0  0  0  0  0  0  0  0  0  0
    8.7596   10.5030   25.9138 H   0  0  0  0  0  0  0  0  0  0  0  0
    4.2732   16.7862   22.4889 H   0  0  0  0  0  0  0  0  0  0  0  0
    4.9947   16.5473   24.1108 H   0  0  0  0  0  0  0  0  0  0  0  0
    4.2735   15.1687   23.2391 H   0  0  0  0  0  0  0  0  0  0  0  0
   10.8038   13.3906   21.4107 H   0  0  0  0  0  0  0  0  0  0  0  0
  1  2  2  0  0  0  0
  1  3  1  0  0  0  0
  1 12  1  0  0  0  0
  2 10  1  0  0  0  0
  2 14  1  0  0  0  0
  3 15  2  0  0  0  0
  3 16  1  0  0  0  0
  4  6  1  0  0  0  0
  4  9  1  0  0  0  0
  5  7  1  0  0  0  0
  5  9  1  0  0  0  0
  6 10  1  0  0  0  0
  7 10  1  0  0  0  0
  8  9  1  0  0  0  0
  8 10  1  0  0  0  0
 11 16  1  0  0  0  0
 12 13  2  0  0  0  0
 13 14  1  0  0  0  0
  4 17  1  0  0  0  0
  4 18  1  0  0  0  0
  5 19  1  0  0  0  0
  5 20  1  0  0  0  0
  6 21  1  0  0  0  0
  6 22  1  0  0  0  0
  7 23  1  0  0  0  0
  7 24  1  0  0  0  0
  8 25  1  0  0  0  0
  8 26  1  0  0  0  0
  9 27  1  0  0  0  0
 11 28  1  0  0  0  0
 11 29  1  0  0  0  0
 11 30  1  0  0  0  0
 14 31  1  0  0  0  0
M  END
> <id>
EN300-786200

> <smiles>
COC(=O)C=1N=NNC1C2(CCC3CC2)C3

> <IUPAC Name>
methyl 5-{bicyclo[2.2.1]heptan-1-yl}-1H-1,2,3-triazole-4-carboxylate

> <CAS>
2137614-98-1

> <URL>
https://www.enaminestore.com/catalog/EN300-786200

> <ROCS_ShapeQuery>
x0446_0A_x1080_0A_x0929_0A_x0812_0A_x0719_0A_x1140_0A_x0528_0A_x0310_0A

> <ROCS_TanimotoCombo>
0.414 

> <ROCS_ShapeTanimoto>
0.205 

> <ROCS_ColorTanimoto>
0.208 

> <ROCS_RefTversky>
0.189 

> <ROCS_RefColorTversky>
0.234 

> <ROCS_RefTverskyCombo>
0.424 

> <ROCS_FitTversky>
1.690 

> <ROCS_FitColorTversky>
0.651 

> <ROCS_FitTverskyCombo>
2.341 

> <ROCS_ColorScore>
-8.420

> <ROCS_Overlap>
2234.991

> <ROCS_Rank>
354                 

$$$$
untitled-dbase-294885_0
  -OEChem-02082415563D

 34 37  0     1  0  0  0  0  0999 V2000
   12.9270   18.4172   22.4433 C   0  0  0  0  0  0  0  0  0  0  0  0
   14.1118   17.6710   22.6162 C   0  0  0  0  0  0  0  0  0  0  0  0
   11.7139   17.7864   22.1520 C   0  0  0  0  0  0  0  0  0  0  0  0
   14.1095   16.2777   22.5015 C   0  0  0  0  0  0  0  0  0  0  0  0
    5.9312   12.3496   24.0570 C   0  0  0  0  0  0  0  0  0  0  0  0
    6.7308   11.4771   25.8270 C   0  0  0  0  0  0  0  0  0  0  0  0
   11.7323   16.4116   22.0463 C   0  0  0  0  0  0  0  0  0  0  0  0
   12.9024   15.6747   22.2169 C   0  0  0  0  0  0  0  0  0  0  0  0
    7.1009   11.7374   23.6740 C   0  0  0  0  0  0  0  0  0  0  0  0
   10.6456   15.4740   21.7457 C   0  0  0  0  0  0  0  0  0  0  0  0
   12.5775   14.2574   22.0271 C   0  0  0  0  0  0  0  0  0  0  0  0
    8.8150   10.4697   24.9326 C   0  0  0  0  0  0  0  0  0  0  0  0
   10.0334   12.5775   22.8286 C   0  0  0  0  0  0  0  0  0  0  0  0
    7.7840   11.5641   22.3709 C   0  0  0  0  0  0  0  0  0  0  0  0
    9.2694   11.3096   22.5912 C   0  0  2  0  0  0  0  0  0  0  0  0
    5.7083   12.1840   25.3982 N   0  0  0  0  0  0  0  0  0  0  0  0
    7.6259   11.1903   24.8230 N   0  0  0  0  0  0  0  0  0  0  0  0
    9.5386   10.4752   23.7568 N   0  0  0  0  0  0  0  0  0  0  0  0
   11.2364   14.2507   21.8029 N   0  0  0  0  0  0  0  0  0  0  0  0
    9.4935   15.7905   21.5232 O   0  0  0  0  0  0  0  0  0  0  0  0
   13.3777   13.3448   22.0886 O   0  0  0  0  0  0  0  0  0  0  0  0
    9.0959    9.9227   25.9880 O   0  0  0  0  0  0  0  0  0  0  0  0
   10.1904   13.0857   23.9309 O   0  0  0  0  0  0  0  0  0  0  0  0
   10.5060   13.0532   21.6404 O   0  0  0  0  0  0  0  0  0  0  0  0
   12.9608   19.4996   22.5374 H   0  0  0  0  0  0  0  0  0  0  0  0
   15.0401   18.1901   22.8407 H   0  0  0  0  0  0  0  0  0  0  0  0
   10.8050   18.3607   22.0169 H   0  0  0  0  0  0  0  0  0  0  0  0
   15.0205   15.7059   22.6317 H   0  0  0  0  0  0  0  0  0  0  0  0
    5.2331   12.8894   23.4338 H   0  0  0  0  0  0  0  0  0  0  0  0
    6.8821   11.1528   26.8478 H   0  0  0  0  0  0  0  0  0  0  0  0
    7.3366   10.7066   21.8535 H   0  0  0  0  0  0  0  0  0  0  0  0
    7.6281   12.4484   21.7422 H   0  0  0  0  0  0  0  0  0  0  0  0
    9.7117   10.8187   21.7180 H   0  0  0  0  0  0  0  0  0  0  0  0
   10.3297    9.8409   23.6981 H   0  0  0  0  0  0  0  0  0  0  0  0
  1  2  1  0  0  0  0
  1  3  2  0  0  0  0
  2  4  2  0  0  0  0
  3  7  1  0  0  0  0
  4  8  1  0  0  0  0
  5  9  2  0  0  0  0
  5 16  1  0  0  0  0
  6 16  2  0  0  0  0
  6 17  1  0  0  0  0
  7  8  2  0  0  0  0
  7 10  1  0  0  0  0
  8 11  1  0  0  0  0
  9 14  1  0  0  0  0
  9 17  1  0  0  0  0
 10 19  1  0  0  0  0
 10 20  2  0  0  0  0
 11 19  1  0  0  0  0
 11 21  2  0  0  0  0
 12 17  1  0  0  0  0
 12 18  1  0  0  0  0
 12 22  2  0  0  0  0
 13 15  1  6  0  0  0
 13 23  2  0  0  0  0
 13 24  1  0  0  0  0
 14 15  1  0  0  0  0
 15 18  1  0  0  0  0
 19 24  1  0  0  0  0
  1 25  1  0  0  0  0
  2 26  1  0  0  0  0
  3 27  1  0  0  0  0
  4 28  1  0  0  0  0
  5 29  1  0  0  0  0
  6 30  1  0  0  0  0
 14 31  1  0  0  0  0
 14 32  1  0  0  0  0
 15 33  1  0  0  0  0
 18 34  1  0  0  0  0
M  END
> <id>
EN300-6526231

> <smiles>
O=C(ON1C(=O)C=2C=CC=CC2C1=O)[C@@H]3CC4=CN=CN4C(=O)N3

> <IUPAC Name>
1,3-dioxo-2,3-dihydro-1H-isoindol-2-yl (7S)-5-oxo-5H,6H,7H,8H-imidazo[1,5-c]pyrimidine-7-carboxylate

> <CAS>
2248198-20-9

> <URL>
https://www.enaminestore.com/catalog/EN300-6526231

> <ROCS_ShapeQuery>
x0446_0A_x1080_0A_x0929_0A_x0812_0A_x0719_0A_x1140_0A_x0528_0A_x0310_0A

> <ROCS_TanimotoCombo>
0.413 

> <ROCS_ShapeTanimoto>
0.235 

> <ROCS_ColorTanimoto>
0.178 

> <ROCS_RefTversky>
0.218 

> <ROCS_RefColorTversky>
0.203 

> <ROCS_RefTverskyCombo>
0.421 

> <ROCS_FitTversky>
1.500 

> <ROCS_FitColorTversky>
0.591 

> <ROCS_FitTverskyCombo>
2.091 

> <ROCS_ColorScore>
-7.292

> <ROCS_Overlap>
2579.810

> <ROCS_Rank>
355                 

$$$$
untitled-dbase-363763_3
  -OEChem-02082415563D

 32 34  0     0  0  0  0  0  0999 V2000
    5.8490   13.2693   24.8582 C   0  0  0  0  0  0  0  0  0  0  0  0
    5.3962   11.9579   24.7667 C   0  0  0  0  0  0  0  0  0  0  0  0
    7.1906   13.5506   24.6196 C   0  0  0  0  0  0  0  0  0  0  0  0
   13.0405   14.5370   22.1773 C   0  0  0  0  0  0  0  0  0  0  0  0
   11.1582   15.3935   20.9281 C   0  0  0  0  0  0  0  0  0  0  0  0
    6.2853   10.9308   24.4366 C   0  0  0  0  0  0  0  0  0  0  0  0
   12.1810   14.1446   23.2034 C   0  0  0  0  0  0  0  0  0  0  0  0
   10.2987   15.0011   21.9542 C   0  0  0  0  0  0  0  0  0  0  0  0
    8.0783   12.5122   24.2882 C   0  0  0  0  0  0  0  0  0  0  0  0
   12.5291   15.1615   21.0397 C   0  0  0  0  0  0  0  0  0  0  0  0
    7.6330   11.1837   24.1925 C   0  0  0  0  0  0  0  0  0  0  0  0
   10.8101   14.3766   23.0918 C   0  0  0  0  0  0  0  0  0  0  0  0
    9.4308   12.7256   24.0374 C   0  0  0  0  0  0  0  0  0  0  0  0
    9.7606   10.5191   23.6564 C   0  0  0  0  0  0  0  0  0  0  0  0
   13.4251   15.5705   19.9697 C   0  0  0  0  0  0  0  0  0  0  0  0
   10.6866    9.4035   23.3071 C   0  0  0  0  0  0  0  0  0  0  0  0
    8.4733   10.1830   23.8761 N   0  0  0  0  0  0  0  0  0  0  0  0
   10.2993   11.7475   23.7186 N   0  0  0  0  0  0  0  0  0  0  0  0
   13.0346   16.1262   18.9392 O   0  0  0  0  0  0  0  0  0  0  0  0
    9.9593   13.9886   24.1071 O   0  0  0  0  0  0  0  0  0  0  0  0
   10.0785    8.1811   23.2610 F   0  0  0  0  0  0  0  0  0  0  0  0
   11.2838    9.5500   22.0874 F   0  0  0  0  0  0  0  0  0  0  0  0
   11.7090    9.2700   24.2015 F   0  0  0  0  0  0  0  0  0  0  0  0
    5.1607   14.0684   25.1160 H   0  0  0  0  0  0  0  0  0  0  0  0
    4.3506   11.7292   24.9514 H   0  0  0  0  0  0  0  0  0  0  0  0
    7.5294   14.5805   24.6952 H   0  0  0  0  0  0  0  0  0  0  0  0
   14.1069   14.3507   22.2752 H   0  0  0  0  0  0  0  0  0  0  0  0
   10.7498   15.8791   20.0455 H   0  0  0  0  0  0  0  0  0  0  0  0
    5.9062    9.9126   24.3722 H   0  0  0  0  0  0  0  0  0  0  0  0
   12.5854   13.6588   24.0872 H   0  0  0  0  0  0  0  0  0  0  0  0
    9.2317   15.1847   21.8618 H   0  0  0  0  0  0  0  0  0  0  0  0
   14.5094   15.3644   20.1036 H   0  0  0  0  0  0  0  0  0  0  0  0
  1  2  1  0  0  0  0
  1  3  2  0  0  0  0
  2  6  2  0  0  0  0
  3  9  1  0  0  0  0
  4  7  2  0  0  0  0
  4 10  1  0  0  0  0
  5  8  1  0  0  0  0
  5 10  2  0  0  0  0
  6 11  1  0  0  0  0
  7 12  1  0  0  0  0
  8 12  2  0  0  0  0
  9 11  2  0  0  0  0
  9 13  1  0  0  0  0
 10 15  1  0  0  0  0
 11 17  1  0  0  0  0
 12 20  1  0  0  0  0
 13 18  2  0  0  0  0
 13 20  1  0  0  0  0
 14 16  1  0  0  0  0
 14 17  2  0  0  0  0
 14 18  1  0  0  0  0
 15 19  2  0  0  0  0
 16 21  1  0  0  0  0
 16 22  1  0  0  0  0
 16 23  1  0  0  0  0
  1 24  1  0  0  0  0
  2 25  1  0  0  0  0
  3 26  1  0  0  0  0
  4 27  1  0  0  0  0
  5 28  1  0  0  0  0
  6 29  1  0  0  0  0
  7 30  1  0  0  0  0
  8 31  1  0  0  0  0
 15 32  1  0  0  0  0
M  END
> <id>
EN300-26585755

> <smiles>
FC(F)(F)C=1N=C(OC=2C=CC(C=O)=CC2)C=3C=CC=CC3N1

> <IUPAC Name>
4-{[2-(trifluoromethyl)quinazolin-4-yl]oxy}benzaldehyde

> <CAS>
1014238-73-3

> <URL>
https://www.enaminestore.com/catalog/EN300-26585755

> <ROCS_ShapeQuery>
x0446_0A_x1080_0A_x0929_0A_x0812_0A_x0719_0A_x1140_0A_x0528_0A_x0310_0A

> <ROCS_TanimotoCombo>
0.413 

> <ROCS_ShapeTanimoto>
0.255 

> <ROCS_ColorTanimoto>
0.159 

> <ROCS_RefTversky>
0.231 

> <ROCS_RefColorTversky>
0.170 

> <ROCS_RefTverskyCombo>
0.401 

> <ROCS_FitTversky>
1.659 

> <ROCS_FitColorTversky>
0.710 

> <ROCS_FitTverskyCombo>
2.369 

> <ROCS_ColorScore>
-6.059

> <ROCS_Overlap>
2731.769

> <ROCS_Rank>
356                 

$$$$
untitled-dbase-452632_5
  -OEChem-02082415563D

 41 43  0     1  0  0  0  0  0999 V2000
   11.1673   15.1370   23.3224 C   0  0  0  0  0  0  0  0  0  0  0  0
   12.4509   15.6822   23.3502 C   0  0  0  0  0  0  0  0  0  0  0  0
   12.6949   15.2281   20.9898 C   0  0  0  0  0  0  0  0  0  0  0  0
   10.6475   14.6372   22.1283 C   0  0  0  0  0  0  0  0  0  0  0  0
   13.2146   15.7278   22.1839 C   0  0  0  0  0  0  0  0  0  0  0  0
   11.4113   14.6828   20.9620 C   0  0  0  0  0  0  0  0  0  0  0  0
    6.4028   12.5583   27.9654 C   0  0  0  0  0  0  0  0  0  0  0  0
    7.2010   12.5980   26.8964 C   0  0  0  0  0  0  0  0  0  0  0  0
    6.7926   11.8781   25.6753 C   0  0  0  0  0  0  0  0  0  0  0  0
    9.7083   10.1374   24.4109 C   0  0  0  0  0  0  0  0  0  0  0  0
    8.5872    9.7333   23.4366 C   0  0  0  0  0  0  0  0  0  0  0  0
    9.7128   12.6871   24.1941 C   0  0  0  0  0  0  0  0  0  0  0  0
    7.8332   12.0103   22.5435 C   0  0  0  0  0  0  0  0  0  0  0  0
    9.2458   11.4680   25.0177 C   0  0  1  0  0  0  0  0  0  0  0  0
    7.5563   10.8606   23.5368 C   0  0  2  0  0  0  0  0  0  0  0  0
    9.2397   12.6468   22.7139 C   0  0  0  0  0  0  0  0  0  0  0  0
    9.2647   14.0505   22.1021 C   0  0  0  0  0  0  0  0  0  0  0  0
    7.7978   11.3917   24.8675 N   0  0  0  0  0  0  0  0  0  0  0  0
    5.5901   11.7517   25.4441 O   0  0  0  0  0  0  0  0  0  0  0  0
   10.1651   11.8574   21.9551 O   0  0  0  0  0  0  0  0  0  0  0  0
   14.4469   16.2521   22.2104 F   0  0  0  0  0  0  0  0  0  0  0  0
   10.9205   14.2048   19.8100 F   0  0  0  0  0  0  0  0  0  0  0  0
   10.5794   15.1062   24.2359 H   0  0  0  0  0  0  0  0  0  0  0  0
   12.8557   16.0720   24.2794 H   0  0  0  0  0  0  0  0  0  0  0  0
   13.2894   15.2634   20.0818 H   0  0  0  0  0  0  0  0  0  0  0  0
    6.6488   13.0673   28.8914 H   0  0  0  0  0  0  0  0  0  0  0  0
    5.4710   12.0039   27.9286 H   0  0  0  0  0  0  0  0  0  0  0  0
    8.1375   13.1402   26.8944 H   0  0  0  0  0  0  0  0  0  0  0  0
    9.7901    9.3753   25.1955 H   0  0  0  0  0  0  0  0  0  0  0  0
   10.6831   10.2042   23.9188 H   0  0  0  0  0  0  0  0  0  0  0  0
    8.9578    9.5782   22.4190 H   0  0  0  0  0  0  0  0  0  0  0  0
    8.1450    8.7875   23.7723 H   0  0  0  0  0  0  0  0  0  0  0  0
    9.3221   13.5910   24.6797 H   0  0  0  0  0  0  0  0  0  0  0  0
   10.8078   12.7467   24.2350 H   0  0  0  0  0  0  0  0  0  0  0  0
    7.7096   11.6333   21.5206 H   0  0  0  0  0  0  0  0  0  0  0  0
    7.0638   12.7786   22.6973 H   0  0  0  0  0  0  0  0  0  0  0  0
    9.5638   11.5597   26.0585 H   0  0  0  0  0  0  0  0  0  0  0  0
    6.5302   10.4971   23.4213 H   0  0  0  0  0  0  0  0  0  0  0  0
    8.5719   14.6945   22.6504 H   0  0  0  0  0  0  0  0  0  0  0  0
    8.8957   14.0017   21.0741 H   0  0  0  0  0  0  0  0  0  0  0  0
   11.0234   12.2953   22.0405 H   0  0  0  0  0  0  0  0  0  0  0  0
  1  2  2  0  0  0  0
  1  4  1  0  0  0  0
  2  5  1  0  0  0  0
  3  5  2  0  0  0  0
  3  6  1  0  0  0  0
  4  6  2  0  0  0  0
  4 17  1  0  0  0  0
  5 21  1  0  0  0  0
  6 22  1  0  0  0  0
  7  8  2  0  0  0  0
  8  9  1  0  0  0  0
  9 18  1  0  0  0  0
  9 19  2  0  0  0  0
 10 11  1  0  0  0  0
 10 14  1  0  0  0  0
 11 15  1  0  0  0  0
 12 14  1  0  0  0  0
 12 16  1  0  0  0  0
 13 15  1  0  0  0  0
 13 16  1  0  0  0  0
 14 18  1  0  0  0  0
 15 18  1  0  0  0  0
 16 17  1  0  0  0  0
 16 20  1  0  0  0  0
  1 23  1  0  0  0  0
  2 24  1  0  0  0  0
  3 25  1  0  0  0  0
  7 26  1  0  0  0  0
  7 27  1  0  0  0  0
  8 28  1  0  0  0  0
 10 29  1  0  0  0  0
 10 30  1  0  0  0  0
 11 31  1  0  0  0  0
 11 32  1  0  0  0  0
 12 33  1  0  0  0  0
 12 34  1  0  0  0  0
 13 35  1  0  0  0  0
 13 36  1  0  0  0  0
 14 37  1  0  0  0  0
 15 38  1  0  0  0  0
 17 39  1  0  0  0  0
 17 40  1  0  0  0  0
 20 41  1  0  0  0  0
M  END
> <id>
EN300-7521949

> <smiles>
OC1(CC=2C=CC(F)=CC2F)CC3CCC(C1)N3C(=O)C=C

> <IUPAC Name>
1-{3-[(2,4-difluorophenyl)methyl]-3-hydroxy-8-azabicyclo[3.2.1]octan-8-yl}prop-2-en-1-one

> <CAS>
2093805-83-3

> <URL>
https://www.enaminestore.com/catalog/EN300-7521949

> <ROCS_ShapeQuery>
x0446_0A_x1080_0A_x0929_0A_x0812_0A_x0719_0A_x1140_0A_x0528_0A_x0310_0A

> <ROCS_TanimotoCombo>
0.413 

> <ROCS_ShapeTanimoto>
0.225 

> <ROCS_ColorTanimoto>
0.188 

> <ROCS_RefTversky>
0.208 

> <ROCS_RefColorTversky>
0.212 

> <ROCS_RefTverskyCombo>
0.420 

> <ROCS_FitTversky>
1.570 

> <ROCS_FitColorTversky>
0.627 

> <ROCS_FitTverskyCombo>
2.197 

> <ROCS_ColorScore>
-7.609

> <ROCS_Overlap>
2456.969

> <ROCS_Rank>
357                 

$$$$
untitled-dbase-190384_2
  -OEChem-02082415563D

 27 28  0     0  0  0  0  0  0999 V2000
    6.3969   13.3544   25.2257 C   0  0  0  0  0  0  0  0  0  0  0  0
    5.7593   12.1011   25.4893 C   0  0  0  0  0  0  0  0  0  0  0  0
    7.6373   13.4826   24.5699 C   0  0  0  0  0  0  0  0  0  0  0  0
    6.3028   10.8508   25.1210 C   0  0  0  0  0  0  0  0  0  0  0  0
    8.1453   12.2377   24.2210 C   0  0  0  0  0  0  0  0  0  0  0  0
    7.5430   10.9486   24.4634 C   0  0  0  0  0  0  0  0  0  0  0  0
    9.3276   12.0124   23.5747 C   0  0  0  0  0  0  0  0  0  0  0  0
    8.8050   14.0814   21.4180 C   0  0  0  0  0  0  0  0  0  0  0  0
   10.4635    9.9004   22.8368 C   0  0  0  0  0  0  0  0  0  0  0  0
   10.1149   13.3477   21.6104 C   0  0  0  0  0  0  0  0  0  0  0  0
   10.3781   12.9162   23.0688 C   0  0  0  0  0  0  0  0  0  0  0  0
    8.3474    9.9887   23.9737 N   0  0  0  0  0  0  0  0  0  0  0  0
    9.3966   10.6551   23.4540 N   0  0  0  0  0  0  0  0  0  0  0  0
    7.7257   13.5608   21.1738 O   0  0  0  0  0  0  0  0  0  0  0  0
    8.9663   15.4244   21.5507 O   0  0  0  0  0  0  0  0  0  0  0  0
   10.5077   14.0692   23.8132 F   0  0  0  0  0  0  0  0  0  0  0  0
   11.6382   12.3579   23.1025 F   0  0  0  0  0  0  0  0  0  0  0  0
    5.8903   14.2619   25.5532 H   0  0  0  0  0  0  0  0  0  0  0  0
    4.7990   12.1151   26.0041 H   0  0  0  0  0  0  0  0  0  0  0  0
    8.1057   14.4379   24.3786 H   0  0  0  0  0  0  0  0  0  0  0  0
    5.8037    9.9140   25.3301 H   0  0  0  0  0  0  0  0  0  0  0  0
   11.2022    9.6678   23.6083 H   0  0  0  0  0  0  0  0  0  0  0  0
   10.0574    8.9807   22.4066 H   0  0  0  0  0  0  0  0  0  0  0  0
   10.9159   10.4987   22.0409 H   0  0  0  0  0  0  0  0  0  0  0  0
   10.9190   14.0158   21.2802 H   0  0  0  0  0  0  0  0  0  0  0  0
   10.0927   12.4592   20.9686 H   0  0  0  0  0  0  0  0  0  0  0  0
    8.1476   15.9530   21.4357 H   0  0  0  0  0  0  0  0  0  0  0  0
  1  2  1  0  0  0  0
  1  3  2  0  0  0  0
  2  4  2  0  0  0  0
  3  5  1  0  0  0  0
  4  6  1  0  0  0  0
  5  6  1  0  0  0  0
  5  7  2  0  0  0  0
  6 12  2  0  0  0  0
  7 11  1  0  0  0  0
  7 13  1  0  0  0  0
  8 10  1  0  0  0  0
  8 14  2  0  0  0  0
  8 15  1  0  0  0  0
  9 13  1  0  0  0  0
 10 11  1  0  0  0  0
 11 16  1  0  0  0  0
 11 17  1  0  0  0  0
 12 13  1  0  0  0  0
  1 18  1  0  0  0  0
  2 19  1  0  0  0  0
  3 20  1  0  0  0  0
  4 21  1  0  0  0  0
  9 22  1  0  0  0  0
  9 23  1  0  0  0  0
  9 24  1  0  0  0  0
 10 25  1  0  0  0  0
 10 26  1  0  0  0  0
 15 27  1  0  0  0  0
M  END
> <id>
EN300-1945321

> <smiles>
CN1N=C2C=CC=CC2=C1C(F)(F)CC(=O)O

> <IUPAC Name>
3,3-difluoro-3-(2-methyl-2H-indazol-3-yl)propanoic acid

> <CAS>
2228182-89-4

> <URL>
https://www.enaminestore.com/catalog/EN300-1945321

> <ROCS_ShapeQuery>
x0446_0A_x1080_0A_x0929_0A_x0812_0A_x0719_0A_x1140_0A_x0528_0A_x0310_0A

> <ROCS_TanimotoCombo>
0.413 

> <ROCS_ShapeTanimoto>
0.248 

> <ROCS_ColorTanimoto>
0.166 

> <ROCS_RefTversky>
0.221 

> <ROCS_RefColorTversky>
0.173 

> <ROCS_RefTverskyCombo>
0.394 

> <ROCS_FitTversky>
1.916 

> <ROCS_FitColorTversky>
0.809 

> <ROCS_FitTverskyCombo>
2.725 

> <ROCS_ColorScore>
-6.147

> <ROCS_Overlap>
2612.458

> <ROCS_Rank>
358                 

$$$$
untitled-dbase-349753_5
  -OEChem-02082415563D

 36 38  0     0  0  0  0  0  0999 V2000
   10.6805   15.5998   21.0556 C   0  0  0  0  0  0  0  0  0  0  0  0
    6.3214   10.9450   24.8416 C   0  0  0  0  0  0  0  0  0  0  0  0
    5.6412   12.1581   24.9735 C   0  0  0  0  0  0  0  0  0  0  0  0
    7.5312   13.3089   24.0353 C   0  0  0  0  0  0  0  0  0  0  0  0
   10.1578   10.8058   23.2501 C   0  0  0  0  0  0  0  0  0  0  0  0
    8.2152   12.0885   23.9027 C   0  0  0  0  0  0  0  0  0  0  0  0
    9.5091   12.0266   23.3680 C   0  0  0  0  0  0  0  0  0  0  0  0
    7.6067   10.8829   24.3102 C   0  0  0  0  0  0  0  0  0  0  0  0
    6.2465   13.3418   24.5700 C   0  0  0  0  0  0  0  0  0  0  0  0
    9.4819    9.6803   23.6757 C   0  0  0  0  0  0  0  0  0  0  0  0
   10.2318   13.2115   22.9156 C   0  0  0  0  0  0  0  0  0  0  0  0
   12.8660   14.3456   21.0786 C   0  0  0  0  0  0  0  0  0  0  0  0
   12.2117   14.0748   19.7593 C   0  0  0  0  0  0  0  0  0  0  0  0
   11.3556   14.3322   20.9809 C   0  0  0  0  0  0  0  0  0  0  0  0
   10.1404    8.3456   23.5678 C   0  0  0  0  0  0  0  0  0  0  0  0
    6.2707   15.6998   24.2621 C   0  0  0  0  0  0  0  0  0  0  0  0
   10.1359   16.6225   21.1160 N   0  0  0  0  0  0  0  0  0  0  0  0
    8.2338    9.6967   24.1971 N   0  0  0  0  0  0  0  0  0  0  0  0
   10.6150   13.2410   21.5723 N   0  0  0  0  0  0  0  0  0  0  0  0
   10.4979   14.1246   23.7129 O   0  0  0  0  0  0  0  0  0  0  0  0
    5.5875   14.5248   24.6973 O   0  0  0  0  0  0  0  0  0  0  0  0
    5.8259   10.0315   25.1657 H   0  0  0  0  0  0  0  0  0  0  0  0
    4.6384   12.1685   25.3921 H   0  0  0  0  0  0  0  0  0  0  0  0
    7.9865   14.2470   23.7255 H   0  0  0  0  0  0  0  0  0  0  0  0
   11.1594   10.7355   22.8376 H   0  0  0  0  0  0  0  0  0  0  0  0
   13.3576   13.5163   21.5745 H   0  0  0  0  0  0  0  0  0  0  0  0
   13.3771   15.2938   21.2009 H   0  0  0  0  0  0  0  0  0  0  0  0
   12.2835   14.8413   18.9960 H   0  0  0  0  0  0  0  0  0  0  0  0
   12.2648   13.0641   19.3710 H   0  0  0  0  0  0  0  0  0  0  0  0
   10.7037    8.1235   24.4820 H   0  0  0  0  0  0  0  0  0  0  0  0
    9.4016    7.5492   23.4114 H   0  0  0  0  0  0  0  0  0  0  0  0
   10.8310    8.3108   22.7155 H   0  0  0  0  0  0  0  0  0  0  0  0
    5.6326   16.5727   24.4198 H   0  0  0  0  0  0  0  0  0  0  0  0
    6.5216   15.6052   23.2026 H   0  0  0  0  0  0  0  0  0  0  0  0
    7.1890   15.8129   24.8432 H   0  0  0  0  0  0  0  0  0  0  0  0
   10.4255   12.4381   20.9814 H   0  0  0  0  0  0  0  0  0  0  0  0
  1 14  1  0  0  0  0
  1 17  3  0  0  0  0
  2  3  2  0  0  0  0
  2  8  1  0  0  0  0
  3  9  1  0  0  0  0
  4  6  1  0  0  0  0
  4  9  2  0  0  0  0
  5  7  2  0  0  0  0
  5 10  1  0  0  0  0
  6  7  1  0  0  0  0
  6  8  2  0  0  0  0
  7 11  1  0  0  0  0
  8 18  1  0  0  0  0
  9 21  1  0  0  0  0
 10 15  1  0  0  0  0
 10 18  2  0  0  0  0
 11 19  1  0  0  0  0
 11 20  2  0  0  0  0
 12 13  1  0  0  0  0
 12 14  1  0  0  0  0
 13 14  1  0  0  0  0
 14 19  1  0  0  0  0
 16 21  1  0  0  0  0
  2 22  1  0  0  0  0
  3 23  1  0  0  0  0
  4 24  1  0  0  0  0
  5 25  1  0  0  0  0
 12 26  1  0  0  0  0
 12 27  1  0  0  0  0
 13 28  1  0  0  0  0
 13 29  1  0  0  0  0
 15 30  1  0  0  0  0
 15 31  1  0  0  0  0
 15 32  1  0  0  0  0
 16 33  1  0  0  0  0
 16 34  1  0  0  0  0
 16 35  1  0  0  0  0
 19 36  1  0  0  0  0
M  END
> <id>
EN300-26687072

> <smiles>
COC=1C=CC=2N=C(C)C=C(C(=O)NC3(CC3)C#N)C2C1

> <IUPAC Name>
N-(1-cyanocyclopropyl)-6-methoxy-2-methylquinoline-4-carboxamide

> <CAS>
1376178-84-5

> <URL>
https://www.enaminestore.com/catalog/EN300-26687072

> <ROCS_ShapeQuery>
x0446_0A_x1080_0A_x0929_0A_x0812_0A_x0719_0A_x1140_0A_x0528_0A_x0310_0A

> <ROCS_TanimotoCombo>
0.413 

> <ROCS_ShapeTanimoto>
0.246 

> <ROCS_ColorTanimoto>
0.167 

> <ROCS_RefTversky>
0.223 

> <ROCS_RefColorTversky>
0.178 

> <ROCS_RefTverskyCombo>
0.400 

> <ROCS_FitTversky>
1.723 

> <ROCS_FitColorTversky>
0.744 

> <ROCS_FitTverskyCombo>
2.467 

> <ROCS_ColorScore>
-6.336

> <ROCS_Overlap>
2632.786

> <ROCS_Rank>
359                 

$$$$
untitled-dbase-558907_9
  -OEChem-02082415563D

 36 37  0     0  0  0  0  0  0999 V2000
    9.6321   13.6138   23.4485 C   0  0  0  0  0  0  0  0  0  0  0  0
    6.9522   12.7994   24.7937 C   0  0  0  0  0  0  0  0  0  0  0  0
    9.1820   11.1902   22.3897 C   0  0  0  0  0  0  0  0  0  0  0  0
   10.1397   11.1038   24.2487 C   0  0  0  0  0  0  0  0  0  0  0  0
    7.7465   10.4398   24.2724 C   0  0  0  0  0  0  0  0  0  0  0  0
    9.1705   12.1780   23.6198 C   0  0  0  0  0  0  0  0  0  0  0  0
    9.0866   10.1513   23.5686 C   0  0  0  0  0  0  0  0  0  0  0  0
    8.5879   14.1500   26.7100 C   0  0  0  0  0  0  0  0  0  0  0  0
    8.0239   16.2438   25.4421 C   0  0  0  0  0  0  0  0  0  0  0  0
    6.1989   14.9273   26.5577 C   0  0  0  0  0  0  0  0  0  0  0  0
    9.4145    8.7052   23.3326 C   0  0  0  0  0  0  0  0  0  0  0  0
    7.5450   14.8490   25.8389 C   0  0  0  0  0  0  0  0  0  0  0  0
    7.8647   11.9020   24.2798 N   0  0  0  0  0  0  0  0  0  0  0  0
    9.1284   14.4269   22.6879 O   0  0  0  0  0  0  0  0  0  0  0  0
    5.8907   12.4902   25.3281 O   0  0  0  0  0  0  0  0  0  0  0  0
   10.6883   13.8766   24.2563 O   0  0  0  0  0  0  0  0  0  0  0  0
    7.3757   14.0922   24.6350 O   0  0  0  0  0  0  0  0  0  0  0  0
   10.6882    8.5591   22.9076 F   0  0  0  0  0  0  0  0  0  0  0  0
    9.2710    7.9836   24.4652 F   0  0  0  0  0  0  0  0  0  0  0  0
    8.6021    8.1700   22.3955 F   0  0  0  0  0  0  0  0  0  0  0  0
    8.3184   11.2382   21.7187 H   0  0  0  0  0  0  0  0  0  0  0  0
   10.0982   11.1691   21.7881 H   0  0  0  0  0  0  0  0  0  0  0  0
   11.1605   11.0733   23.8502 H   0  0  0  0  0  0  0  0  0  0  0  0
   10.1848   11.0697   25.3418 H   0  0  0  0  0  0  0  0  0  0  0  0
    6.8702   10.1375   23.6922 H   0  0  0  0  0  0  0  0  0  0  0  0
    7.6970   10.0623   25.2976 H   0  0  0  0  0  0  0  0  0  0  0  0
    8.2479   13.1485   26.9969 H   0  0  0  0  0  0  0  0  0  0  0  0
    9.5482   14.0563   26.1925 H   0  0  0  0  0  0  0  0  0  0  0  0
    8.7501   14.7007   27.6436 H   0  0  0  0  0  0  0  0  0  0  0  0
    7.2787   16.7489   24.8171 H   0  0  0  0  0  0  0  0  0  0  0  0
    8.9405   16.1863   24.8440 H   0  0  0  0  0  0  0  0  0  0  0  0
    8.2210   16.8681   26.3196 H   0  0  0  0  0  0  0  0  0  0  0  0
    5.4507   15.4286   25.9331 H   0  0  0  0  0  0  0  0  0  0  0  0
    5.8219   13.9328   26.8175 H   0  0  0  0  0  0  0  0  0  0  0  0
    6.2816   15.5193   27.4764 H   0  0  0  0  0  0  0  0  0  0  0  0
   11.0032   14.8006   24.1588 H   0  0  0  0  0  0  0  0  0  0  0  0
  1  6  1  6  0  0  0
  1 14  2  0  0  0  0
  1 16  1  0  0  0  0
  2 13  1  0  0  0  0
  2 15  2  0  0  0  0
  2 17  1  0  0  0  0
  3  6  1  0  0  0  0
  3  7  1  0  0  0  0
  4  6  1  0  0  0  0
  4  7  1  0  0  0  0
  5  7  1  0  0  0  0
  5 13  1  0  0  0  0
  6 13  1  0  0  0  0
  7 11  1  6  0  0  0
  8 12  1  0  0  0  0
  9 12  1  0  0  0  0
 10 12  1  0  0  0  0
 11 18  1  0  0  0  0
 11 19  1  0  0  0  0
 11 20  1  0  0  0  0
 12 17  1  0  0  0  0
  3 21  1  0  0  0  0
  3 22  1  0  0  0  0
  4 23  1  0  0  0  0
  4 24  1  0  0  0  0
  5 25  1  0  0  0  0
  5 26  1  0  0  0  0
  8 27  1  0  0  0  0
  8 28  1  0  0  0  0
  8 29  1  0  0  0  0
  9 30  1  0  0  0  0
  9 31  1  0  0  0  0
  9 32  1  0  0  0  0
 10 33  1  0  0  0  0
 10 34  1  0  0  0  0
 10 35  1  0  0  0  0
 16 36  1  0  0  0  0
M  END
> <id>
EN300-37375138

> <smiles>
CC(C)(C)OC(=O)N1C[C@]2(C[C@@]1(C2)C(=O)O)C(F)(F)F

> <IUPAC Name>
2-[(tert-butoxy)carbonyl]-4-(trifluoromethyl)-2-azabicyclo[2.1.1]hexane-1-carboxylic acid

> <CAS>
1993323-08-2

> <URL>
https://www.enaminestore.com/catalog/EN300-37375138

> <ROCS_ShapeQuery>
x0446_0A_x1080_0A_x0929_0A_x0812_0A_x0719_0A_x1140_0A_x0528_0A_x0310_0A

> <ROCS_TanimotoCombo>
0.413 

> <ROCS_ShapeTanimoto>
0.226 

> <ROCS_ColorTanimoto>
0.187 

> <ROCS_RefTversky>
0.208 

> <ROCS_RefColorTversky>
0.215 

> <ROCS_RefTverskyCombo>
0.422 

> <ROCS_FitTversky>
1.654 

> <ROCS_FitColorTversky>
0.591 

> <ROCS_FitTverskyCombo>
2.245 

> <ROCS_ColorScore>
-7.714

> <ROCS_Overlap>
2452.874

> <ROCS_Rank>
360                 

$$$$
untitled-dbase-288467_2
  -OEChem-02082415563D

 32 35  0     0  0  0  0  0  0999 V2000
   14.4109   16.8223   20.2016 C   0  0  0  0  0  0  0  0  0  0  0  0
   13.2670   17.4908   19.7168 C   0  0  0  0  0  0  0  0  0  0  0  0
   14.2982   15.7743   21.1201 C   0  0  0  0  0  0  0  0  0  0  0  0
   11.9854   17.1261   20.1398 C   0  0  0  0  0  0  0  0  0  0  0  0
   13.0255   15.4279   21.5221 C   0  0  0  0  0  0  0  0  0  0  0  0
   11.8958   16.0882   21.0434 C   0  0  0  0  0  0  0  0  0  0  0  0
    9.1963   11.6074   23.2605 C   0  0  0  0  0  0  0  0  0  0  0  0
    9.4110   10.3017   23.6343 C   0  0  0  0  0  0  0  0  0  0  0  0
    7.5110   10.8150   24.4680 C   0  0  0  0  0  0  0  0  0  0  0  0
    6.2433   10.9250   25.1118 C   0  0  0  0  0  0  0  0  0  0  0  0
    5.5605   12.0843   25.0469 C   0  0  0  0  0  0  0  0  0  0  0  0
    6.0844   13.2373   24.3321 C   0  0  0  0  0  0  0  0  0  0  0  0
    7.2774   13.1414   23.7229 C   0  0  0  0  0  0  0  0  0  0  0  0
   12.5822   14.3965   22.4655 C   0  0  0  0  0  0  0  0  0  0  0  0
   10.7171   15.4869   21.6753 C   0  0  0  0  0  0  0  0  0  0  0  0
   10.0625   12.5056   22.4553 C   0  0  0  0  0  0  0  0  0  0  0  0
    8.3664    9.8169   24.3799 N   0  0  0  0  0  0  0  0  0  0  0  0
    7.9777   11.9405   23.7940 N   0  0  0  0  0  0  0  0  0  0  0  0
   11.2257   14.4884   22.4457 N   0  0  0  0  0  0  0  0  0  0  0  0
   13.3192   13.6500   23.0790 O   0  0  0  0  0  0  0  0  0  0  0  0
    9.5698   15.8423   21.4905 O   0  0  0  0  0  0  0  0  0  0  0  0
   10.3979   12.2584   21.3070 O   0  0  0  0  0  0  0  0  0  0  0  0
   10.4192   13.6261   23.1595 O   0  0  0  0  0  0  0  0  0  0  0  0
   10.7694    9.3405   23.2612 Cl  0  0  0  0  0  0  0  0  0  0  0  0
   15.3942   17.1296   19.8550 H   0  0  0  0  0  0  0  0  0  0  0  0
   13.3868   18.3029   19.0042 H   0  0  0  0  0  0  0  0  0  0  0  0
   15.1776   15.2633   21.4937 H   0  0  0  0  0  0  0  0  0  0  0  0
   11.1078   17.6420   19.7689 H   0  0  0  0  0  0  0  0  0  0  0  0
    5.8428   10.0718   25.6478 H   0  0  0  0  0  0  0  0  0  0  0  0
    4.5955   12.1873   25.5314 H   0  0  0  0  0  0  0  0  0  0  0  0
    5.5000   14.1488   24.3056 H   0  0  0  0  0  0  0  0  0  0  0  0
    7.7191   13.9648   23.1751 H   0  0  0  0  0  0  0  0  0  0  0  0
  1  2  1  0  0  0  0
  1  3  2  0  0  0  0
  2  4  2  0  0  0  0
  3  5  1  0  0  0  0
  4  6  1  0  0  0  0
  5  6  2  0  0  0  0
  5 14  1  0  0  0  0
  6 15  1  0  0  0  0
  7  8  2  0  0  0  0
  7 16  1  0  0  0  0
  7 18  1  0  0  0  0
  8 17  1  0  0  0  0
  8 24  1  0  0  0  0
  9 10  1  0  0  0  0
  9 17  2  0  0  0  0
  9 18  1  0  0  0  0
 10 11  2  0  0  0  0
 11 12  1  0  0  0  0
 12 13  2  0  0  0  0
 13 18  1  0  0  0  0
 14 19  1  0  0  0  0
 14 20  2  0  0  0  0
 15 19  1  0  0  0  0
 15 21  2  0  0  0  0
 16 22  2  0  0  0  0
 16 23  1  0  0  0  0
 19 23  1  0  0  0  0
  1 25  1  0  0  0  0
  2 26  1  0  0  0  0
  3 27  1  0  0  0  0
  4 28  1  0  0  0  0
 10 29  1  0  0  0  0
 11 30  1  0  0  0  0
 12 31  1  0  0  0  0
 13 32  1  0  0  0  0
M  END
> <id>
EN300-6516227

> <smiles>
ClC=1N=C2C=CC=CN2C1C(=O)ON3C(=O)C=4C=CC=CC4C3=O

> <IUPAC Name>
1,3-dioxo-2,3-dihydro-1H-isoindol-2-yl 2-chloroimidazo[1,2-a]pyridine-3-carboxylate

> <CAS>
2248268-64-4

> <URL>
https://www.enaminestore.com/catalog/EN300-6516227

> <ROCS_ShapeQuery>
x0446_0A_x1080_0A_x0929_0A_x0812_0A_x0719_0A_x1140_0A_x0528_0A_x0310_0A

> <ROCS_TanimotoCombo>
0.413 

> <ROCS_ShapeTanimoto>
0.256 

> <ROCS_ColorTanimoto>
0.157 

> <ROCS_RefTversky>
0.233 

> <ROCS_RefColorTversky>
0.175 

> <ROCS_RefTverskyCombo>
0.409 

> <ROCS_FitTversky>
1.615 

> <ROCS_FitColorTversky>
0.600 

> <ROCS_FitTverskyCombo>
2.215 

> <ROCS_ColorScore>
-6.270

> <ROCS_Overlap>
2759.825

> <ROCS_Rank>
361                 

$$$$
untitled-dbase-563116_2
  -OEChem-02082415563D

 47 50  0     1  0  0  0  0  0999 V2000
    5.3846   12.5106   25.0631 C   0  0  0  0  0  0  0  0  0  0  0  0
    7.4407   10.8809   24.6427 C   0  0  0  0  0  0  0  0  0  0  0  0
    7.3162   12.1299   24.0556 C   0  0  0  0  0  0  0  0  0  0  0  0
    6.4167   10.4823   25.4961 C   0  0  0  0  0  0  0  0  0  0  0  0
    9.1727   11.1306   23.4258 C   0  0  0  0  0  0  0  0  0  0  0  0
   12.0919    8.8584   21.9076 C   0  0  0  0  0  0  0  0  0  0  0  0
   12.0620    9.3447   23.3584 C   0  0  0  0  0  0  0  0  0  0  0  0
   10.7762    9.1638   21.1880 C   0  0  0  0  0  0  0  0  0  0  0  0
   11.6537   10.8158   23.4325 C   0  0  0  0  0  0  0  0  0  0  0  0
   10.3946   10.6416   21.3184 C   0  0  0  0  0  0  0  0  0  0  0  0
    9.1169   15.7588   22.3775 C   0  0  2  0  0  0  0  0  0  0  0  0
    9.4810   14.5435   23.2072 C   0  0  1  0  0  0  0  0  0  0  0  0
    7.6709   15.4659   21.9894 C   0  0  2  0  0  0  0  0  0  0  0  0
    8.7547   13.4369   22.4580 C   0  0  1  0  0  0  0  0  0  0  0  0
    6.6649   16.0116   22.9933 C   0  0  0  0  0  0  0  0  0  0  0  0
    6.3136   13.0064   24.2169 N   0  0  0  0  0  0  0  0  0  0  0  0
    5.3713   11.3180   25.7061 N   0  0  0  0  0  0  0  0  0  0  0  0
    8.6018   10.2692   24.2418 N   0  0  0  0  0  0  0  0  0  0  0  0
    8.4320   12.2736   23.2810 N   0  0  0  0  0  0  0  0  0  0  0  0
   10.3762   11.0058   22.7398 N   0  0  0  0  0  0  0  0  0  0  0  0
    6.4588    9.2307   26.1344 N   0  0  0  0  0  0  0  0  0  0  0  0
    7.5416   14.0257   21.9510 O   0  0  0  0  0  0  0  0  0  0  0  0
    9.9150   15.7834   21.1939 O   0  0  0  0  0  0  0  0  0  0  0  0
   10.8736   14.3125   23.2687 O   0  0  0  0  0  0  0  0  0  0  0  0
    5.3587   15.7002   22.5414 O   0  0  0  0  0  0  0  0  0  0  0  0
    4.5324   13.1540   25.2548 H   0  0  0  0  0  0  0  0  0  0  0  0
   12.9255    9.3396   21.3737 H   0  0  0  0  0  0  0  0  0  0  0  0
   12.2854    7.7762   21.8835 H   0  0  0  0  0  0  0  0  0  0  0  0
   11.3577    8.7383   23.9340 H   0  0  0  0  0  0  0  0  0  0  0  0
   13.0487    9.2136   23.8075 H   0  0  0  0  0  0  0  0  0  0  0  0
   10.8689    8.9020   20.1289 H   0  0  0  0  0  0  0  0  0  0  0  0
    9.9761    8.5401   21.6035 H   0  0  0  0  0  0  0  0  0  0  0  0
   11.5725   11.1073   24.4830 H   0  0  0  0  0  0  0  0  0  0  0  0
   12.4200   11.4417   22.9668 H   0  0  0  0  0  0  0  0  0  0  0  0
   11.1174   11.2631   20.7885 H   0  0  0  0  0  0  0  0  0  0  0  0
    9.4136   10.7924   20.8660 H   0  0  0  0  0  0  0  0  0  0  0  0
    9.2681   16.7060   22.9039 H   0  0  0  0  0  0  0  0  0  0  0  0
    9.0959   14.6523   24.2281 H   0  0  0  0  0  0  0  0  0  0  0  0
    7.4318   15.8452   20.9864 H   0  0  0  0  0  0  0  0  0  0  0  0
    9.3497   13.0452   21.6005 H   0  0  0  0  0  0  0  0  0  0  0  0
    6.7670   17.0948   23.0753 H   0  0  0  0  0  0  0  0  0  0  0  0
    6.8245   15.5543   23.9709 H   0  0  0  0  0  0  0  0  0  0  0  0
    7.2126    8.6009   25.9348 H   0  0  0  0  0  0  0  0  0  0  0  0
    5.6882    8.9442   26.7078 H   0  0  0  0  0  0  0  0  0  0  0  0
    9.6473   16.5729   20.6999 H   0  0  0  0  0  0  0  0  0  0  0  0
   11.2794   15.1008   23.6704 H   0  0  0  0  0  0  0  0  0  0  0  0
    4.7375   16.0584   23.1978 H   0  0  0  0  0  0  0  0  0  0  0  0
  1 16  1  0  0  0  0
  1 17  2  0  0  0  0
  2  3  1  0  0  0  0
  2  4  2  0  0  0  0
  2 18  1  0  0  0  0
  3 16  2  0  0  0  0
  3 19  1  0  0  0  0
  4 17  1  0  0  0  0
  4 21  1  0  0  0  0
  5 18  2  0  0  0  0
  5 19  1  0  0  0  0
  5 20  1  0  0  0  0
  6  7  1  0  0  0  0
  6  8  1  0  0  0  0
  7  9  1  0  0  0  0
  8 10  1  0  0  0  0
  9 20  1  0  0  0  0
 10 20  1  0  0  0  0
 11 12  1  0  0  0  0
 11 13  1  0  0  0  0
 11 23  1  6  0  0  0
 12 14  1  0  0  0  0
 12 24  1  6  0  0  0
 13 15  1  1  0  0  0
 13 22  1  0  0  0  0
 14 19  1  1  0  0  0
 14 22  1  0  0  0  0
 15 25  1  0  0  0  0
  1 26  1  0  0  0  0
  6 27  1  0  0  0  0
  6 28  1  0  0  0  0
  7 29  1  0  0  0  0
  7 30  1  0  0  0  0
  8 31  1  0  0  0  0
  8 32  1  0  0  0  0
  9 33  1  0  0  0  0
  9 34  1  0  0  0  0
 10 35  1  0  0  0  0
 10 36  1  0  0  0  0
 11 37  1  0  0  0  0
 12 38  1  0  0  0  0
 13 39  1  0  0  0  0
 14 40  1  0  0  0  0
 15 41  1  0  0  0  0
 15 42  1  0  0  0  0
 21 43  1  0  0  0  0
 21 44  1  0  0  0  0
 23 45  1  0  0  0  0
 24 46  1  0  0  0  0
 25 47  1  0  0  0  0
M  END
> <id>
EN300-37353865

> <smiles>
NC=1N=CN=C2N([C@H]3O[C@@H](CO)[C@H](O)[C@@H]3O)C(=NC12)N4CCCCC4

> <IUPAC Name>
(2S,3S,4R,5S)-2-[6-amino-8-(piperidin-1-yl)-9H-purin-9-yl]-5-(hydroxymethyl)oxolane-3,4-diol

> <CAS>
2768300-51-0

> <Purity>
95

> <URL>
https://www.enaminestore.com/catalog/EN300-37353865

> <ROCS_ShapeQuery>
x0446_0A_x1080_0A_x0929_0A_x0812_0A_x0719_0A_x1140_0A_x0528_0A_x0310_0A

> <ROCS_TanimotoCombo>
0.413 

> <ROCS_ShapeTanimoto>
0.253 

> <ROCS_ColorTanimoto>
0.160 

> <ROCS_RefTversky>
0.232 

> <ROCS_RefColorTversky>
0.207 

> <ROCS_RefTverskyCombo>
0.438 

> <ROCS_FitTversky>
1.589 

> <ROCS_FitColorTversky>
0.414 

> <ROCS_FitTverskyCombo>
2.003 

> <ROCS_ColorScore>
-7.474

> <ROCS_Overlap>
2737.495

> <ROCS_Rank>
362                 

$$$$
untitled-dbase-505042_0
  -OEChem-02082415563D

 30 31  0     0  0  0  0  0  0999 V2000
    6.9513   11.2021   25.7188 C   0  0  0  0  0  0  0  0  0  0  0  0
   10.5451   13.6961   22.6075 C   0  0  0  0  0  0  0  0  0  0  0  0
    9.4545   11.7574   24.8986 C   0  0  0  0  0  0  0  0  0  0  0  0
    8.0218   12.2459   23.4810 C   0  0  0  0  0  0  0  0  0  0  0  0
    8.0118   11.1515   24.6314 C   0  0  0  0  0  0  0  0  0  0  0  0
    9.4363   11.5959   23.3439 C   0  0  0  0  0  0  0  0  0  0  0  0
    9.2436   10.1124   23.0295 C   0  0  0  0  0  0  0  0  0  0  0  0
   11.6458   14.2290   21.7515 C   0  0  0  0  0  0  0  0  0  0  0  0
    8.7317    9.8454   21.6185 C   0  0  0  0  0  0  0  0  0  0  0  0
   10.4671    9.2556   23.3345 C   0  0  0  0  0  0  0  0  0  0  0  0
   10.4298   12.3170   22.5886 N   0  0  0  0  0  0  0  0  0  0  0  0
    7.0525   10.6871   26.8224 O   0  0  0  0  0  0  0  0  0  0  0  0
    9.8453   14.4739   23.2455 O   0  0  0  0  0  0  0  0  0  0  0  0
    8.1999    9.8431   23.9919 O   0  0  0  0  0  0  0  0  0  0  0  0
    5.8670   11.8982   25.2980 O   0  0  0  0  0  0  0  0  0  0  0  0
    9.5048   12.7746   25.3050 H   0  0  0  0  0  0  0  0  0  0  0  0
   10.1403   11.1229   25.4642 H   0  0  0  0  0  0  0  0  0  0  0  0
    7.3116   12.0865   22.6667 H   0  0  0  0  0  0  0  0  0  0  0  0
    7.9711   13.2975   23.7876 H   0  0  0  0  0  0  0  0  0  0  0  0
   11.3125   14.4438   20.7234 H   0  0  0  0  0  0  0  0  0  0  0  0
   12.0504   15.1809   22.1311 H   0  0  0  0  0  0  0  0  0  0  0  0
   12.5193   13.5668   21.6405 H   0  0  0  0  0  0  0  0  0  0  0  0
    8.6171    8.7732   21.4612 H   0  0  0  0  0  0  0  0  0  0  0  0
    9.4374   10.2375   20.8866 H   0  0  0  0  0  0  0  0  0  0  0  0
    7.7662   10.3300   21.4753 H   0  0  0  0  0  0  0  0  0  0  0  0
   10.2623    8.2139   23.0884 H   0  0  0  0  0  0  0  0  0  0  0  0
   10.7167    9.3272   24.3928 H   0  0  0  0  0  0  0  0  0  0  0  0
   11.3174    9.5985   22.7455 H   0  0  0  0  0  0  0  0  0  0  0  0
   11.0787   11.7857   22.0127 H   0  0  0  0  0  0  0  0  0  0  0  0
    5.1692   11.9407   25.9861 H   0  0  0  0  0  0  0  0  0  0  0  0
  1  5  1  0  0  0  0
  1 12  2  0  0  0  0
  1 15  1  0  0  0  0
  2  8  1  0  0  0  0
  2 11  1  0  0  0  0
  2 13  2  0  0  0  0
  3  5  1  0  0  0  0
  3  6  1  0  0  0  0
  4  5  1  0  0  0  0
  4  6  1  0  0  0  0
  5 14  1  0  0  0  0
  6  7  1  0  0  0  0
  6 11  1  0  0  0  0
  7  9  1  0  0  0  0
  7 10  1  0  0  0  0
  7 14  1  0  0  0  0
  3 16  1  0  0  0  0
  3 17  1  0  0  0  0
  4 18  1  0  0  0  0
  4 19  1  0  0  0  0
  8 20  1  0  0  0  0
  8 21  1  0  0  0  0
  8 22  1  0  0  0  0
  9 23  1  0  0  0  0
  9 24  1  0  0  0  0
  9 25  1  0  0  0  0
 10 26  1  0  0  0  0
 10 27  1  0  0  0  0
 10 28  1  0  0  0  0
 11 29  1  0  0  0  0
 15 30  1  0  0  0  0
M  END
> <id>
EN300-28273222

> <smiles>
CC(=O)NC1(CC2(C1)C(=O)O)C(C)(C)O2

> <IUPAC Name>
4-acetamido-3,3-dimethyl-2-oxabicyclo[2.1.1]hexane-1-carboxylic acid

> <CAS>
2680738-31-0

> <URL>
https://www.enaminestore.com/catalog/EN300-28273222

> <ROCS_ShapeQuery>
x0446_0A_x1080_0A_x0929_0A_x0812_0A_x0719_0A_x1140_0A_x0528_0A_x0310_0A

> <ROCS_TanimotoCombo>
0.413 

> <ROCS_ShapeTanimoto>
0.213 

> <ROCS_ColorTanimoto>
0.200 

> <ROCS_RefTversky>
0.194 

> <ROCS_RefColorTversky>
0.236 

> <ROCS_RefTverskyCombo>
0.430 

> <ROCS_FitTversky>
1.824 

> <ROCS_FitColorTversky>
0.570 

> <ROCS_FitTverskyCombo>
2.394 

> <ROCS_ColorScore>
-8.505

> <ROCS_Overlap>
2289.687

> <ROCS_Rank>
363                 

$$$$
untitled-dbase-587683_3
  -OEChem-02082415563D

 32 35  0     0  0  0  0  0  0999 V2000
   14.2728   16.5170   21.0531 C   0  0  0  0  0  0  0  0  0  0  0  0
   13.2478   17.1137   20.2890 C   0  0  0  0  0  0  0  0  0  0  0  0
   13.9826   15.5431   22.0131 C   0  0  0  0  0  0  0  0  0  0  0  0
   11.9100   16.7495   20.4683 C   0  0  0  0  0  0  0  0  0  0  0  0
    6.6712    9.8056   24.7026 C   0  0  0  0  0  0  0  0  0  0  0  0
    7.7062    9.2269   23.9642 C   0  0  0  0  0  0  0  0  0  0  0  0
   12.6576   15.1957   22.1721 C   0  0  0  0  0  0  0  0  0  0  0  0
   11.6453   15.7850   21.4177 C   0  0  0  0  0  0  0  0  0  0  0  0
    8.5890   11.4244   23.3987 C   0  0  0  0  0  0  0  0  0  0  0  0
    6.6240   11.1830   24.7685 C   0  0  0  0  0  0  0  0  0  0  0  0
    7.5573   11.9707   24.1341 C   0  0  0  0  0  0  0  0  0  0  0  0
    8.6596   10.0316   23.3160 C   0  0  0  0  0  0  0  0  0  0  0  0
   12.0386   14.2313   23.0871 C   0  0  0  0  0  0  0  0  0  0  0  0
   10.3671   15.2045   21.8416 C   0  0  0  0  0  0  0  0  0  0  0  0
    9.5944   12.2784   22.7168 C   0  0  0  0  0  0  0  0  0  0  0  0
    6.1477   13.2585   25.1522 C   0  0  0  0  0  0  0  0  0  0  0  0
   10.7148   14.2848   22.7809 N   0  0  0  0  0  0  0  0  0  0  0  0
   12.6397   13.5562   23.8993 O   0  0  0  0  0  0  0  0  0  0  0  0
    9.2796   15.5131   21.3956 O   0  0  0  0  0  0  0  0  0  0  0  0
   10.1630   11.9495   21.6869 O   0  0  0  0  0  0  0  0  0  0  0  0
    5.6952   11.9191   25.4373 O   0  0  0  0  0  0  0  0  0  0  0  0
    7.3294   13.2985   24.3261 O   0  0  0  0  0  0  0  0  0  0  0  0
    9.7864   13.4608   23.3830 O   0  0  0  0  0  0  0  0  0  0  0  0
    9.6411    9.4455   22.6152 F   0  0  0  0  0  0  0  0  0  0  0  0
   15.3036   16.8221   20.8917 H   0  0  0  0  0  0  0  0  0  0  0  0
   13.5047   17.8692   19.5510 H   0  0  0  0  0  0  0  0  0  0  0  0
   14.7704   15.0873   22.6010 H   0  0  0  0  0  0  0  0  0  0  0  0
   11.1233   17.2104   19.8830 H   0  0  0  0  0  0  0  0  0  0  0  0
    5.9340    9.1888   25.2041 H   0  0  0  0  0  0  0  0  0  0  0  0
    7.7771    8.1453   23.8890 H   0  0  0  0  0  0  0  0  0  0  0  0
    5.3433   13.7993   24.6406 H   0  0  0  0  0  0  0  0  0  0  0  0
    6.3644   13.7649   26.0995 H   0  0  0  0  0  0  0  0  0  0  0  0
  1  2  1  0  0  0  0
  1  3  2  0  0  0  0
  2  4  2  0  0  0  0
  3  7  1  0  0  0  0
  4  8  1  0  0  0  0
  5  6  2  0  0  0  0
  5 10  1  0  0  0  0
  6 12  1  0  0  0  0
  7  8  2  0  0  0  0
  7 13  1  0  0  0  0
  8 14  1  0  0  0  0
  9 11  1  0  0  0  0
  9 12  2  0  0  0  0
  9 15  1  0  0  0  0
 10 11  2  0  0  0  0
 10 21  1  0  0  0  0
 11 22  1  0  0  0  0
 12 24  1  0  0  0  0
 13 17  1  0  0  0  0
 13 18  2  0  0  0  0
 14 17  1  0  0  0  0
 14 19  2  0  0  0  0
 15 20  2  0  0  0  0
 15 23  1  0  0  0  0
 16 21  1  0  0  0  0
 16 22  1  0  0  0  0
 17 23  1  0  0  0  0
  1 25  1  0  0  0  0
  2 26  1  0  0  0  0
  3 27  1  0  0  0  0
  4 28  1  0  0  0  0
  5 29  1  0  0  0  0
  6 30  1  0  0  0  0
 16 31  1  0  0  0  0
 16 32  1  0  0  0  0
M  END
> <id>
EN300-6516832

> <smiles>
FC=1C=CC=2OCOC2C1C(=O)ON3C(=O)C=4C=CC=CC4C3=O

> <IUPAC Name>
1,3-dioxo-2,3-dihydro-1H-isoindol-2-yl 5-fluoro-1,3-dioxaindane-4-carboxylate

> <CAS>
2248317-98-6

> <URL>
https://www.enaminestore.com/catalog/EN300-6516832

> <ROCS_ShapeQuery>
x0446_0A_x1080_0A_x0929_0A_x0812_0A_x0719_0A_x1140_0A_x0528_0A_x0310_0A

> <ROCS_TanimotoCombo>
0.413 

> <ROCS_ShapeTanimoto>
0.262 

> <ROCS_ColorTanimoto>
0.151 

> <ROCS_RefTversky>
0.238 

> <ROCS_RefColorTversky>
0.170 

> <ROCS_RefTverskyCombo>
0.407 

> <ROCS_FitTversky>
1.632 

> <ROCS_FitColorTversky>
0.581 

> <ROCS_FitTverskyCombo>
2.213 

> <ROCS_ColorScore>
-6.071

> <ROCS_Overlap>
2811.598

> <ROCS_Rank>
364                 

$$$$
untitled-dbase-388565_6
  -OEChem-02082415563D

 39 41  0     0  0  0  0  0  0999 V2000
    8.4114   13.4944   22.3641 C   0  0  0  0  0  0  0  0  0  0  0  0
    7.5167   12.7008   25.3665 C   0  0  0  0  0  0  0  0  0  0  0  0
    6.3116   11.3715   23.6006 C   0  0  0  0  0  0  0  0  0  0  0  0
    9.1243   10.9056   22.3449 C   0  0  0  0  0  0  0  0  0  0  0  0
   10.1194   12.0025   23.8025 C   0  0  0  0  0  0  0  0  0  0  0  0
    6.4584   12.2091   26.3495 C   0  0  0  0  0  0  0  0  0  0  0  0
    5.3272   10.9604   24.6915 C   0  0  0  0  0  0  0  0  0  0  0  0
    8.7018   12.2123   23.1311 C   0  0  0  0  0  0  0  0  0  0  0  0
    7.6780   11.7231   24.1979 C   0  0  0  0  0  0  0  0  0  0  0  0
    9.5579   10.5300   23.8127 C   0  0  0  0  0  0  0  0  0  0  0  0
   10.1201   16.7137   22.6885 C   0  0  0  0  0  0  0  0  0  0  0  0
   10.4557    9.3602   24.0800 C   0  0  0  0  0  0  0  0  0  0  0  0
    9.1039   15.7413   22.1285 C   0  0  0  0  0  0  0  0  0  0  0  0
   13.3656    7.8452   23.7212 N   0  5  0  0  0  0  0  0  0  0  0  0
   11.7387    9.5557   23.3945 N   0  0  0  0  0  0  0  0  0  0  0  0
   12.5833    8.6611   23.5682 N   0  3  0  0  0  0  0  0  0  0  0  0
    7.5372   13.6016   21.5147 O   0  0  0  0  0  0  0  0  0  0  0  0
    5.2184   11.9774   25.6850 O   0  0  0  0  0  0  0  0  0  0  0  0
    8.3546   10.5268   24.6366 O   0  0  0  0  0  0  0  0  0  0  0  0
    9.2671   14.4740   22.7730 O   0  0  0  0  0  0  0  0  0  0  0  0
    7.2092   13.6796   24.9797 H   0  0  0  0  0  0  0  0  0  0  0  0
    8.4533   12.8405   25.9152 H   0  0  0  0  0  0  0  0  0  0  0  0
    6.3800   10.5532   22.8774 H   0  0  0  0  0  0  0  0  0  0  0  0
    5.9097   12.2462   23.0755 H   0  0  0  0  0  0  0  0  0  0  0  0
    8.3276   10.2963   21.9121 H   0  0  0  0  0  0  0  0  0  0  0  0
    9.9218   11.0109   21.5996 H   0  0  0  0  0  0  0  0  0  0  0  0
   10.9984   12.1977   23.1764 H   0  0  0  0  0  0  0  0  0  0  0  0
   10.2865   12.4566   24.7818 H   0  0  0  0  0  0  0  0  0  0  0  0
    6.7785   11.2924   26.8585 H   0  0  0  0  0  0  0  0  0  0  0  0
    6.2868   12.9689   27.1190 H   0  0  0  0  0  0  0  0  0  0  0  0
    4.3336   10.8123   24.2566 H   0  0  0  0  0  0  0  0  0  0  0  0
    5.6228   10.0161   25.1641 H   0  0  0  0  0  0  0  0  0  0  0  0
    9.9793   16.8487   23.7645 H   0  0  0  0  0  0  0  0  0  0  0  0
   11.1385   16.3546   22.5075 H   0  0  0  0  0  0  0  0  0  0  0  0
   10.0340   17.6880   22.1960 H   0  0  0  0  0  0  0  0  0  0  0  0
   10.0029    8.4237   23.7222 H   0  0  0  0  0  0  0  0  0  0  0  0
   10.6449    9.2442   25.1574 H   0  0  0  0  0  0  0  0  0  0  0  0
    9.2503   15.6108   21.0522 H   0  0  0  0  0  0  0  0  0  0  0  0
    8.0870   16.1012   22.3109 H   0  0  0  0  0  0  0  0  0  0  0  0
  1  8  1  0  0  0  0
  1 17  2  0  0  0  0
  1 20  1  0  0  0  0
  2  6  1  0  0  0  0
  2  9  1  0  0  0  0
  3  7  1  0  0  0  0
  3  9  1  0  0  0  0
  4  8  1  0  0  0  0
  4 10  1  0  0  0  0
  5  8  1  0  0  0  0
  5 10  1  0  0  0  0
  6 18  1  0  0  0  0
  7 18  1  0  0  0  0
  8  9  1  0  0  0  0
  9 19  1  0  0  0  0
 10 12  1  0  0  0  0
 10 19  1  0  0  0  0
 11 13  1  0  0  0  0
 12 15  1  0  0  0  0
 13 20  1  0  0  0  0
 14 16  2  0  0  0  0
 15 16  2  0  0  0  0
  2 21  1  0  0  0  0
  2 22  1  0  0  0  0
  3 23  1  0  0  0  0
  3 24  1  0  0  0  0
  4 25  1  0  0  0  0
  4 26  1  0  0  0  0
  5 27  1  0  0  0  0
  5 28  1  0  0  0  0
  6 29  1  0  0  0  0
  6 30  1  0  0  0  0
  7 31  1  0  0  0  0
  7 32  1  0  0  0  0
 11 33  1  0  0  0  0
 11 34  1  0  0  0  0
 11 35  1  0  0  0  0
 12 36  1  0  0  0  0
 12 37  1  0  0  0  0
 13 38  1  0  0  0  0
 13 39  1  0  0  0  0
M  CHG  2  14  -1  16   1
M  END
> <id>
EN300-1718330

> <smiles>
CCOC(=O)C1(CC2(CN=[N+]=[N-])C1)C3(CCOCC3)O2

> <MDLNUMBER>
MFCD31690108

> <IUPAC Name>
ethyl 4-(azidomethyl)-3-oxaspiro[bicyclo[2.1.1]hexane-2,4'-oxane]-1-carboxylate

> <CAS>
2225146-56-3

> <Purity>
95

> <URL>
https://www.enaminestore.com/catalog/EN300-1718330

> <ROCS_ShapeQuery>
x0446_0A_x1080_0A_x0929_0A_x0812_0A_x0719_0A_x1140_0A_x0528_0A_x0310_0A

> <ROCS_TanimotoCombo>
0.413 

> <ROCS_ShapeTanimoto>
0.219 

> <ROCS_ColorTanimoto>
0.194 

> <ROCS_RefTversky>
0.202 

> <ROCS_RefColorTversky>
0.217 

> <ROCS_RefTverskyCombo>
0.419 

> <ROCS_FitTversky>
1.626 

> <ROCS_FitColorTversky>
0.644 

> <ROCS_FitTverskyCombo>
2.271 

> <ROCS_ColorScore>
-7.781

> <ROCS_Overlap>
2388.532

> <ROCS_Rank>
365                 

$$$$
untitled-dbase-344737_2
  -OEChem-02082415563D

 44 46  0     0  0  0  0  0  0999 V2000
   14.2243   19.6421   22.2871 C   0  0  0  0  0  0  0  0  0  0  0  0
   13.9258   18.6252   22.8512 C   0  0  0  0  0  0  0  0  0  0  0  0
    6.1704   13.2207   24.5877 C   0  0  0  0  0  0  0  0  0  0  0  0
    5.6762   12.0695   25.2063 C   0  0  0  0  0  0  0  0  0  0  0  0
    7.3780   13.1977   23.8765 C   0  0  0  0  0  0  0  0  0  0  0  0
    6.3672   10.8561   25.1379 C   0  0  0  0  0  0  0  0  0  0  0  0
    8.0895   11.9879   23.7946 C   0  0  0  0  0  0  0  0  0  0  0  0
    9.3030   11.5616   23.1934 C   0  0  0  0  0  0  0  0  0  0  0  0
    7.5641   10.8641   24.4240 C   0  0  0  0  0  0  0  0  0  0  0  0
    9.4349   10.2251   23.4916 C   0  0  0  0  0  0  0  0  0  0  0  0
   10.4424    9.2744   23.1589 C   0  0  0  0  0  0  0  0  0  0  0  0
   10.4760   13.6941   22.5604 C   0  0  0  0  0  0  0  0  0  0  0  0
   11.2781   15.5857   21.1372 C   0  0  0  0  0  0  0  0  0  0  0  0
   12.9135   13.9442   22.1435 C   0  0  0  0  0  0  0  0  0  0  0  0
   11.7346   16.6031   22.1871 C   0  0  0  0  0  0  0  0  0  0  0  0
   13.2893   15.0257   23.1600 C   0  0  0  0  0  0  0  0  0  0  0  0
   11.5112   14.1382   21.5681 C   0  0  0  0  0  0  0  0  0  0  0  0
   10.2854    7.8511   23.6540 C   0  0  0  0  0  0  0  0  0  0  0  0
   13.5624   17.3868   23.5443 C   0  0  0  0  0  0  0  0  0  0  0  0
   13.1276   16.3684   22.5881 N   0  0  0  0  0  0  0  0  0  0  0  0
   10.2138   12.3357   22.4359 N   0  0  0  0  0  0  0  0  0  0  0  0
   11.4727    9.4981   22.4872 O   0  0  0  0  0  0  0  0  0  0  0  0
    9.9778   14.4919   23.3479 O   0  0  0  0  0  0  0  0  0  0  0  0
    8.3854    9.7925   24.2380 O   0  0  0  0  0  0  0  0  0  0  0  0
   14.4885   20.5442   21.7865 H   0  0  0  0  0  0  0  0  0  0  0  0
    5.6105   14.1498   24.6586 H   0  0  0  0  0  0  0  0  0  0  0  0
    4.7372   12.1178   25.7520 H   0  0  0  0  0  0  0  0  0  0  0  0
    7.7478   14.1011   23.4010 H   0  0  0  0  0  0  0  0  0  0  0  0
    5.9900    9.9590   25.6143 H   0  0  0  0  0  0  0  0  0  0  0  0
   10.2183   15.7538   20.9096 H   0  0  0  0  0  0  0  0  0  0  0  0
   11.8331   15.7684   20.2074 H   0  0  0  0  0  0  0  0  0  0  0  0
   13.6394   13.9652   21.3200 H   0  0  0  0  0  0  0  0  0  0  0  0
   13.0002   12.9588   22.6171 H   0  0  0  0  0  0  0  0  0  0  0  0
   11.6378   17.6052   21.7515 H   0  0  0  0  0  0  0  0  0  0  0  0
   11.0654   16.5644   23.0567 H   0  0  0  0  0  0  0  0  0  0  0  0
   12.6906   14.9117   24.0725 H   0  0  0  0  0  0  0  0  0  0  0  0
   14.3374   14.8696   23.4446 H   0  0  0  0  0  0  0  0  0  0  0  0
   11.3918   13.4797   20.6990 H   0  0  0  0  0  0  0  0  0  0  0  0
    9.7367    7.2035   22.9521 H   0  0  0  0  0  0  0  0  0  0  0  0
    9.7740    7.7912   24.6272 H   0  0  0  0  0  0  0  0  0  0  0  0
   11.2402    7.3183   23.8110 H   0  0  0  0  0  0  0  0  0  0  0  0
   12.7554   17.5739   24.2594 H   0  0  0  0  0  0  0  0  0  0  0  0
   14.4198   17.0070   24.1090 H   0  0  0  0  0  0  0  0  0  0  0  0
   10.7301   11.8262   21.7218 H   0  0  0  0  0  0  0  0  0  0  0  0
  1  2  3  0  0  0  0
  2 19  1  0  0  0  0
  3  4  1  0  0  0  0
  3  5  2  0  0  0  0
  4  6  2  0  0  0  0
  5  7  1  0  0  0  0
  6  9  1  0  0  0  0
  7  8  1  0  0  0  0
  7  9  2  0  0  0  0
  8 10  2  0  0  0  0
  8 21  1  0  0  0  0
  9 24  1  0  0  0  0
 10 11  1  0  0  0  0
 10 24  1  0  0  0  0
 11 18  1  0  0  0  0
 11 22  2  0  0  0  0
 12 17  1  0  0  0  0
 12 21  1  0  0  0  0
 12 23  2  0  0  0  0
 13 15  1  0  0  0  0
 13 17  1  0  0  0  0
 14 16  1  0  0  0  0
 14 17  1  0  0  0  0
 15 20  1  0  0  0  0
 16 20  1  0  0  0  0
 19 20  1  0  0  0  0
  1 25  1  0  0  0  0
  3 26  1  0  0  0  0
  4 27  1  0  0  0  0
  5 28  1  0  0  0  0
  6 29  1  0  0  0  0
 13 30  1  0  0  0  0
 13 31  1  0  0  0  0
 14 32  1  0  0  0  0
 14 33  1  0  0  0  0
 15 34  1  0  0  0  0
 15 35  1  0  0  0  0
 16 36  1  0  0  0  0
 16 37  1  0  0  0  0
 17 38  1  0  0  0  0
 18 39  1  0  0  0  0
 18 40  1  0  0  0  0
 18 41  1  0  0  0  0
 19 42  1  0  0  0  0
 19 43  1  0  0  0  0
 21 44  1  0  0  0  0
M  END
> <id>
EN300-6617641

> <smiles>
CC(=O)C=1OC=2C=CC=CC2C1NC(=O)C3CCN(CC#C)CC3

> <IUPAC Name>
N-(2-acetyl-1-benzofuran-3-yl)-1-(prop-2-yn-1-yl)piperidine-4-carboxamide

> <CAS>
1645413-99-5

> <URL>
https://www.enaminestore.com/catalog/EN300-6617641

> <ROCS_ShapeQuery>
x0446_0A_x1080_0A_x0929_0A_x0812_0A_x0719_0A_x1140_0A_x0528_0A_x0310_0A

> <ROCS_TanimotoCombo>
0.413 

> <ROCS_ShapeTanimoto>
0.253 

> <ROCS_ColorTanimoto>
0.160 

> <ROCS_RefTversky>
0.230 

> <ROCS_RefColorTversky>
0.178 

> <ROCS_RefTverskyCombo>
0.408 

> <ROCS_FitTversky>
1.648 

> <ROCS_FitColorTversky>
0.612 

> <ROCS_FitTverskyCombo>
2.260 

> <ROCS_ColorScore>
-6.383

> <ROCS_Overlap>
2717.636

> <ROCS_Rank>
366                 

$$$$
untitled-dbase-293898_8
  -OEChem-02082415563D

 37 40  0     0  0  0  0  0  0999 V2000
   13.2997   18.4688   20.8737 C   0  0  0  0  0  0  0  0  0  0  0  0
   14.4851   17.7202   21.0311 C   0  0  0  0  0  0  0  0  0  0  0  0
   12.0445   17.8689   21.0119 C   0  0  0  0  0  0  0  0  0  0  0  0
   14.4413   16.3552   21.3302 C   0  0  0  0  0  0  0  0  0  0  0  0
   12.0231   16.5227   21.3101 C   0  0  0  0  0  0  0  0  0  0  0  0
   13.1938   15.7834   21.4655 C   0  0  0  0  0  0  0  0  0  0  0  0
    7.9029   12.1704   24.1687 C   0  0  0  0  0  0  0  0  0  0  0  0
    9.1445   12.2636   23.5548 C   0  0  0  0  0  0  0  0  0  0  0  0
    7.6290   10.8466   24.2215 C   0  0  0  0  0  0  0  0  0  0  0  0
   10.8859   15.6178   21.5054 C   0  0  0  0  0  0  0  0  0  0  0  0
   12.8188   14.3970   21.7616 C   0  0  0  0  0  0  0  0  0  0  0  0
    9.9019   13.4425   23.2519 C   0  0  0  0  0  0  0  0  0  0  0  0
    6.7995   12.9062   24.7659 C   0  0  0  0  0  0  0  0  0  0  0  0
    6.3407   10.5261   24.8443 C   0  0  0  0  0  0  0  0  0  0  0  0
    5.3589    9.8798   23.8770 C   0  0  0  0  0  0  0  0  0  0  0  0
    6.4860    9.7352   26.1368 C   0  0  0  0  0  0  0  0  0  0  0  0
    9.6280   11.0477   23.2358 N   0  0  0  0  0  0  0  0  0  0  0  0
    8.6645   10.1903   23.6625 N   0  0  0  0  0  0  0  0  0  0  0  0
   11.4599   14.4221   21.8049 N   0  0  0  0  0  0  0  0  0  0  0  0
    9.7169   15.9391   21.4205 O   0  0  0  0  0  0  0  0  0  0  0  0
   13.6029   13.4850   21.9352 O   0  0  0  0  0  0  0  0  0  0  0  0
    9.8707   14.5067   23.9077 O   0  0  0  0  0  0  0  0  0  0  0  0
    5.8306   11.8739   25.1856 O   0  0  0  0  0  0  0  0  0  0  0  0
   10.6959   13.2824   22.1386 O   0  0  0  0  0  0  0  0  0  0  0  0
   13.3660   19.5283   20.6400 H   0  0  0  0  0  0  0  0  0  0  0  0
   15.4464   18.2145   20.9162 H   0  0  0  0  0  0  0  0  0  0  0  0
   11.1347   18.4443   20.8883 H   0  0  0  0  0  0  0  0  0  0  0  0
   15.3523   15.7807   21.4481 H   0  0  0  0  0  0  0  0  0  0  0  0
    7.0945   13.4675   25.6565 H   0  0  0  0  0  0  0  0  0  0  0  0
    6.2950   13.5675   24.0563 H   0  0  0  0  0  0  0  0  0  0  0  0
    4.4199    9.6618   24.3869 H   0  0  0  0  0  0  0  0  0  0  0  0
    5.7739    8.9489   23.4891 H   0  0  0  0  0  0  0  0  0  0  0  0
    5.1591   10.5520   23.0419 H   0  0  0  0  0  0  0  0  0  0  0  0
    5.5029    9.5233   26.5583 H   0  0  0  0  0  0  0  0  0  0  0  0
    7.0649   10.3074   26.8625 H   0  0  0  0  0  0  0  0  0  0  0  0
    6.9973    8.7918   25.9426 H   0  0  0  0  0  0  0  0  0  0  0  0
    8.8030    9.1957   23.5300 H   0  0  0  0  0  0  0  0  0  0  0  0
  1  2  1  0  0  0  0
  1  3  2  0  0  0  0
  2  4  2  0  0  0  0
  3  5  1  0  0  0  0
  4  6  1  0  0  0  0
  5  6  2  0  0  0  0
  5 10  1  0  0  0  0
  6 11  1  0  0  0  0
  7  8  1  0  0  0  0
  7  9  2  0  0  0  0
  7 13  1  0  0  0  0
  8 12  1  0  0  0  0
  8 17  2  0  0  0  0
  9 14  1  0  0  0  0
  9 18  1  0  0  0  0
 10 19  1  0  0  0  0
 10 20  2  0  0  0  0
 11 19  1  0  0  0  0
 11 21  2  0  0  0  0
 12 22  2  0  0  0  0
 12 24  1  0  0  0  0
 13 23  1  0  0  0  0
 14 15  1  0  0  0  0
 14 16  1  0  0  0  0
 14 23  1  0  0  0  0
 17 18  1  0  0  0  0
 19 24  1  0  0  0  0
  1 25  1  0  0  0  0
  2 26  1  0  0  0  0
  3 27  1  0  0  0  0
  4 28  1  0  0  0  0
 13 29  1  0  0  0  0
 13 30  1  0  0  0  0
 15 31  1  0  0  0  0
 15 32  1  0  0  0  0
 15 33  1  0  0  0  0
 16 34  1  0  0  0  0
 16 35  1  0  0  0  0
 16 36  1  0  0  0  0
 18 37  1  0  0  0  0
M  END
> <id>
EN300-6524864

> <smiles>
CC1(C)OCC=2C(=NNC21)C(=O)ON3C(=O)C=4C=CC=CC4C3=O

> <IUPAC Name>
1,3-dioxo-2,3-dihydro-1H-isoindol-2-yl 6,6-dimethyl-1H,4H,6H-furo[3,4-c]pyrazole-3-carboxylate

> <CAS>
2248391-77-5

> <URL>
https://www.enaminestore.com/catalog/EN300-6524864

> <ROCS_ShapeQuery>
x0446_0A_x1080_0A_x0929_0A_x0812_0A_x0719_0A_x1140_0A_x0528_0A_x0310_0A

> <ROCS_TanimotoCombo>
0.413 

> <ROCS_ShapeTanimoto>
0.235 

> <ROCS_ColorTanimoto>
0.178 

> <ROCS_RefTversky>
0.218 

> <ROCS_RefColorTversky>
0.203 

> <ROCS_RefTverskyCombo>
0.421 

> <ROCS_FitTversky>
1.505 

> <ROCS_FitColorTversky>
0.590 

> <ROCS_FitTverskyCombo>
2.094 

> <ROCS_ColorScore>
-7.294

> <ROCS_Overlap>
2575.183

> <ROCS_Rank>
367                 

$$$$
untitled-dbase-570586_6
  -OEChem-02082415563D

 39 41  0     0  0  0  0  0  0999 V2000
    8.4114   13.4943   22.3638 C   0  0  0  0  0  0  0  0  0  0  0  0
    7.5164   12.7011   25.3663 C   0  0  0  0  0  0  0  0  0  0  0  0
    6.3114   11.3715   23.6006 C   0  0  0  0  0  0  0  0  0  0  0  0
    9.1243   10.9053   22.3451 C   0  0  0  0  0  0  0  0  0  0  0  0
   10.1192   12.0027   23.8025 C   0  0  0  0  0  0  0  0  0  0  0  0
    6.4587   12.2083   26.3496 C   0  0  0  0  0  0  0  0  0  0  0  0
    5.3268   10.9605   24.6915 C   0  0  0  0  0  0  0  0  0  0  0  0
    8.7017   12.2122   23.1309 C   0  0  0  0  0  0  0  0  0  0  0  0
    7.6779   11.7233   24.1978 C   0  0  0  0  0  0  0  0  0  0  0  0
    9.5578   10.5302   23.8131 C   0  0  0  0  0  0  0  0  0  0  0  0
   10.1202   16.7136   22.6885 C   0  0  0  0  0  0  0  0  0  0  0  0
   10.4556    9.3606   24.0808 C   0  0  0  0  0  0  0  0  0  0  0  0
    9.1041   15.7413   22.1284 C   0  0  0  0  0  0  0  0  0  0  0  0
   13.3657    7.8455   23.7236 N   0  5  0  0  0  0  0  0  0  0  0  0
   11.7388    9.5557   23.3955 N   0  0  0  0  0  0  0  0  0  0  0  0
   12.5834    8.6613   23.5700 N   0  3  0  0  0  0  0  0  0  0  0  0
    7.5374   13.6016   21.5143 O   0  0  0  0  0  0  0  0  0  0  0  0
    5.2185   11.9771   25.6854 O   0  0  0  0  0  0  0  0  0  0  0  0
    8.3546   10.5272   24.6368 O   0  0  0  0  0  0  0  0  0  0  0  0
    9.2671   14.4739   22.7729 O   0  0  0  0  0  0  0  0  0  0  0  0
    7.2083   13.6799   24.9796 H   0  0  0  0  0  0  0  0  0  0  0  0
    8.4528   12.8414   25.9147 H   0  0  0  0  0  0  0  0  0  0  0  0
    6.3795   10.5536   22.8766 H   0  0  0  0  0  0  0  0  0  0  0  0
    5.9095   12.2464   23.0758 H   0  0  0  0  0  0  0  0  0  0  0  0
    8.3276   10.2960   21.9126 H   0  0  0  0  0  0  0  0  0  0  0  0
    9.9220   11.0102   21.6000 H   0  0  0  0  0  0  0  0  0  0  0  0
   10.9982   12.1979   23.1763 H   0  0  0  0  0  0  0  0  0  0  0  0
   10.2865   12.4568   24.7817 H   0  0  0  0  0  0  0  0  0  0  0  0
    6.7792   11.2914   26.8582 H   0  0  0  0  0  0  0  0  0  0  0  0
    6.2874   12.9674   27.1197 H   0  0  0  0  0  0  0  0  0  0  0  0
    4.3330   10.8130   24.2567 H   0  0  0  0  0  0  0  0  0  0  0  0
    5.6224   10.0163   25.1638 H   0  0  0  0  0  0  0  0  0  0  0  0
    9.9792   16.8486   23.7645 H   0  0  0  0  0  0  0  0  0  0  0  0
   11.1386   16.3545   22.5077 H   0  0  0  0  0  0  0  0  0  0  0  0
   10.0341   17.6879   22.1959 H   0  0  0  0  0  0  0  0  0  0  0  0
   10.0031    8.4237   23.7234 H   0  0  0  0  0  0  0  0  0  0  0  0
   10.6449    9.2447   25.1584 H   0  0  0  0  0  0  0  0  0  0  0  0
    9.2506   15.6107   21.0520 H   0  0  0  0  0  0  0  0  0  0  0  0
    8.0871   16.1012   22.3106 H   0  0  0  0  0  0  0  0  0  0  0  0
  1  8  1  1  0  0  0
  1 17  2  0  0  0  0
  1 20  1  0  0  0  0
  2  6  1  0  0  0  0
  2  9  1  0  0  0  0
  3  7  1  0  0  0  0
  3  9  1  0  0  0  0
  4  8  1  0  0  0  0
  4 10  1  0  0  0  0
  5  8  1  0  0  0  0
  5 10  1  0  0  0  0
  6 18  1  0  0  0  0
  7 18  1  0  0  0  0
  8  9  1  0  0  0  0
  9 19  1  0  0  0  0
 10 12  1  1  0  0  0
 10 19  1  0  0  0  0
 11 13  1  0  0  0  0
 12 15  1  0  0  0  0
 13 20  1  0  0  0  0
 14 16  2  0  0  0  0
 15 16  2  0  0  0  0
  2 21  1  0  0  0  0
  2 22  1  0  0  0  0
  3 23  1  0  0  0  0
  3 24  1  0  0  0  0
  4 25  1  0  0  0  0
  4 26  1  0  0  0  0
  5 27  1  0  0  0  0
  5 28  1  0  0  0  0
  6 29  1  0  0  0  0
  6 30  1  0  0  0  0
  7 31  1  0  0  0  0
  7 32  1  0  0  0  0
 11 33  1  0  0  0  0
 11 34  1  0  0  0  0
 11 35  1  0  0  0  0
 12 36  1  0  0  0  0
 12 37  1  0  0  0  0
 13 38  1  0  0  0  0
 13 39  1  0  0  0  0
M  CHG  2  14  -1  16   1
M  END
> <id>
EN300-37375210

> <smiles>
CCOC(=O)[C@]1(C[C@@]2(CN=[N+]=[N-])C1)C3(CCOCC3)O2

> <IUPAC Name>
ethyl 4-(azidomethyl)-3-oxaspiro[bicyclo[2.1.1]hexane-2,4'-oxane]-1-carboxylate

> <CAS>
2225146-56-3

> <URL>
https://www.enaminestore.com/catalog/EN300-37375210

> <ROCS_ShapeQuery>
x0446_0A_x1080_0A_x0929_0A_x0812_0A_x0719_0A_x1140_0A_x0528_0A_x0310_0A

> <ROCS_TanimotoCombo>
0.413 

> <ROCS_ShapeTanimoto>
0.219 

> <ROCS_ColorTanimoto>
0.194 

> <ROCS_RefTversky>
0.202 

> <ROCS_RefColorTversky>
0.217 

> <ROCS_RefTverskyCombo>
0.419 

> <ROCS_FitTversky>
1.626 

> <ROCS_FitColorTversky>
0.644 

> <ROCS_FitTverskyCombo>
2.270 

> <ROCS_ColorScore>
-7.781

> <ROCS_Overlap>
2388.461

> <ROCS_Rank>
368                 

$$$$
untitled-dbase-46926_9
  -OEChem-02082415563D

 36 38  0     0  0  0  0  0  0999 V2000
   13.1065   16.4065   21.7875 C   0  0  0  0  0  0  0  0  0  0  0  0
   13.7357   15.2671   22.2889 C   0  0  0  0  0  0  0  0  0  0  0  0
   11.7170   16.4412   21.6697 C   0  0  0  0  0  0  0  0  0  0  0  0
   12.9755   14.1624   22.6725 C   0  0  0  0  0  0  0  0  0  0  0  0
   10.9568   15.3365   22.0533 C   0  0  0  0  0  0  0  0  0  0  0  0
    7.4229   10.5881   24.4518 C   0  0  0  0  0  0  0  0  0  0  0  0
   11.5860   14.1970   22.5547 C   0  0  0  0  0  0  0  0  0  0  0  0
    7.5812   11.9662   24.2649 C   0  0  0  0  0  0  0  0  0  0  0  0
    8.8557   12.1108   23.7664 C   0  0  0  0  0  0  0  0  0  0  0  0
   11.4311   11.6804   22.8224 C   0  0  0  0  0  0  0  0  0  0  0  0
   10.7757   13.0193   22.9636 C   0  0  0  0  0  0  0  0  0  0  0  0
   10.6961   10.6209   23.1970 C   0  0  0  0  0  0  0  0  0  0  0  0
    6.6519   13.0246   24.5227 C   0  0  0  0  0  0  0  0  0  0  0  0
    4.5979   13.9834   26.7536 C   0  0  0  0  0  0  0  0  0  0  0  0
    4.4400   13.5284   25.3184 C   0  0  0  0  0  0  0  0  0  0  0  0
   11.2164    9.2175   23.1111 C   0  0  0  0  0  0  0  0  0  0  0  0
    8.5033    9.8914   24.1041 N   0  0  0  0  0  0  0  0  0  0  0  0
    9.5634   13.2128   23.3977 N   0  0  0  0  0  0  0  0  0  0  0  0
    9.3962   10.8278   23.6785 N   0  0  0  0  0  0  0  0  0  0  0  0
    6.8697   14.2410   24.3280 O   0  0  0  0  0  0  0  0  0  0  0  0
    5.4545   12.5630   25.0210 O   0  0  0  0  0  0  0  0  0  0  0  0
   11.2093    8.6388   24.3331 F   0  0  0  0  0  0  0  0  0  0  0  0
   10.4217    8.4710   22.3121 F   0  0  0  0  0  0  0  0  0  0  0  0
   13.6985   17.2667   21.4888 H   0  0  0  0  0  0  0  0  0  0  0  0
   14.8176   15.2402   22.3803 H   0  0  0  0  0  0  0  0  0  0  0  0
   11.2271   17.3285   21.2796 H   0  0  0  0  0  0  0  0  0  0  0  0
   13.4761   13.2796   23.0620 H   0  0  0  0  0  0  0  0  0  0  0  0
    9.8748   15.3746   21.9571 H   0  0  0  0  0  0  0  0  0  0  0  0
    6.5624   10.0533   24.8284 H   0  0  0  0  0  0  0  0  0  0  0  0
   12.4417   11.6047   22.4414 H   0  0  0  0  0  0  0  0  0  0  0  0
    4.4918   13.1418   27.4437 H   0  0  0  0  0  0  0  0  0  0  0  0
    5.5792   14.4445   26.9066 H   0  0  0  0  0  0  0  0  0  0  0  0
    3.8479   14.7413   27.0027 H   0  0  0  0  0  0  0  0  0  0  0  0
    4.5473   14.3748   24.6335 H   0  0  0  0  0  0  0  0  0  0  0  0
    3.4594   13.0672   25.1675 H   0  0  0  0  0  0  0  0  0  0  0  0
   12.2287    9.2138   22.7170 H   0  0  0  0  0  0  0  0  0  0  0  0
  1  2  1  0  0  0  0
  1  3  2  0  0  0  0
  2  4  2  0  0  0  0
  3  5  1  0  0  0  0
  4  7  1  0  0  0  0
  5  7  2  0  0  0  0
  6  8  1  0  0  0  0
  6 17  2  0  0  0  0
  7 11  1  0  0  0  0
  8  9  2  0  0  0  0
  8 13  1  0  0  0  0
  9 18  1  0  0  0  0
  9 19  1  0  0  0  0
 10 11  1  0  0  0  0
 10 12  2  0  0  0  0
 11 18  2  0  0  0  0
 12 16  1  0  0  0  0
 12 19  1  0  0  0  0
 13 20  2  0  0  0  0
 13 21  1  0  0  0  0
 14 15  1  0  0  0  0
 15 21  1  0  0  0  0
 16 22  1  0  0  0  0
 16 23  1  0  0  0  0
 17 19  1  0  0  0  0
  1 24  1  0  0  0  0
  2 25  1  0  0  0  0
  3 26  1  0  0  0  0
  4 27  1  0  0  0  0
  5 28  1  0  0  0  0
  6 29  1  0  0  0  0
 10 30  1  0  0  0  0
 14 31  1  0  0  0  0
 14 32  1  0  0  0  0
 14 33  1  0  0  0  0
 15 34  1  0  0  0  0
 15 35  1  0  0  0  0
 16 36  1  0  0  0  0
M  END
> <id>
EN300-228187

> <smiles>
CCOC(=O)C=1C=NN2C(=CC(=NC12)C=3C=CC=CC3)C(F)F

> <MDLNUMBER>
MFCD02253789

> <IUPAC Name>
ethyl 7-(difluoromethyl)-5-phenylpyrazolo[1,5-a]pyrimidine-3-carboxylate

> <CAS>
438219-16-0

> <URL>
https://www.enaminestore.com/catalog/EN300-228187

> <ROCS_ShapeQuery>
x0446_0A_x1080_0A_x0929_0A_x0812_0A_x0719_0A_x1140_0A_x0528_0A_x0310_0A

> <ROCS_TanimotoCombo>
0.413 

> <ROCS_ShapeTanimoto>
0.267 

> <ROCS_ColorTanimoto>
0.147 

> <ROCS_RefTversky>
0.240 

> <ROCS_RefColorTversky>
0.155 

> <ROCS_RefTverskyCombo>
0.395 

> <ROCS_FitTversky>
1.734 

> <ROCS_FitColorTversky>
0.728 

> <ROCS_FitTverskyCombo>
2.462 

> <ROCS_ColorScore>
-5.523

> <ROCS_Overlap>
2830.327

> <ROCS_Rank>
369                 

$$$$
untitled-dbase-439588_3
  -OEChem-02082415563D

 43 47  0     1  0  0  0  0  0999 V2000
   13.6072   18.5904   20.9208 C   0  0  0  0  0  0  0  0  0  0  0  0
   14.7374   17.7612   21.0807 C   0  0  0  0  0  0  0  0  0  0  0  0
   12.3127   18.0719   21.0207 C   0  0  0  0  0  0  0  0  0  0  0  0
   14.5980   16.3954   21.3440 C   0  0  0  0  0  0  0  0  0  0  0  0
   12.1969   16.7232   21.2841 C   0  0  0  0  0  0  0  0  0  0  0  0
   13.3130   15.9044   21.4419 C   0  0  0  0  0  0  0  0  0  0  0  0
   10.9989   15.8912   21.4355 C   0  0  0  0  0  0  0  0  0  0  0  0
   12.8417   14.5392   21.6958 C   0  0  0  0  0  0  0  0  0  0  0  0
   10.3797   13.4570   23.3403 C   0  0  0  0  0  0  0  0  0  0  0  0
    7.9401   10.5676   25.4311 C   0  0  0  0  0  0  0  0  0  0  0  0
   10.1715   11.2699   24.5254 C   0  0  0  0  0  0  0  0  0  0  0  0
    8.1716   12.7641   24.2401 C   0  0  0  0  0  0  0  0  0  0  0  0
    8.9165    9.3868   23.4458 C   0  0  0  0  0  0  0  0  0  0  0  0
    6.9201   10.8776   23.1617 C   0  0  0  0  0  0  0  0  0  0  0  0
    9.1483   11.5800   22.2528 C   0  0  0  0  0  0  0  0  0  0  0  0
    9.2453   10.0677   24.7847 C   0  0  2  0  0  0  0  0  0  0  0  0
    7.2348   11.5695   24.4984 C   0  0  1  0  0  0  0  0  0  0  0  0
    9.4810   12.2792   23.5848 C   0  0  0  0  0  0  0  0  0  0  0  0
    8.2207   10.3864   22.5132 C   0  0  0  0  0  0  0  0  0  0  0  0
   11.4869   14.6532   21.7149 N   0  0  0  0  0  0  0  0  0  0  0  0
    9.8555   16.2913   21.3375 O   0  0  0  0  0  0  0  0  0  0  0  0
   13.5605   13.5732   21.8604 O   0  0  0  0  0  0  0  0  0  0  0  0
   10.7946   14.1961   24.2231 O   0  0  0  0  0  0  0  0  0  0  0  0
   10.6431   13.5590   22.0054 O   0  0  0  0  0  0  0  0  0  0  0  0
    7.9331    9.7768   21.3366 F   0  0  0  0  0  0  0  0  0  0  0  0
   13.7478   19.6486   20.7154 H   0  0  0  0  0  0  0  0  0  0  0  0
   15.7312   18.1934   20.9960 H   0  0  0  0  0  0  0  0  0  0  0  0
   11.4455   18.7092   20.8952 H   0  0  0  0  0  0  0  0  0  0  0  0
   15.4666   15.7590   21.4639 H   0  0  0  0  0  0  0  0  0  0  0  0
    7.2767    9.7188   25.6377 H   0  0  0  0  0  0  0  0  0  0  0  0
    8.1585   11.0437   26.3949 H   0  0  0  0  0  0  0  0  0  0  0  0
   10.4324   11.7501   25.4777 H   0  0  0  0  0  0  0  0  0  0  0  0
   11.1171   10.9257   24.0863 H   0  0  0  0  0  0  0  0  0  0  0  0
    7.6710   13.4982   23.5949 H   0  0  0  0  0  0  0  0  0  0  0  0
    8.3860   13.2817   25.1845 H   0  0  0  0  0  0  0  0  0  0  0  0
    9.8305    9.0066   22.9728 H   0  0  0  0  0  0  0  0  0  0  0  0
    8.2725    8.5135   23.6066 H   0  0  0  0  0  0  0  0  0  0  0  0
    6.2369   10.0334   23.3172 H   0  0  0  0  0  0  0  0  0  0  0  0
    6.4007   11.5671   22.4847 H   0  0  0  0  0  0  0  0  0  0  0  0
    8.6710   12.2766   21.5510 H   0  0  0  0  0  0  0  0  0  0  0  0
   10.0636   11.2415   21.7494 H   0  0  0  0  0  0  0  0  0  0  0  0
    9.7408    9.3545   25.4525 H   0  0  0  0  0  0  0  0  0  0  0  0
    6.3066   11.9195   24.9634 H   0  0  0  0  0  0  0  0  0  0  0  0
  1  2  1  0  0  0  0
  1  3  2  0  0  0  0
  2  4  2  0  0  0  0
  3  5  1  0  0  0  0
  4  6  1  0  0  0  0
  5  6  2  0  0  0  0
  5  7  1  0  0  0  0
  6  8  1  0  0  0  0
  7 20  1  0  0  0  0
  7 21  2  0  0  0  0
  8 20  1  0  0  0  0
  8 22  2  0  0  0  0
  9 18  1  0  0  0  0
  9 23  2  0  0  0  0
  9 24  1  0  0  0  0
 10 16  1  0  0  0  0
 10 17  1  0  0  0  0
 11 16  1  0  0  0  0
 11 18  1  0  0  0  0
 12 17  1  0  0  0  0
 12 18  1  0  0  0  0
 13 16  1  0  0  0  0
 13 19  1  0  0  0  0
 14 17  1  0  0  0  0
 14 19  1  0  0  0  0
 15 18  1  0  0  0  0
 15 19  1  0  0  0  0
 19 25  1  0  0  0  0
 20 24  1  0  0  0  0
  1 26  1  0  0  0  0
  2 27  1  0  0  0  0
  3 28  1  0  0  0  0
  4 29  1  0  0  0  0
 10 30  1  0  0  0  0
 10 31  1  0  0  0  0
 11 32  1  0  0  0  0
 11 33  1  0  0  0  0
 12 34  1  0  0  0  0
 12 35  1  0  0  0  0
 13 36  1  0  0  0  0
 13 37  1  0  0  0  0
 14 38  1  0  0  0  0
 14 39  1  0  0  0  0
 15 40  1  0  0  0  0
 15 41  1  0  0  0  0
 16 42  1  0  0  0  0
 17 43  1  0  0  0  0
M  END
> <id>
EN300-6518436

> <smiles>
FC1(CC2CC3C1)CC(C2)(C3)C(=O)ON4C(=O)C=5C=CC=CC5C4=O

> <IUPAC Name>
1,3-dioxo-2,3-dihydro-1H-isoindol-2-yl 3-fluoroadamantane-1-carboxylate

> <CAS>
2248339-75-3

> <URL>
https://www.enaminestore.com/catalog/EN300-6518436

> <ROCS_ShapeQuery>
x0446_0A_x1080_0A_x0929_0A_x0812_0A_x0719_0A_x1140_0A_x0528_0A_x0310_0A

> <ROCS_TanimotoCombo>
0.413 

> <ROCS_ShapeTanimoto>
0.240 

> <ROCS_ColorTanimoto>
0.173 

> <ROCS_RefTversky>
0.222 

> <ROCS_RefColorTversky>
0.200 

> <ROCS_RefTverskyCombo>
0.422 

> <ROCS_FitTversky>
1.498 

> <ROCS_FitColorTversky>
0.563 

> <ROCS_FitTverskyCombo>
2.061 

> <ROCS_ColorScore>
-7.193

> <ROCS_Overlap>
2624.199

> <ROCS_Rank>
370                 

$$$$
untitled-dbase-15347_4
  -OEChem-02082415563D

 39 41  0     1  0  0  0  0  0999 V2000
   10.0021   14.0318   21.8211 C   0  0  0  0  0  0  0  0  0  0  0  0
   12.0746   16.1382   21.3889 C   0  0  0  0  0  0  0  0  0  0  0  0
    8.5272   11.7272   25.1574 C   0  0  0  0  0  0  0  0  0  0  0  0
    7.6108   10.6564   23.0825 C   0  0  0  0  0  0  0  0  0  0  0  0
    9.9677   10.1867   23.7993 C   0  0  0  0  0  0  0  0  0  0  0  0
    8.0887   13.1178   23.1169 C   0  0  0  0  0  0  0  0  0  0  0  0
   10.4496   12.6472   23.8351 C   0  0  0  0  0  0  0  0  0  0  0  0
    9.5316   11.5761   21.7569 C   0  0  0  0  0  0  0  0  0  0  0  0
    7.5914   11.9254   23.9524 C   0  0  0  0  0  0  0  0  0  0  0  0
    9.9617   11.4529   24.6735 C   0  0  0  0  0  0  0  0  0  0  0  0
    9.0402   10.3767   22.5864 C   0  0  0  0  0  0  0  0  0  0  0  0
    9.5239   12.8534   22.6196 C   0  0  0  0  0  0  0  0  0  0  0  0
   11.1109   15.1764   19.2854 C   0  0  0  0  0  0  0  0  0  0  0  0
   11.9389   14.9065   20.5301 C   0  0  2  0  0  0  0  0  0  0  0  0
   11.2847   13.8927   21.3260 N   0  0  0  0  0  0  0  0  0  0  0  0
    9.2620   14.9957   21.6642 O   0  0  0  0  0  0  0  0  0  0  0  0
   12.1412   16.1638   22.6094 O   0  0  0  0  0  0  0  0  0  0  0  0
   12.1363   17.2532   20.6152 O   0  0  0  0  0  0  0  0  0  0  0  0
    8.5114   12.6200   25.7945 H   0  0  0  0  0  0  0  0  0  0  0  0
    8.1735   10.8904   25.7718 H   0  0  0  0  0  0  0  0  0  0  0  0
    7.2412    9.8007   23.6608 H   0  0  0  0  0  0  0  0  0  0  0  0
    6.9350   10.7786   22.2272 H   0  0  0  0  0  0  0  0  0  0  0  0
   10.9883    9.9705   23.4601 H   0  0  0  0  0  0  0  0  0  0  0  0
    9.6393    9.3227   24.3900 H   0  0  0  0  0  0  0  0  0  0  0  0
    7.4151   13.2861   22.2664 H   0  0  0  0  0  0  0  0  0  0  0  0
    8.0554   14.0347   23.7203 H   0  0  0  0  0  0  0  0  0  0  0  0
   10.4745   13.5526   24.4557 H   0  0  0  0  0  0  0  0  0  0  0  0
   11.4819   12.4748   23.5034 H   0  0  0  0  0  0  0  0  0  0  0  0
   10.5422   11.3776   21.3762 H   0  0  0  0  0  0  0  0  0  0  0  0
    8.8914   11.7068   20.8745 H   0  0  0  0  0  0  0  0  0  0  0  0
    6.5717   12.1184   24.3032 H   0  0  0  0  0  0  0  0  0  0  0  0
   10.6227   11.3109   25.5357 H   0  0  0  0  0  0  0  0  0  0  0  0
    9.0476    9.4718   21.9690 H   0  0  0  0  0  0  0  0  0  0  0  0
   10.1123   15.5418   19.5469 H   0  0  0  0  0  0  0  0  0  0  0  0
   11.5917   15.9283   18.6504 H   0  0  0  0  0  0  0  0  0  0  0  0
   10.9831   14.2671   18.6869 H   0  0  0  0  0  0  0  0  0  0  0  0
   12.9384   14.5408   20.2732 H   0  0  0  0  0  0  0  0  0  0  0  0
   11.7920   13.0372   21.5312 H   0  0  0  0  0  0  0  0  0  0  0  0
   12.2394   18.0666   21.1539 H   0  0  0  0  0  0  0  0  0  0  0  0
  1 12  1  0  0  0  0
  1 15  1  0  0  0  0
  1 16  2  0  0  0  0
  2 14  1  0  0  0  0
  2 17  2  0  0  0  0
  2 18  1  0  0  0  0
  3  9  1  0  0  0  0
  3 10  1  0  0  0  0
  4  9  1  0  0  0  0
  4 11  1  0  0  0  0
  5 10  1  0  0  0  0
  5 11  1  0  0  0  0
  6  9  1  0  0  0  0
  6 12  1  0  0  0  0
  7 10  1  0  0  0  0
  7 12  1  0  0  0  0
  8 11  1  0  0  0  0
  8 12  1  0  0  0  0
 13 14  1  1  0  0  0
 14 15  1  0  0  0  0
  3 19  1  0  0  0  0
  3 20  1  0  0  0  0
  4 21  1  0  0  0  0
  4 22  1  0  0  0  0
  5 23  1  0  0  0  0
  5 24  1  0  0  0  0
  6 25  1  0  0  0  0
  6 26  1  0  0  0  0
  7 27  1  0  0  0  0
  7 28  1  0  0  0  0
  8 29  1  0  0  0  0
  8 30  1  0  0  0  0
  9 31  1  0  0  0  0
 10 32  1  0  0  0  0
 11 33  1  0  0  0  0
 13 34  1  0  0  0  0
 13 35  1  0  0  0  0
 13 36  1  0  0  0  0
 14 37  1  0  0  0  0
 15 38  1  0  0  0  0
 18 39  1  0  0  0  0
M  END
> <id>
EN300-87642

> <smiles>
C[C@H](NC(=O)C1(CC2CC3CC(C2)C1)C3)C(=O)O

> <IUPAC Name>
(2S)-2-[(adamantan-1-yl)formamido]propanoic acid

> <CAS>
211484-76-3

> <URL>
https://www.enaminestore.com/catalog/EN300-87642

> <ROCS_ShapeQuery>
x0446_0A_x1080_0A_x0929_0A_x0812_0A_x0719_0A_x1140_0A_x0528_0A_x0310_0A

> <ROCS_TanimotoCombo>
0.413 

> <ROCS_ShapeTanimoto>
0.219 

> <ROCS_ColorTanimoto>
0.194 

> <ROCS_RefTversky>
0.201 

> <ROCS_RefColorTversky>
0.220 

> <ROCS_RefTverskyCombo>
0.421 

> <ROCS_FitTversky>
1.714 

> <ROCS_FitColorTversky>
0.618 

> <ROCS_FitTverskyCombo>
2.332 

> <ROCS_ColorScore>
-7.896

> <ROCS_Overlap>
2372.489

> <ROCS_Rank>
371                 

$$$$
untitled-dbase-584144_1
  -OEChem-02082415563D

 39 41  0     1  0  0  0  0  0999 V2000
    6.0139   11.0180   24.9281 C   0  0  0  0  0  0  0  0  0  0  0  0
   10.4974   13.2619   23.1912 C   0  0  0  0  0  0  0  0  0  0  0  0
    9.7686    9.9253   24.3822 C   0  0  0  0  0  0  0  0  0  0  0  0
    9.3996    9.8987   22.8838 C   0  0  0  0  0  0  0  0  0  0  0  0
    7.0194   12.8590   23.4693 C   0  0  0  0  0  0  0  0  0  0  0  0
    8.4094   11.8158   25.4158 C   0  0  0  0  0  0  0  0  0  0  0  0
    7.5550   11.5554   22.9510 C   0  0  1  0  0  0  0  0  0  0  0  0
    9.7545   11.4133   24.7759 C   0  0  2  0  0  0  0  0  0  0  0  0
    9.0027   11.3431   22.5646 C   0  0  1  0  0  0  0  0  0  0  0  0
    7.2303   11.7039   24.4393 C   0  0  1  0  0  0  0  0  0  0  0  0
   12.5274   14.6729   21.7574 C   0  0  0  0  0  0  0  0  0  0  0  0
   10.7905   14.9820   19.9694 C   0  0  0  0  0  0  0  0  0  0  0  0
   10.4255   15.9664   22.2510 C   0  0  0  0  0  0  0  0  0  0  0  0
   11.0331   14.8043   21.4666 C   0  0  0  0  0  0  0  0  0  0  0  0
    9.8465   12.0805   23.4868 N   0  0  0  0  0  0  0  0  0  0  0  0
    5.1236   11.5843   25.5535 O   0  0  0  0  0  0  0  0  0  0  0  0
   11.1125   13.9363   24.0139 O   0  0  0  0  0  0  0  0  0  0  0  0
   10.3826   13.5936   21.8683 O   0  0  0  0  0  0  0  0  0  0  0  0
    5.9474    9.9418   24.6953 H   0  0  0  0  0  0  0  0  0  0  0  0
    9.0710    9.3254   24.9759 H   0  0  0  0  0  0  0  0  0  0  0  0
   10.7706    9.5014   24.5149 H   0  0  0  0  0  0  0  0  0  0  0  0
   10.2819    9.6111   22.2997 H   0  0  0  0  0  0  0  0  0  0  0  0
    8.6050    9.1736   22.6801 H   0  0  0  0  0  0  0  0  0  0  0  0
    7.6751   13.7186   23.5282 H   0  0  0  0  0  0  0  0  0  0  0  0
    6.0023   13.1229   23.1985 H   0  0  0  0  0  0  0  0  0  0  0  0
    8.2240   11.1847   26.2937 H   0  0  0  0  0  0  0  0  0  0  0  0
    8.4684   12.8490   25.7807 H   0  0  0  0  0  0  0  0  0  0  0  0
    6.8852   10.9689   22.3308 H   0  0  0  0  0  0  0  0  0  0  0  0
   10.5863   11.6680   25.4393 H   0  0  0  0  0  0  0  0  0  0  0  0
    9.1793   11.6225   21.5221 H   0  0  0  0  0  0  0  0  0  0  0  0
   12.7057   14.5452   22.8311 H   0  0  0  0  0  0  0  0  0  0  0  0
   12.9681   13.8218   21.2281 H   0  0  0  0  0  0  0  0  0  0  0  0
   13.0648   15.5809   21.4606 H   0  0  0  0  0  0  0  0  0  0  0  0
    9.7196   15.0766   19.7562 H   0  0  0  0  0  0  0  0  0  0  0  0
   11.1402   14.1063   19.4107 H   0  0  0  0  0  0  0  0  0  0  0  0
   11.3013   15.8685   19.5797 H   0  0  0  0  0  0  0  0  0  0  0  0
    9.3537   16.0608   22.0426 H   0  0  0  0  0  0  0  0  0  0  0  0
   10.5577   15.8374   23.3302 H   0  0  0  0  0  0  0  0  0  0  0  0
   10.8830   16.9175   21.9554 H   0  0  0  0  0  0  0  0  0  0  0  0
  1 10  1  6  0  0  0
  1 16  2  0  0  0  0
  2 15  1  0  0  0  0
  2 17  2  0  0  0  0
  2 18  1  0  0  0  0
  3  4  1  0  0  0  0
  3  8  1  0  0  0  0
  4  9  1  0  0  0  0
  5  7  1  1  0  0  0
  5 10  1  0  0  0  0
  6  8  1  0  0  0  0
  6 10  1  0  0  0  0
  7  9  1  0  0  0  0
  7 10  1  0  0  0  0
  8 15  1  1  0  0  0
  9 15  1  1  0  0  0
 11 14  1  0  0  0  0
 12 14  1  0  0  0  0
 13 14  1  0  0  0  0
 14 18  1  0  0  0  0
  1 19  1  0  0  0  0
  3 20  1  0  0  0  0
  3 21  1  0  0  0  0
  4 22  1  0  0  0  0
  4 23  1  0  0  0  0
  5 24  1  0  0  0  0
  5 25  1  0  0  0  0
  6 26  1  0  0  0  0
  6 27  1  0  0  0  0
  7 28  1  0  0  0  0
  8 29  1  0  0  0  0
  9 30  1  0  0  0  0
 11 31  1  0  0  0  0
 11 32  1  0  0  0  0
 11 33  1  0  0  0  0
 12 34  1  0  0  0  0
 12 35  1  0  0  0  0
 12 36  1  0  0  0  0
 13 37  1  0  0  0  0
 13 38  1  0  0  0  0
 13 39  1  0  0  0  0
M  END
> <id>
EN300-7263117

> <smiles>
CC(C)(C)OC(=O)N1[C@@H]2CC[C@H]1[C@@H]3C[C@@]3(C2)C=O |&1:8,11,12,14,r|

> <IUPAC Name>
rac-tert-butyl (1R,2S,4R,6S)-4-formyl-9-azatricyclo[4.2.1.0,2,4]nonane-9-carboxylate

> <Purity>
95

> <URL>
https://www.enaminestore.com/catalog/EN300-7263117

> <ROCS_ShapeQuery>
x0446_0A_x1080_0A_x0929_0A_x0812_0A_x0719_0A_x1140_0A_x0528_0A_x0310_0A

> <ROCS_TanimotoCombo>
0.413 

> <ROCS_ShapeTanimoto>
0.233 

> <ROCS_ColorTanimoto>
0.180 

> <ROCS_RefTversky>
0.211 

> <ROCS_RefColorTversky>
0.212 

> <ROCS_RefTverskyCombo>
0.424 

> <ROCS_FitTversky>
1.797 

> <ROCS_FitColorTversky>
0.540 

> <ROCS_FitTverskyCombo>
2.337 

> <ROCS_ColorScore>
-7.639

> <ROCS_Overlap>
2493.929

> <ROCS_Rank>
372                 

$$$$
untitled-dbase-372369_1
  -OEChem-02082415563D

 42 44  0     0  0  0  0  0  0999 V2000
   12.4709   15.6791   22.1758 C   0  0  0  0  0  0  0  0  0  0  0  0
    5.7313   12.0050   25.8221 C   0  0  0  0  0  0  0  0  0  0  0  0
    5.8885   13.1815   25.0857 C   0  0  0  0  0  0  0  0  0  0  0  0
    6.5458   10.8907   25.5841 C   0  0  0  0  0  0  0  0  0  0  0  0
    6.8623   13.2882   24.0872 C   0  0  0  0  0  0  0  0  0  0  0  0
    7.5292   10.9803   24.5846 C   0  0  0  0  0  0  0  0  0  0  0  0
    7.6618   12.1661   23.8675 C   0  0  0  0  0  0  0  0  0  0  0  0
    9.1232   10.6432   23.2043 C   0  0  0  0  0  0  0  0  0  0  0  0
   10.5382   13.4727   22.4370 C   0  0  0  0  0  0  0  0  0  0  0  0
   15.5441   14.0889   20.8611 C   0  0  0  0  0  0  0  0  0  0  0  0
   14.6800   15.0655   20.0713 C   0  0  0  0  0  0  0  0  0  0  0  0
   15.0107   13.8834   22.2743 C   0  0  0  0  0  0  0  0  0  0  0  0
   13.2121   14.6352   20.0548 C   0  0  0  0  0  0  0  0  0  0  0  0
   13.5442   13.4480   22.2669 C   0  0  0  0  0  0  0  0  0  0  0  0
   12.6317   14.3951   21.4626 C   0  0  0  0  0  0  0  0  0  0  0  0
    9.2197   12.8634   22.0110 C   0  0  0  0  0  0  0  0  0  0  0  0
   10.2269   10.0482   22.4230 C   0  0  0  0  0  0  0  0  0  0  0  0
   12.3445   16.6873   22.7359 N   0  0  0  0  0  0  0  0  0  0  0  0
    8.4454   10.0460   24.1588 N   0  0  0  0  0  0  0  0  0  0  0  0
    8.6886   11.9219   22.9919 N   0  0  0  0  0  0  0  0  0  0  0  0
   11.3147   13.7973   21.3395 N   0  0  0  0  0  0  0  0  0  0  0  0
   10.8568   13.6444   23.6106 O   0  0  0  0  0  0  0  0  0  0  0  0
   10.5266    8.7552   22.7690 F   0  0  0  0  0  0  0  0  0  0  0  0
    9.9937    9.9967   21.0723 F   0  0  0  0  0  0  0  0  0  0  0  0
   11.4080   10.7312   22.5519 F   0  0  0  0  0  0  0  0  0  0  0  0
    4.9665   11.9529   26.5926 H   0  0  0  0  0  0  0  0  0  0  0  0
    5.2416   14.0309   25.2916 H   0  0  0  0  0  0  0  0  0  0  0  0
    6.4159    9.9817   26.1624 H   0  0  0  0  0  0  0  0  0  0  0  0
    6.9842   14.2021   23.5167 H   0  0  0  0  0  0  0  0  0  0  0  0
   15.5842   13.1265   20.3388 H   0  0  0  0  0  0  0  0  0  0  0  0
   16.5720   14.4687   20.9103 H   0  0  0  0  0  0  0  0  0  0  0  0
   14.7616   16.0657   20.5129 H   0  0  0  0  0  0  0  0  0  0  0  0
   15.0568   15.1433   19.0440 H   0  0  0  0  0  0  0  0  0  0  0  0
   15.6165   13.1284   22.7884 H   0  0  0  0  0  0  0  0  0  0  0  0
   15.1134   14.8134   22.8438 H   0  0  0  0  0  0  0  0  0  0  0  0
   12.6278   15.4178   19.5463 H   0  0  0  0  0  0  0  0  0  0  0  0
   13.1014   13.7359   19.4311 H   0  0  0  0  0  0  0  0  0  0  0  0
   13.4693   12.4200   21.8874 H   0  0  0  0  0  0  0  0  0  0  0  0
   13.1953   13.4040   23.3088 H   0  0  0  0  0  0  0  0  0  0  0  0
    9.3470   12.3308   21.0619 H   0  0  0  0  0  0  0  0  0  0  0  0
    8.4755   13.6540   21.8621 H   0  0  0  0  0  0  0  0  0  0  0  0
   10.9843   13.5873   20.4061 H   0  0  0  0  0  0  0  0  0  0  0  0
  1 15  1  0  0  0  0
  1 18  3  0  0  0  0
  2  3  1  0  0  0  0
  2  4  2  0  0  0  0
  3  5  2  0  0  0  0
  4  6  1  0  0  0  0
  5  7  1  0  0  0  0
  6  7  2  0  0  0  0
  6 19  1  0  0  0  0
  7 20  1  0  0  0  0
  8 17  1  0  0  0  0
  8 19  2  0  0  0  0
  8 20  1  0  0  0  0
  9 16  1  0  0  0  0
  9 21  1  0  0  0  0
  9 22  2  0  0  0  0
 10 11  1  0  0  0  0
 10 12  1  0  0  0  0
 11 13  1  0  0  0  0
 12 14  1  0  0  0  0
 13 15  1  0  0  0  0
 14 15  1  0  0  0  0
 15 21  1  0  0  0  0
 16 20  1  0  0  0  0
 17 23  1  0  0  0  0
 17 24  1  0  0  0  0
 17 25  1  0  0  0  0
  2 26  1  0  0  0  0
  3 27  1  0  0  0  0
  4 28  1  0  0  0  0
  5 29  1  0  0  0  0
 10 30  1  0  0  0  0
 10 31  1  0  0  0  0
 11 32  1  0  0  0  0
 11 33  1  0  0  0  0
 12 34  1  0  0  0  0
 12 35  1  0  0  0  0
 13 36  1  0  0  0  0
 13 37  1  0  0  0  0
 14 38  1  0  0  0  0
 14 39  1  0  0  0  0
 16 40  1  0  0  0  0
 16 41  1  0  0  0  0
 21 42  1  0  0  0  0
M  END
> <id>
EN300-26687796

> <smiles>
FC(F)(F)C1=NC=2C=CC=CC2N1CC(=O)NC3(CCCCC3)C#N

> <IUPAC Name>
N-(1-cyanocyclohexyl)-2-[2-(trifluoromethyl)-1H-1,3-benzodiazol-1-yl]acetamide

> <CAS>
1090729-95-5

> <URL>
https://www.enaminestore.com/catalog/EN300-26687796

> <ROCS_ShapeQuery>
x0446_0A_x1080_0A_x0929_0A_x0812_0A_x0719_0A_x1140_0A_x0528_0A_x0310_0A

> <ROCS_TanimotoCombo>
0.413 

> <ROCS_ShapeTanimoto>
0.253 

> <ROCS_ColorTanimoto>
0.160 

> <ROCS_RefTversky>
0.231 

> <ROCS_RefColorTversky>
0.175 

> <ROCS_RefTverskyCombo>
0.406 

> <ROCS_FitTversky>
1.598 

> <ROCS_FitColorTversky>
0.658 

> <ROCS_FitTverskyCombo>
2.257 

> <ROCS_ColorScore>
-6.242

> <ROCS_Overlap>
2729.614

> <ROCS_Rank>
373                 

$$$$
untitled-dbase-150239_2
  -OEChem-02082415563D

 43 46  0     1  0  0  0  0  0999 V2000
   10.3094   14.6679   21.8647 C   0  0  0  0  0  0  0  0  0  0  0  0
   11.7978   14.1678   23.7009 C   0  0  0  0  0  0  0  0  0  0  0  0
   11.0582   15.8066   21.5678 C   0  0  0  0  0  0  0  0  0  0  0  0
   12.5467   15.3065   23.4040 C   0  0  0  0  0  0  0  0  0  0  0  0
   10.6791   13.8485   22.9314 C   0  0  0  0  0  0  0  0  0  0  0  0
   12.1769   16.1259   22.3374 C   0  0  0  0  0  0  0  0  0  0  0  0
    6.1435   12.1703   24.3135 C   0  0  0  0  0  0  0  0  0  0  0  0
    9.5864    9.6459   23.6944 C   0  0  0  0  0  0  0  0  0  0  0  0
    9.7896   11.5602   22.0912 C   0  0  0  0  0  0  0  0  0  0  0  0
   10.4642   11.8583   24.4883 C   0  0  0  0  0  0  0  0  0  0  0  0
    7.5245   10.7668   22.8115 C   0  0  0  0  0  0  0  0  0  0  0  0
    8.1937   11.0740   25.2110 C   0  0  0  0  0  0  0  0  0  0  0  0
    8.3874   12.9914   23.5986 C   0  0  0  0  0  0  0  0  0  0  0  0
    8.9550   10.3254   22.4715 C   0  0  2  0  0  0  0  0  0  0  0  0
    9.6254   10.6273   24.8739 C   0  0  1  0  0  0  0  0  0  0  0  0
    9.8544   12.5934   23.2583 C   0  0  0  0  0  0  0  0  0  0  0  0
    7.5507   11.7558   23.9885 C   0  0  0  0  0  0  0  0  0  0  0  0
   14.0396   17.5037   22.8738 C   0  0  0  0  0  0  0  0  0  0  0  0
    5.5913   11.9959   25.3896 O   0  0  0  0  0  0  0  0  0  0  0  0
    5.5611   12.7663   23.2445 O   0  0  0  0  0  0  0  0  0  0  0  0
   12.9082   17.2363   22.0466 O   0  0  0  0  0  0  0  0  0  0  0  0
    9.4393   14.4268   21.2599 H   0  0  0  0  0  0  0  0  0  0  0  0
   12.0932   13.5352   24.5340 H   0  0  0  0  0  0  0  0  0  0  0  0
   10.7653   16.4408   20.7353 H   0  0  0  0  0  0  0  0  0  0  0  0
   13.4171   15.5496   24.0069 H   0  0  0  0  0  0  0  0  0  0  0  0
    9.0100    8.7536   23.9674 H   0  0  0  0  0  0  0  0  0  0  0  0
   10.6018    9.3077   23.4537 H   0  0  0  0  0  0  0  0  0  0  0  0
   10.8048   11.2461   21.8127 H   0  0  0  0  0  0  0  0  0  0  0  0
    9.3610   12.0323   21.1966 H   0  0  0  0  0  0  0  0  0  0  0  0
   10.5229   12.5454   25.3432 H   0  0  0  0  0  0  0  0  0  0  0  0
   11.4957   11.5498   24.2710 H   0  0  0  0  0  0  0  0  0  0  0  0
    7.0557   11.2289   21.9326 H   0  0  0  0  0  0  0  0  0  0  0  0
    6.9111    9.8905   23.0601 H   0  0  0  0  0  0  0  0  0  0  0  0
    7.5982   10.2059   25.5232 H   0  0  0  0  0  0  0  0  0  0  0  0
    8.2067   11.7600   26.0682 H   0  0  0  0  0  0  0  0  0  0  0  0
    8.3792   13.7236   24.4187 H   0  0  0  0  0  0  0  0  0  0  0  0
    7.9293   13.5046   22.7410 H   0  0  0  0  0  0  0  0  0  0  0  0
    8.9332    9.6231   21.6306 H   0  0  0  0  0  0  0  0  0  0  0  0
   10.0729   10.1372   25.7460 H   0  0  0  0  0  0  0  0  0  0  0  0
   14.5332   18.4172   22.5332 H   0  0  0  0  0  0  0  0  0  0  0  0
   14.7345   16.6616   22.8256 H   0  0  0  0  0  0  0  0  0  0  0  0
   13.7027   17.6369   23.9046 H   0  0  0  0  0  0  0  0  0  0  0  0
    4.6396   13.0430   23.4362 H   0  0  0  0  0  0  0  0  0  0  0  0
  1  3  2  0  0  0  0
  1  5  1  0  0  0  0
  2  4  1  0  0  0  0
  2  5  2  0  0  0  0
  3  6  1  0  0  0  0
  4  6  2  0  0  0  0
  5 16  1  0  0  0  0
  6 21  1  0  0  0  0
  7 17  1  0  0  0  0
  7 19  2  0  0  0  0
  7 20  1  0  0  0  0
  8 14  1  0  0  0  0
  8 15  1  0  0  0  0
  9 14  1  0  0  0  0
  9 16  1  0  0  0  0
 10 15  1  0  0  0  0
 10 16  1  0  0  0  0
 11 14  1  0  0  0  0
 11 17  1  0  0  0  0
 12 15  1  0  0  0  0
 12 17  1  0  0  0  0
 13 16  1  0  0  0  0
 13 17  1  0  0  0  0
 18 21  1  0  0  0  0
  1 22  1  0  0  0  0
  2 23  1  0  0  0  0
  3 24  1  0  0  0  0
  4 25  1  0  0  0  0
  8 26  1  0  0  0  0
  8 27  1  0  0  0  0
  9 28  1  0  0  0  0
  9 29  1  0  0  0  0
 10 30  1  0  0  0  0
 10 31  1  0  0  0  0
 11 32  1  0  0  0  0
 11 33  1  0  0  0  0
 12 34  1  0  0  0  0
 12 35  1  0  0  0  0
 13 36  1  0  0  0  0
 13 37  1  0  0  0  0
 14 38  1  0  0  0  0
 15 39  1  0  0  0  0
 18 40  1  0  0  0  0
 18 41  1  0  0  0  0
 18 42  1  0  0  0  0
 20 43  1  0  0  0  0
M  END
> <id>
EN300-14685

> <smiles>
COC=1C=CC(=CC1)C2(CC3CC4CC(C3)(C2)C(=O)O)C4

> <MDLNUMBER>
MFCD00167858

> <IUPAC Name>
3-(4-methoxyphenyl)adamantane-1-carboxylic acid

> <CAS>
56531-56-7

> <Purity>
95

> <URL>
https://www.enaminestore.com/catalog/EN300-14685

> <ROCS_ShapeQuery>
x0446_0A_x1080_0A_x0929_0A_x0812_0A_x0719_0A_x1140_0A_x0528_0A_x0310_0A

> <ROCS_TanimotoCombo>
0.413 

> <ROCS_ShapeTanimoto>
0.251 

> <ROCS_ColorTanimoto>
0.162 

> <ROCS_RefTversky>
0.227 

> <ROCS_RefColorTversky>
0.189 

> <ROCS_RefTverskyCombo>
0.416 

> <ROCS_FitTversky>
1.746 

> <ROCS_FitColorTversky>
0.532 

> <ROCS_FitTverskyCombo>
2.278 

> <ROCS_ColorScore>
-6.783

> <ROCS_Overlap>
2676.857

> <ROCS_Rank>
374                 

$$$$
untitled-dbase-499748_2
  -OEChem-02082415563D

 27 28  0     1  0  0  0  0  0999 V2000
    6.6842   12.2322   25.4579 C   0  0  0  0  0  0  0  0  0  0  0  0
   10.4162   14.4385   22.2162 C   0  0  0  0  0  0  0  0  0  0  0  0
    8.0641   12.7950   23.3822 C   0  0  0  0  0  0  0  0  0  0  0  0
    9.0742   11.4982   25.1055 C   0  0  0  0  0  0  0  0  0  0  0  0
    7.4355   10.4247   23.8315 C   0  0  0  0  0  0  0  0  0  0  0  0
    9.4053   12.2510   22.8415 C   0  0  2  0  0  0  0  0  0  0  0  0
    9.6529   11.0493   23.7746 C   0  0  2  0  0  0  0  0  0  0  0  0
    7.7146   11.7773   24.4815 C   0  0  1  0  0  0  0  0  0  0  0  0
   11.6403   15.2706   22.4618 C   0  0  0  0  0  0  0  0  0  0  0  0
   10.4516   13.2336   22.9055 N   0  0  0  0  0  0  0  0  0  0  0  0
    5.6123   11.6797   25.6555 O   0  0  0  0  0  0  0  0  0  0  0  0
    9.5101   14.8161   21.4789 O   0  0  0  0  0  0  0  0  0  0  0  0
    8.7379   10.0024   23.3605 O   0  0  0  0  0  0  0  0  0  0  0  0
    7.0960   13.3516   26.1019 O   0  0  0  0  0  0  0  0  0  0  0  0
   12.5093   14.6568   23.3047 F   0  0  0  0  0  0  0  0  0  0  0  0
   11.3365   16.4726   23.0145 F   0  0  0  0  0  0  0  0  0  0  0  0
   12.3207   15.5269   21.3157 F   0  0  0  0  0  0  0  0  0  0  0  0
    8.1680   13.8071   23.7927 H   0  0  0  0  0  0  0  0  0  0  0  0
    7.3010   12.8371   22.5970 H   0  0  0  0  0  0  0  0  0  0  0  0
    9.0363   10.6970   25.8523 H   0  0  0  0  0  0  0  0  0  0  0  0
    9.5604   12.3790   25.5368 H   0  0  0  0  0  0  0  0  0  0  0  0
    7.0672    9.6752   24.5403 H   0  0  0  0  0  0  0  0  0  0  0  0
    6.7436   10.4801   22.9852 H   0  0  0  0  0  0  0  0  0  0  0  0
    9.3025   11.9369   21.7972 H   0  0  0  0  0  0  0  0  0  0  0  0
   10.6788   10.6750   23.7887 H   0  0  0  0  0  0  0  0  0  0  0  0
   11.2641   13.0355   23.4888 H   0  0  0  0  0  0  0  0  0  0  0  0
    6.4298   13.6683   26.7485 H   0  0  0  0  0  0  0  0  0  0  0  0
  1  8  1  1  0  0  0
  1 11  2  0  0  0  0
  1 14  1  0  0  0  0
  2  9  1  0  0  0  0
  2 10  1  0  0  0  0
  2 12  2  0  0  0  0
  3  6  1  0  0  0  0
  3  8  1  0  0  0  0
  4  7  1  1  0  0  0
  4  8  1  0  0  0  0
  5  8  1  0  0  0  0
  5 13  1  0  0  0  0
  6  7  1  0  0  0  0
  6 10  1  1  0  0  0
  7 13  1  0  0  0  0
  9 15  1  0  0  0  0
  9 16  1  0  0  0  0
  9 17  1  0  0  0  0
  3 18  1  0  0  0  0
  3 19  1  0  0  0  0
  4 20  1  0  0  0  0
  4 21  1  0  0  0  0
  5 22  1  0  0  0  0
  5 23  1  0  0  0  0
  6 24  1  0  0  0  0
  7 25  1  0  0  0  0
 10 26  1  0  0  0  0
 14 27  1  0  0  0  0
M  END
> <id>
EN300-28279169

> <smiles>
OC(=O)[C@@]1(CO[C@@H]2C1)C[C@H]2NC(=O)C(F)(F)F |&1:3,6,9,r|

> <IUPAC Name>
rac-(1R,4S,6R)-6-(2,2,2-trifluoroacetamido)-2-oxabicyclo[2.2.1]heptane-4-carboxylic acid

> <CAS>
2679938-34-0

> <URL>
https://www.enaminestore.com/catalog/EN300-28279169

> <ROCS_ShapeQuery>
x0446_0A_x1080_0A_x0929_0A_x0812_0A_x0719_0A_x1140_0A_x0528_0A_x0310_0A

> <ROCS_TanimotoCombo>
0.413 

> <ROCS_ShapeTanimoto>
0.230 

> <ROCS_ColorTanimoto>
0.183 

> <ROCS_RefTversky>
0.208 

> <ROCS_RefColorTversky>
0.214 

> <ROCS_RefTverskyCombo>
0.422 

> <ROCS_FitTversky>
1.810 

> <ROCS_FitColorTversky>
0.563 

> <ROCS_FitTverskyCombo>
2.373 

> <ROCS_ColorScore>
-7.679

> <ROCS_Overlap>
2457.766

> <ROCS_Rank>
375                 

$$$$
untitled-dbase-164711_0
  -OEChem-02082415563D

 31 33  0     0  0  0  0  0  0999 V2000
    8.7063   13.5273   22.5643 C   0  0  0  0  0  0  0  0  0  0  0  0
    7.6195   12.5661   25.4521 C   0  0  0  0  0  0  0  0  0  0  0  0
    6.3577   11.5309   23.5354 C   0  0  0  0  0  0  0  0  0  0  0  0
    9.1568   10.8908   22.3268 C   0  0  0  0  0  0  0  0  0  0  0  0
   10.1987   11.7450   23.9089 C   0  0  0  0  0  0  0  0  0  0  0  0
    6.4795   12.1008   26.3532 C   0  0  0  0  0  0  0  0  0  0  0  0
    5.2950   11.1281   24.5535 C   0  0  0  0  0  0  0  0  0  0  0  0
    8.8367   12.1589   23.2176 C   0  0  0  0  0  0  0  0  0  0  0  0
    7.7279   11.6850   24.2033 C   0  0  0  0  0  0  0  0  0  0  0  0
    9.4926   10.3433   23.7659 C   0  0  0  0  0  0  0  0  0  0  0  0
   10.2577    9.0679   23.9505 C   0  0  0  0  0  0  0  0  0  0  0  0
    7.8900   13.8189   21.7030 O   0  0  0  0  0  0  0  0  0  0  0  0
    5.2497   12.0584   25.6332 O   0  0  0  0  0  0  0  0  0  0  0  0
    8.2637   10.3909   24.5495 O   0  0  0  0  0  0  0  0  0  0  0  0
    9.6257   14.3873   23.0668 O   0  0  0  0  0  0  0  0  0  0  0  0
    7.4269   13.6020   25.1485 H   0  0  0  0  0  0  0  0  0  0  0  0
    8.5431   12.5590   26.0392 H   0  0  0  0  0  0  0  0  0  0  0  0
    6.3722   10.7776   22.7419 H   0  0  0  0  0  0  0  0  0  0  0  0
    6.0663   12.4857   23.0817 H   0  0  0  0  0  0  0  0  0  0  0  0
    8.3207   10.4080   21.8158 H   0  0  0  0  0  0  0  0  0  0  0  0
    9.9894   10.9792   21.6187 H   0  0  0  0  0  0  0  0  0  0  0  0
   11.1167   11.9034   23.3302 H   0  0  0  0  0  0  0  0  0  0  0  0
   10.3718   12.0904   24.9306 H   0  0  0  0  0  0  0  0  0  0  0  0
    6.6860   11.1143   26.7845 H   0  0  0  0  0  0  0  0  0  0  0  0
    6.3547   12.8026   27.1842 H   0  0  0  0  0  0  0  0  0  0  0  0
    4.3095   11.1228   24.0771 H   0  0  0  0  0  0  0  0  0  0  0  0
    5.4759   10.1201   24.9453 H   0  0  0  0  0  0  0  0  0  0  0  0
   10.3999    8.8402   25.0160 H   0  0  0  0  0  0  0  0  0  0  0  0
   11.2520    9.1302   23.4872 H   0  0  0  0  0  0  0  0  0  0  0  0
    9.7300    8.2184   23.4953 H   0  0  0  0  0  0  0  0  0  0  0  0
    9.5592   15.2758   22.6563 H   0  0  0  0  0  0  0  0  0  0  0  0
  1  8  1  0  0  0  0
  1 12  2  0  0  0  0
  1 15  1  0  0  0  0
  2  6  1  0  0  0  0
  2  9  1  0  0  0  0
  3  7  1  0  0  0  0
  3  9  1  0  0  0  0
  4  8  1  0  0  0  0
  4 10  1  0  0  0  0
  5  8  1  0  0  0  0
  5 10  1  0  0  0  0
  6 13  1  0  0  0  0
  7 13  1  0  0  0  0
  8  9  1  0  0  0  0
  9 14  1  0  0  0  0
 10 11  1  0  0  0  0
 10 14  1  0  0  0  0
  2 16  1  0  0  0  0
  2 17  1  0  0  0  0
  3 18  1  0  0  0  0
  3 19  1  0  0  0  0
  4 20  1  0  0  0  0
  4 21  1  0  0  0  0
  5 22  1  0  0  0  0
  5 23  1  0  0  0  0
  6 24  1  0  0  0  0
  6 25  1  0  0  0  0
  7 26  1  0  0  0  0
  7 27  1  0  0  0  0
 11 28  1  0  0  0  0
 11 29  1  0  0  0  0
 11 30  1  0  0  0  0
 15 31  1  0  0  0  0
M  END
> <id>
EN300-1718526

> <smiles>
CC1(CC2(C1)C(=O)O)OC32CCOCC3

> <MDLNUMBER>
MFCD31665582

> <IUPAC Name>
4-methyl-3-oxaspiro[bicyclo[2.1.1]hexane-2,4'-oxane]-1-carboxylic acid

> <CAS>
2225146-57-4

> <Purity>
95

> <URL>
https://www.enaminestore.com/catalog/EN300-1718526

> <ROCS_ShapeQuery>
x0446_0A_x1080_0A_x0929_0A_x0812_0A_x0719_0A_x1140_0A_x0528_0A_x0310_0A

> <ROCS_TanimotoCombo>
0.413 

> <ROCS_ShapeTanimoto>
0.206 

> <ROCS_ColorTanimoto>
0.207 

> <ROCS_RefTversky>
0.189 

> <ROCS_RefColorTversky>
0.238 

> <ROCS_RefTverskyCombo>
0.427 

> <ROCS_FitTversky>
1.765 

> <ROCS_FitColorTversky>
0.612 

> <ROCS_FitTverskyCombo>
2.377 

> <ROCS_ColorScore>
-8.560

> <ROCS_Overlap>
2229.443

> <ROCS_Rank>
376                 

$$$$
untitled-dbase-159900_2
  -OEChem-02082415563D

 40 42  0     0  0  0  0  0  0999 V2000
   11.6074   13.7086   23.8159 C   0  0  0  0  0  0  0  0  0  0  0  0
   12.4003   14.7936   23.4422 C   0  0  0  0  0  0  0  0  0  0  0  0
    9.8154   14.5389   22.4243 C   0  0  0  0  0  0  0  0  0  0  0  0
   10.3149   13.5812   23.3068 C   0  0  0  0  0  0  0  0  0  0  0  0
   11.9007   15.7513   22.5597 C   0  0  0  0  0  0  0  0  0  0  0  0
   10.6083   15.6240   22.0507 C   0  0  0  0  0  0  0  0  0  0  0  0
    7.8473   12.5349   23.7784 C   0  0  0  0  0  0  0  0  0  0  0  0
    9.2651   12.0406   25.2653 C   0  0  0  0  0  0  0  0  0  0  0  0
    9.8437   11.0638   22.9809 C   0  0  0  0  0  0  0  0  0  0  0  0
    8.0864   10.0016   24.2972 C   0  0  0  0  0  0  0  0  0  0  0  0
    9.4134   12.3471   23.7317 C   0  0  0  0  0  0  0  0  0  0  0  0
    7.8897   11.4166   24.8754 C   0  0  0  0  0  0  0  0  0  0  0  0
   13.9929   16.8626   22.7684 C   0  0  0  0  0  0  0  0  0  0  0  0
    8.7793   16.3490   20.7147 C   0  0  0  0  0  0  0  0  0  0  0  0
    6.8227   11.4793   25.9510 C   0  0  0  0  0  0  0  0  0  0  0  0
    8.7815   10.0537   23.0084 N   0  0  0  0  0  0  0  0  0  0  0  0
    5.5462   11.3934   25.3378 O   0  0  0  0  0  0  0  0  0  0  0  0
   12.6846   16.8070   22.2033 O   0  0  0  0  0  0  0  0  0  0  0  0
   10.1090   16.5530   21.1887 O   0  0  0  0  0  0  0  0  0  0  0  0
   12.0035   12.9664   24.5035 H   0  0  0  0  0  0  0  0  0  0  0  0
   13.4065   14.8866   23.8417 H   0  0  0  0  0  0  0  0  0  0  0  0
    8.8080   14.4408   22.0275 H   0  0  0  0  0  0  0  0  0  0  0  0
    7.5183   13.5190   24.1383 H   0  0  0  0  0  0  0  0  0  0  0  0
    7.2901   12.3129   22.8631 H   0  0  0  0  0  0  0  0  0  0  0  0
   10.0033   11.3614   25.7040 H   0  0  0  0  0  0  0  0  0  0  0  0
    9.2040   12.9315   25.9045 H   0  0  0  0  0  0  0  0  0  0  0  0
   10.0675   11.2867   21.9310 H   0  0  0  0  0  0  0  0  0  0  0  0
   10.7601   10.6515   23.4205 H   0  0  0  0  0  0  0  0  0  0  0  0
    8.6482    9.3748   24.9999 H   0  0  0  0  0  0  0  0  0  0  0  0
    7.1176    9.5129   24.1410 H   0  0  0  0  0  0  0  0  0  0  0  0
   14.5112   17.7523   22.4024 H   0  0  0  0  0  0  0  0  0  0  0  0
   14.5492   15.9638   22.4907 H   0  0  0  0  0  0  0  0  0  0  0  0
   13.9083   16.9147   23.8564 H   0  0  0  0  0  0  0  0  0  0  0  0
    8.5050   17.1606   20.0363 H   0  0  0  0  0  0  0  0  0  0  0  0
    8.0899   16.3195   21.5622 H   0  0  0  0  0  0  0  0  0  0  0  0
    8.7351   15.3982   20.1783 H   0  0  0  0  0  0  0  0  0  0  0  0
    6.8896   12.4224   26.4995 H   0  0  0  0  0  0  0  0  0  0  0  0
    6.9367   10.6467   26.6501 H   0  0  0  0  0  0  0  0  0  0  0  0
    8.1012   10.2805   22.2824 H   0  0  0  0  0  0  0  0  0  0  0  0
    4.8870   11.4362   26.0502 H   0  0  0  0  0  0  0  0  0  0  0  0
  1  2  2  0  0  0  0
  1  4  1  0  0  0  0
  2  5  1  0  0  0  0
  3  4  2  0  0  0  0
  3  6  1  0  0  0  0
  4 11  1  0  0  0  0
  5  6  2  0  0  0  0
  5 18  1  0  0  0  0
  6 19  1  0  0  0  0
  7 11  1  0  0  0  0
  7 12  1  0  0  0  0
  8 11  1  0  0  0  0
  8 12  1  0  0  0  0
  9 11  1  0  0  0  0
  9 16  1  0  0  0  0
 10 12  1  0  0  0  0
 10 16  1  0  0  0  0
 12 15  1  0  0  0  0
 13 18  1  0  0  0  0
 14 19  1  0  0  0  0
 15 17  1  0  0  0  0
  1 20  1  0  0  0  0
  2 21  1  0  0  0  0
  3 22  1  0  0  0  0
  7 23  1  0  0  0  0
  7 24  1  0  0  0  0
  8 25  1  0  0  0  0
  8 26  1  0  0  0  0
  9 27  1  0  0  0  0
  9 28  1  0  0  0  0
 10 29  1  0  0  0  0
 10 30  1  0  0  0  0
 13 31  1  0  0  0  0
 13 32  1  0  0  0  0
 13 33  1  0  0  0  0
 14 34  1  0  0  0  0
 14 35  1  0  0  0  0
 14 36  1  0  0  0  0
 15 37  1  0  0  0  0
 15 38  1  0  0  0  0
 16 39  1  0  0  0  0
 17 40  1  0  0  0  0
M  END
> <id>
EN300-37104559

> <smiles>
COC=1C=CC(=CC1OC)C2(CC3(CO)C2)CNC3

> <MDLNUMBER>
MFCD34562745

> <IUPAC Name>
[5-(3,4-dimethoxyphenyl)-3-azabicyclo[3.1.1]heptan-1-yl]methanol

> <CAS>
2731014-58-5

> <Purity>
95

> <URL>
https://www.enaminestore.com/catalog/EN300-37104559

> <ROCS_ShapeQuery>
x0446_0A_x1080_0A_x0929_0A_x0812_0A_x0719_0A_x1140_0A_x0528_0A_x0310_0A

> <ROCS_TanimotoCombo>
0.413 

> <ROCS_ShapeTanimoto>
0.225 

> <ROCS_ColorTanimoto>
0.188 

> <ROCS_RefTversky>
0.206 

> <ROCS_RefColorTversky>
0.221 

> <ROCS_RefTverskyCombo>
0.427 

> <ROCS_FitTversky>
1.708 

> <ROCS_FitColorTversky>
0.556 

> <ROCS_FitTverskyCombo>
2.263 

> <ROCS_ColorScore>
-7.943

> <ROCS_Overlap>
2429.499

> <ROCS_Rank>
377                 

$$$$
untitled-dbase-255369_3
  -OEChem-02082415563D

 56 61  0     0  0  0  0  0  0999 V2000
    8.3256   14.4902   21.5737 C   0  0  0  0  0  0  0  0  0  0  0  0
    6.5235   12.9361   21.0569 C   0  0  0  0  0  0  0  0  0  0  0  0
    3.0090   10.2903   18.5421 C   0  0  0  0  0  0  0  0  0  0  0  0
    3.6790   12.4894   17.5380 C   0  0  0  0  0  0  0  0  0  0  0  0
    1.8165   12.3921   19.2157 C   0  0  0  0  0  0  0  0  0  0  0  0
    7.9885   10.8485   25.3651 C   0  0  0  0  0  0  0  0  0  0  0  0
   10.2898   11.6458   24.7669 C   0  0  0  0  0  0  0  0  0  0  0  0
    9.2799    9.7016   23.5465 C   0  0  0  0  0  0  0  0  0  0  0  0
    5.2043   11.3349   19.1606 C   0  0  0  0  0  0  0  0  0  0  0  0
    3.3382   11.2374   20.8416 C   0  0  0  0  0  0  0  0  0  0  0  0
    4.0103   13.4381   19.8363 C   0  0  0  0  0  0  0  0  0  0  0  0
    8.2897   13.0456   24.1948 C   0  0  0  0  0  0  0  0  0  0  0  0
    7.2787   11.0994   22.9732 C   0  0  0  0  0  0  0  0  0  0  0  0
    9.5836   11.8974   22.3738 C   0  0  0  0  0  0  0  0  0  0  0  0
    4.1945   11.1213   18.0191 C   0  0  0  0  0  0  0  0  0  0  0  0
    2.3203   11.0233   19.7073 C   0  0  0  0  0  0  0  0  0  0  0  0
    2.9951   13.2356   18.6975 C   0  0  0  0  0  0  0  0  0  0  0  0
    8.8924   12.0861   25.2353 C   0  0  0  0  0  0  0  0  0  0  0  0
    7.8773   10.1319   24.0087 C   0  0  0  0  0  0  0  0  0  0  0  0
   10.1909   10.9332   23.4074 C   0  0  0  0  0  0  0  0  0  0  0  0
    4.5231   12.0728   20.3263 C   0  0  0  0  0  0  0  0  0  0  0  0
    8.1761   12.3476   22.8213 C   0  0  0  0  0  0  0  0  0  0  0  0
    8.8980   15.4765   21.3594 N   0  0  0  0  0  0  0  0  0  0  0  0
    5.4880   12.2497   21.4078 N   0  0  0  0  0  0  0  0  0  0  0  0
    7.5964   13.2726   21.8233 N   0  0  0  0  0  0  0  0  0  0  0  0
    6.6111   13.3236   20.0248 H   0  0  0  0  0  0  0  0  0  0  0  0
    2.2892   10.1152   17.7328 H   0  0  0  0  0  0  0  0  0  0  0  0
    3.3601    9.3057   18.8747 H   0  0  0  0  0  0  0  0  0  0  0  0
    4.5120   13.0869   17.1481 H   0  0  0  0  0  0  0  0  0  0  0  0
    2.9707   12.3527   16.7118 H   0  0  0  0  0  0  0  0  0  0  0  0
    1.0765   12.2537   18.4181 H   0  0  0  0  0  0  0  0  0  0  0  0
    1.3095   12.9195   20.0329 H   0  0  0  0  0  0  0  0  0  0  0  0
    8.3975   10.1635   26.1179 H   0  0  0  0  0  0  0  0  0  0  0  0
    6.9922   11.1471   25.7138 H   0  0  0  0  0  0  0  0  0  0  0  0
   10.9497   12.5182   24.6854 H   0  0  0  0  0  0  0  0  0  0  0  0
   10.7392   10.9749   25.5094 H   0  0  0  0  0  0  0  0  0  0  0  0
    9.7115    8.9962   24.2673 H   0  0  0  0  0  0  0  0  0  0  0  0
    9.2128    9.1749   22.5866 H   0  0  0  0  0  0  0  0  0  0  0  0
    5.5982   10.3675   19.4984 H   0  0  0  0  0  0  0  0  0  0  0  0
    6.0663   11.9094   18.7970 H   0  0  0  0  0  0  0  0  0  0  0  0
    2.8557   11.7415   21.6890 H   0  0  0  0  0  0  0  0  0  0  0  0
    3.6890   10.2677   21.2182 H   0  0  0  0  0  0  0  0  0  0  0  0
    4.8464   14.0576   19.4866 H   0  0  0  0  0  0  0  0  0  0  0  0
    3.5417   13.9894   20.6619 H   0  0  0  0  0  0  0  0  0  0  0  0
    7.3014   13.3867   24.5299 H   0  0  0  0  0  0  0  0  0  0  0  0
    8.9131   13.9456   24.1121 H   0  0  0  0  0  0  0  0  0  0  0  0
    7.1703   10.5910   22.0062 H   0  0  0  0  0  0  0  0  0  0  0  0
    6.2667   11.3942   23.2802 H   0  0  0  0  0  0  0  0  0  0  0  0
   10.2391   12.7690   22.2475 H   0  0  0  0  0  0  0  0  0  0  0  0
    9.5307   11.4080   21.3924 H   0  0  0  0  0  0  0  0  0  0  0  0
    4.6788   10.5948   17.1891 H   0  0  0  0  0  0  0  0  0  0  0  0
    1.4769   10.4275   20.0735 H   0  0  0  0  0  0  0  0  0  0  0  0
    2.6301   14.2078   18.3488 H   0  0  0  0  0  0  0  0  0  0  0  0
    8.9690   12.5918   26.2043 H   0  0  0  0  0  0  0  0  0  0  0  0
    7.2336    9.2507   24.1072 H   0  0  0  0  0  0  0  0  0  0  0  0
   11.1886   10.6204   23.0801 H   0  0  0  0  0  0  0  0  0  0  0  0
  1 23  3  0  0  0  0
  1 25  1  0  0  0  0
  2 24  2  0  0  0  0
  2 25  1  4  0  0  0
  3 15  1  0  0  0  0
  3 16  1  0  0  0  0
  4 15  1  0  0  0  0
  4 17  1  0  0  0  0
  5 16  1  0  0  0  0
  5 17  1  0  0  0  0
  6 18  1  0  0  0  0
  6 19  1  0  0  0  0
  7 18  1  0  0  0  0
  7 20  1  0  0  0  0
  8 19  1  0  0  0  0
  8 20  1  0  0  0  0
  9 15  1  0  0  0  0
  9 21  1  0  0  0  0
 10 16  1  0  0  0  0
 10 21  1  0  0  0  0
 11 17  1  0  0  0  0
 11 21  1  0  0  0  0
 12 18  1  0  0  0  0
 12 22  1  0  0  0  0
 13 19  1  0  0  0  0
 13 22  1  0  0  0  0
 14 20  1  0  0  0  0
 14 22  1  0  0  0  0
 21 24  1  0  0  0  0
 22 25  1  0  0  0  0
  2 26  1  0  0  0  0
  3 27  1  0  0  0  0
  3 28  1  0  0  0  0
  4 29  1  0  0  0  0
  4 30  1  0  0  0  0
  5 31  1  0  0  0  0
  5 32  1  0  0  0  0
  6 33  1  0  0  0  0
  6 34  1  0  0  0  0
  7 35  1  0  0  0  0
  7 36  1  0  0  0  0
  8 37  1  0  0  0  0
  8 38  1  0  0  0  0
  9 39  1  0  0  0  0
  9 40  1  0  0  0  0
 10 41  1  0  0  0  0
 10 42  1  0  0  0  0
 11 43  1  0  0  0  0
 11 44  1  0  0  0  0
 12 45  1  0  0  0  0
 12 46  1  0  0  0  0
 13 47  1  0  0  0  0
 13 48  1  0  0  0  0
 14 49  1  0  0  0  0
 14 50  1  0  0  0  0
 15 51  1  0  0  0  0
 16 52  1  0  0  0  0
 17 53  1  0  0  0  0
 18 54  1  0  0  0  0
 19 55  1  0  0  0  0
 20 56  1  0  0  0  0
M  END
> <id>
EN300-26573788

> <smiles>
N#CN(C=NC1(CC2CC3CC(C2)C1)C3)C4(CC5CC6CC(C5)C4)C6

> <IUPAC Name>
N,N'-bis(adamantan-1-yl)-N-cyanomethanimidamide

> <CAS>
1391707-99-5

> <URL>
https://www.enaminestore.com/catalog/EN300-26573788

> <ROCS_ShapeQuery>
x0446_0A_x1080_0A_x0929_0A_x0812_0A_x0719_0A_x1140_0A_x0528_0A_x0310_0A

> <ROCS_TanimotoCombo>
0.413 

> <ROCS_ShapeTanimoto>
0.218 

> <ROCS_ColorTanimoto>
0.194 

> <ROCS_RefTversky>
0.205 

> <ROCS_RefColorTversky>
0.239 

> <ROCS_RefTverskyCombo>
0.445 

> <ROCS_FitTversky>
1.414 

> <ROCS_FitColorTversky>
0.508 

> <ROCS_FitTverskyCombo>
1.921 

> <ROCS_ColorScore>
-8.651

> <ROCS_Overlap>
2424.637

> <ROCS_Rank>
378                 

$$$$
untitled-dbase-483323_5
  -OEChem-02082415563D

 34 36  0     1  0  0  0  0  0999 V2000
    6.6450   11.6555   25.8551 C   0  0  0  0  0  0  0  0  0  0  0  0
    8.4655   13.9991   21.8440 C   0  0  0  0  0  0  0  0  0  0  0  0
    9.9895   10.3050   23.4808 C   0  0  0  0  0  0  0  0  0  0  0  0
    9.0857   11.6273   25.4116 C   0  0  0  0  0  0  0  0  0  0  0  0
    7.5227   10.3343   23.9298 C   0  0  0  0  0  0  0  0  0  0  0  0
   10.0092   12.8111   23.4022 C   0  0  0  0  0  0  0  0  0  0  0  0
    8.4451   11.5194   21.9206 C   0  0  0  0  0  0  0  0  0  0  0  0
    7.5382   12.8447   23.8520 C   0  0  0  0  0  0  0  0  0  0  0  0
   10.1661   11.5842   24.3171 C   0  0  2  0  0  0  0  0  0  0  0  0
    8.5961   10.2865   22.8286 C   0  0  1  0  0  0  0  0  0  0  0  0
    7.6840   11.6159   24.7714 C   0  0  0  0  0  0  0  0  0  0  0  0
    8.6134   12.8087   22.7477 C   0  0  0  0  0  0  0  0  0  0  0  0
    7.1473   11.6989   27.2729 C   0  0  0  0  0  0  0  0  0  0  0  0
    5.4425   11.6548   25.5964 O   0  0  0  0  0  0  0  0  0  0  0  0
    9.3247   14.8469   21.6537 O   0  0  0  0  0  0  0  0  0  0  0  0
    7.2405   14.0103   21.2637 O   0  0  0  0  0  0  0  0  0  0  0  0
   10.7653   10.2537   22.7070 H   0  0  0  0  0  0  0  0  0  0  0  0
   10.1162    9.4210   24.1179 H   0  0  0  0  0  0  0  0  0  0  0  0
    9.2043   10.7699   26.0872 H   0  0  0  0  0  0  0  0  0  0  0  0
    9.2161   12.5250   26.0302 H   0  0  0  0  0  0  0  0  0  0  0  0
    6.5221   10.2976   23.4794 H   0  0  0  0  0  0  0  0  0  0  0  0
    7.6046    9.4441   24.5674 H   0  0  0  0  0  0  0  0  0  0  0  0
   10.1568   13.7318   23.9818 H   0  0  0  0  0  0  0  0  0  0  0  0
   10.7932   12.8039   22.6334 H   0  0  0  0  0  0  0  0  0  0  0  0
    9.1896   11.4827   21.1144 H   0  0  0  0  0  0  0  0  0  0  0  0
    7.4624   11.5047   21.4310 H   0  0  0  0  0  0  0  0  0  0  0  0
    6.5330   12.8687   23.4084 H   0  0  0  0  0  0  0  0  0  0  0  0
    7.6250   13.7726   24.4347 H   0  0  0  0  0  0  0  0  0  0  0  0
   11.1601   11.5909   24.7780 H   0  0  0  0  0  0  0  0  0  0  0  0
    8.4772    9.3732   22.2352 H   0  0  0  0  0  0  0  0  0  0  0  0
    7.2751   12.7385   27.5873 H   0  0  0  0  0  0  0  0  0  0  0  0
    8.1121   11.1896   27.3354 H   0  0  0  0  0  0  0  0  0  0  0  0
    6.4225   11.2165   27.9333 H   0  0  0  0  0  0  0  0  0  0  0  0
    7.1234   14.7825   20.6701 H   0  0  0  0  0  0  0  0  0  0  0  0
  1 11  1  0  0  0  0
  1 13  1  0  0  0  0
  1 14  2  0  0  0  0
  2 12  1  0  0  0  0
  2 15  2  0  0  0  0
  2 16  1  0  0  0  0
  3  9  1  0  0  0  0
  3 10  1  0  0  0  0
  4  9  1  0  0  0  0
  4 11  1  0  0  0  0
  5 10  1  0  0  0  0
  5 11  1  0  0  0  0
  6  9  1  0  0  0  0
  6 12  1  0  0  0  0
  7 10  1  0  0  0  0
  7 12  1  0  0  0  0
  8 11  1  0  0  0  0
  8 12  1  0  0  0  0
  3 17  1  0  0  0  0
  3 18  1  0  0  0  0
  4 19  1  0  0  0  0
  4 20  1  0  0  0  0
  5 21  1  0  0  0  0
  5 22  1  0  0  0  0
  6 23  1  0  0  0  0
  6 24  1  0  0  0  0
  7 25  1  0  0  0  0
  7 26  1  0  0  0  0
  8 27  1  0  0  0  0
  8 28  1  0  0  0  0
  9 29  1  0  0  0  0
 10 30  1  0  0  0  0
 13 31  1  0  0  0  0
 13 32  1  0  0  0  0
 13 33  1  0  0  0  0
 16 34  1  0  0  0  0
M  END
> <id>
EN300-24218

> <smiles>
CC(=O)C1(CC2CC3C1)CC(C2)(C3)C(=O)O

> <MDLNUMBER>
MFCD08246128

> <IUPAC Name>
3-acetyladamantane-1-carboxylic acid

> <CAS>
91442-73-8

> <Purity>
95

> <URL>
https://www.enaminestore.com/catalog/EN300-24218

> <ROCS_ShapeQuery>
x0446_0A_x1080_0A_x0929_0A_x0812_0A_x0719_0A_x1140_0A_x0528_0A_x0310_0A

> <ROCS_TanimotoCombo>
0.413 

> <ROCS_ShapeTanimoto>
0.213 

> <ROCS_ColorTanimoto>
0.200 

> <ROCS_RefTversky>
0.195 

> <ROCS_RefColorTversky>
0.221 

> <ROCS_RefTverskyCombo>
0.416 

> <ROCS_FitTversky>
1.759 

> <ROCS_FitColorTversky>
0.672 

> <ROCS_FitTverskyCombo>
2.430 

> <ROCS_ColorScore>
-7.935

> <ROCS_Overlap>
2300.090

> <ROCS_Rank>
379                 

$$$$
untitled-dbase-391384_4
  -OEChem-02082415563D

 43 47  0     0  0  0  0  0  0999 V2000
    4.9574    8.5018   25.7970 C   0  0  0  0  0  0  0  0  0  0  0  0
    3.9301    9.3633   26.1760 C   0  0  0  0  0  0  0  0  0  0  0  0
   12.7472   14.1992   23.1991 C   0  0  0  0  0  0  0  0  0  0  0  0
    6.1356    9.0158   25.2552 C   0  0  0  0  0  0  0  0  0  0  0  0
    4.0767   10.7415   26.0149 C   0  0  0  0  0  0  0  0  0  0  0  0
   13.2696   15.4541   22.8863 C   0  0  0  0  0  0  0  0  0  0  0  0
   10.9122   14.5832   21.6753 C   0  0  0  0  0  0  0  0  0  0  0  0
   11.7781   11.3361   22.6763 C   0  0  0  0  0  0  0  0  0  0  0  0
   11.5685   13.7637   22.5935 C   0  0  0  0  0  0  0  0  0  0  0  0
   11.0299   12.4676   22.9157 C   0  0  0  0  0  0  0  0  0  0  0  0
    6.2842   10.3985   25.0931 C   0  0  0  0  0  0  0  0  0  0  0  0
    5.2580   11.2555   25.4719 C   0  0  0  0  0  0  0  0  0  0  0  0
    9.7615   12.1525   23.4803 C   0  0  0  0  0  0  0  0  0  0  0  0
   12.6133   16.2736   21.9681 C   0  0  0  0  0  0  0  0  0  0  0  0
   11.4345   15.8382   21.3625 C   0  0  0  0  0  0  0  0  0  0  0  0
    9.5838   10.7946   23.6525 C   0  0  0  0  0  0  0  0  0  0  0  0
    7.5201   10.9685   24.5232 C   0  0  0  0  0  0  0  0  0  0  0  0
    5.4739   12.6942   25.2771 C   0  0  0  0  0  0  0  0  0  0  0  0
    8.6930   13.0537   23.8734 C   0  0  0  0  0  0  0  0  0  0  0  0
   14.0555   17.5650   20.5867 C   0  0  0  0  0  0  0  0  0  0  0  0
    9.8001   17.5230   20.9805 C   0  0  0  0  0  0  0  0  0  0  0  0
    8.4899   10.1730   24.1646 N   0  0  0  0  0  0  0  0  0  0  0  0
    6.5575   13.1943   24.7775 N   0  0  0  0  0  0  0  0  0  0  0  0
    7.5795   12.3707   24.3984 N   0  0  0  0  0  0  0  0  0  0  0  0
    8.7773   14.2725   23.7508 O   0  0  0  0  0  0  0  0  0  0  0  0
   13.1328   17.4977   21.6722 O   0  0  0  0  0  0  0  0  0  0  0  0
   10.7848   16.6298   20.4642 O   0  0  0  0  0  0  0  0  0  0  0  0
   10.9498    9.9089   23.1316 S   0  0  0  0  0  0  0  0  0  0  0  0
    4.2874   13.8843   25.7005 Cl  0  0  0  0  0  0  0  0  0  0  0  0
    4.8409    7.4294   25.9233 H   0  0  0  0  0  0  0  0  0  0  0  0
    3.0133    8.9613   26.5977 H   0  0  0  0  0  0  0  0  0  0  0  0
   13.2708   13.5716   23.9164 H   0  0  0  0  0  0  0  0  0  0  0  0
    6.9206    8.3218   24.9682 H   0  0  0  0  0  0  0  0  0  0  0  0
    3.2576   11.3851   26.3202 H   0  0  0  0  0  0  0  0  0  0  0  0
   14.1890   15.7869   23.3612 H   0  0  0  0  0  0  0  0  0  0  0  0
    9.9923   14.2523   21.1973 H   0  0  0  0  0  0  0  0  0  0  0  0
   12.7727   11.2669   22.2561 H   0  0  0  0  0  0  0  0  0  0  0  0
   14.3927   18.5964   20.4576 H   0  0  0  0  0  0  0  0  0  0  0  0
   13.5710   17.2117   19.6730 H   0  0  0  0  0  0  0  0  0  0  0  0
   14.9148   16.9285   20.8106 H   0  0  0  0  0  0  0  0  0  0  0  0
    9.3593   18.0945   20.1600 H   0  0  0  0  0  0  0  0  0  0  0  0
   10.2637   18.2000   21.7025 H   0  0  0  0  0  0  0  0  0  0  0  0
    9.0194   16.9424   21.4778 H   0  0  0  0  0  0  0  0  0  0  0  0
  1  2  1  0  0  0  0
  1  4  2  0  0  0  0
  2  5  2  0  0  0  0
  3  6  2  0  0  0  0
  3  9  1  0  0  0  0
  4 11  1  0  0  0  0
  5 12  1  0  0  0  0
  6 14  1  0  0  0  0
  7  9  2  0  0  0  0
  7 15  1  0  0  0  0
  8 10  2  0  0  0  0
  8 28  1  0  0  0  0
  9 10  1  0  0  0  0
 10 13  1  0  0  0  0
 11 12  2  0  0  0  0
 11 17  1  0  0  0  0
 12 18  1  0  0  0  0
 13 16  2  0  0  0  0
 13 19  1  0  0  0  0
 14 15  2  0  0  0  0
 14 26  1  0  0  0  0
 15 27  1  0  0  0  0
 16 22  1  0  0  0  0
 16 28  1  0  0  0  0
 17 22  2  0  0  0  0
 17 24  1  0  0  0  0
 18 23  2  0  0  0  0
 18 29  1  0  0  0  0
 19 24  1  0  0  0  0
 19 25  2  0  0  0  0
 20 26  1  0  0  0  0
 21 27  1  0  0  0  0
 23 24  1  0  0  0  0
  1 30  1  0  0  0  0
  2 31  1  0  0  0  0
  3 32  1  0  0  0  0
  4 33  1  0  0  0  0
  5 34  1  0  0  0  0
  6 35  1  0  0  0  0
  7 36  1  0  0  0  0
  8 37  1  0  0  0  0
 20 38  1  0  0  0  0
 20 39  1  0  0  0  0
 20 40  1  0  0  0  0
 21 41  1  0  0  0  0
 21 42  1  0  0  0  0
 21 43  1  0  0  0  0
M  END
> <id>
EN300-18221244

> <smiles>
COC=1C=CC(=CC1OC)C2=CSC=3N=C4C=5C=CC=CC5C(Cl)=NN4C(=O)C23

> <MDLNUMBER>
MFCD02654934

> <IUPAC Name>
8-chloro-13-(3,4-dimethoxyphenyl)-15-thia-9,10,17-triazatetracyclo[8.7.0.0^{2,7}.0^{12,16}]heptadeca-1(17),2(7),3,5,8,12(16),13-heptaen-11-one

> <CAS>
379251-21-5

> <URL>
https://www.enaminestore.com/catalog/EN300-18221244

> <ROCS_ShapeQuery>
x0446_0A_x1080_0A_x0929_0A_x0812_0A_x0719_0A_x1140_0A_x0528_0A_x0310_0A

> <ROCS_TanimotoCombo>
0.412 

> <ROCS_ShapeTanimoto>
0.268 

> <ROCS_ColorTanimoto>
0.145 

> <ROCS_RefTversky>
0.245 

> <ROCS_RefColorTversky>
0.167 

> <ROCS_RefTverskyCombo>
0.412 

> <ROCS_FitTversky>
1.519 

> <ROCS_FitColorTversky>
0.524 

> <ROCS_FitTverskyCombo>
2.043 

> <ROCS_ColorScore>
-5.969

> <ROCS_Overlap>
2902.132

> <ROCS_Rank>
380                 

$$$$
untitled-dbase-562234_7
  -OEChem-02082415563D

 55 58  0     0  0  0  0  0  0999 V2000
    4.8380   13.4949   18.3799 C   0  0  0  0  0  0  0  0  0  0  0  0
   10.7757    8.8782   23.0035 C   0  0  0  0  0  0  0  0  0  0  0  0
    5.5628   11.3309   24.6144 C   0  0  0  0  0  0  0  0  0  0  0  0
   11.7809    9.8545   23.1024 C   0  0  0  0  0  0  0  0  0  0  0  0
    5.7854   12.6755   24.9548 C   0  0  0  0  0  0  0  0  0  0  0  0
    9.4482    9.1799   23.3208 C   0  0  0  0  0  0  0  0  0  0  0  0
    6.6160   10.5124   24.1961 C   0  0  0  0  0  0  0  0  0  0  0  0
   11.4781   11.1522   23.5188 C   0  0  0  0  0  0  0  0  0  0  0  0
    7.0651   13.2285   24.8821 C   0  0  0  0  0  0  0  0  0  0  0  0
    9.1472   10.4676   23.7341 C   0  0  0  0  0  0  0  0  0  0  0  0
    7.8862   11.0609   24.1236 C   0  0  0  0  0  0  0  0  0  0  0  0
   10.1603   11.4485   23.8269 C   0  0  0  0  0  0  0  0  0  0  0  0
    8.1051   12.4155   24.4618 C   0  0  0  0  0  0  0  0  0  0  0  0
    8.7457   14.6190   21.3275 C   0  0  0  0  0  0  0  0  0  0  0  0
    5.5221   13.0309   20.7165 C   0  0  0  0  0  0  0  0  0  0  0  0
    5.5620   15.3892   19.8049 C   0  0  0  0  0  0  0  0  0  0  0  0
    7.0355   12.9496   20.5051 C   0  0  0  0  0  0  0  0  0  0  0  0
    7.0737   15.2606   19.6114 C   0  0  0  0  0  0  0  0  0  0  0  0
    9.5776   12.7692   24.3095 C   0  0  0  0  0  0  0  0  0  0  0  0
    4.8314   14.0294   19.7620 C   0  0  0  0  0  0  0  0  0  0  0  0
    2.6270   12.8894   20.1500 C   0  0  0  0  0  0  0  0  0  0  0  0
    2.6805   15.2549   19.3073 C   0  0  0  0  0  0  0  0  0  0  0  0
    9.8080   13.9012   23.3311 C   0  0  0  0  0  0  0  0  0  0  0  0
    3.3676   14.2205   20.1920 C   0  0  0  0  0  0  0  0  0  0  0  0
    4.8432   13.0764   17.2978 N   0  0  0  0  0  0  0  0  0  0  0  0
    7.6444   14.2819   20.5340 N   0  0  0  0  0  0  0  0  0  0  0  0
    9.2626   15.7345   21.3576 O   0  0  0  0  0  0  0  0  0  0  0  0
    3.3567   14.6848   21.5393 O   0  0  0  0  0  0  0  0  0  0  0  0
    9.1984   13.5669   22.0789 O   0  0  0  0  0  0  0  0  0  0  0  0
   11.0354    7.8743   22.6778 H   0  0  0  0  0  0  0  0  0  0  0  0
    4.5579   10.9218   24.6786 H   0  0  0  0  0  0  0  0  0  0  0  0
   12.8061    9.5935   22.8533 H   0  0  0  0  0  0  0  0  0  0  0  0
    4.9499   13.2900   25.2796 H   0  0  0  0  0  0  0  0  0  0  0  0
    8.6830    8.4149   23.2412 H   0  0  0  0  0  0  0  0  0  0  0  0
    6.4290    9.4753   23.9382 H   0  0  0  0  0  0  0  0  0  0  0  0
   12.2581   11.9014   23.5980 H   0  0  0  0  0  0  0  0  0  0  0  0
    7.2331   14.2657   25.1508 H   0  0  0  0  0  0  0  0  0  0  0  0
    5.0921   12.0275   20.6004 H   0  0  0  0  0  0  0  0  0  0  0  0
    5.3377   13.3311   21.7569 H   0  0  0  0  0  0  0  0  0  0  0  0
    5.3809   15.8723   20.7746 H   0  0  0  0  0  0  0  0  0  0  0  0
    5.1610   16.0669   19.0399 H   0  0  0  0  0  0  0  0  0  0  0  0
    7.4717   12.2946   21.2643 H   0  0  0  0  0  0  0  0  0  0  0  0
    7.2693   12.5086   19.5290 H   0  0  0  0  0  0  0  0  0  0  0  0
    7.3101   14.9267   18.5944 H   0  0  0  0  0  0  0  0  0  0  0  0
    7.5451   16.2395   19.7459 H   0  0  0  0  0  0  0  0  0  0  0  0
    9.9938   13.0063   25.2958 H   0  0  0  0  0  0  0  0  0  0  0  0
    1.5828   13.0210   20.4559 H   0  0  0  0  0  0  0  0  0  0  0  0
    3.0665   12.1725   20.8529 H   0  0  0  0  0  0  0  0  0  0  0  0
    2.6419   12.4470   19.1487 H   0  0  0  0  0  0  0  0  0  0  0  0
    1.6359   15.3979   19.6066 H   0  0  0  0  0  0  0  0  0  0  0  0
    3.1874   16.2245   19.3475 H   0  0  0  0  0  0  0  0  0  0  0  0
    2.6600   14.9155   18.2654 H   0  0  0  0  0  0  0  0  0  0  0  0
   10.8789   14.0580   23.1709 H   0  0  0  0  0  0  0  0  0  0  0  0
    9.3619   14.8279   23.7041 H   0  0  0  0  0  0  0  0  0  0  0  0
    2.4254   14.7969   21.7854 H   0  0  0  0  0  0  0  0  0  0  0  0
  1 20  1  0  0  0  0
  1 25  3  0  0  0  0
  2  4  1  0  0  0  0
  2  6  2  0  0  0  0
  3  5  1  0  0  0  0
  3  7  2  0  0  0  0
  4  8  2  0  0  0  0
  5  9  2  0  0  0  0
  6 10  1  0  0  0  0
  7 11  1  0  0  0  0
  8 12  1  0  0  0  0
  9 13  1  0  0  0  0
 10 11  1  0  0  0  0
 10 12  2  0  0  0  0
 11 13  2  0  0  0  0
 12 19  1  0  0  0  0
 13 19  1  0  0  0  0
 14 26  1  0  0  0  0
 14 27  2  0  0  0  0
 14 29  1  0  0  0  0
 15 17  1  0  0  0  0
 15 20  1  0  0  0  0
 16 18  1  0  0  0  0
 16 20  1  0  0  0  0
 17 26  1  0  0  0  0
 18 26  1  0  0  0  0
 19 23  1  0  0  0  0
 20 24  1  0  0  0  0
 21 24  1  0  0  0  0
 22 24  1  0  0  0  0
 23 29  1  0  0  0  0
 24 28  1  0  0  0  0
  2 30  1  0  0  0  0
  3 31  1  0  0  0  0
  4 32  1  0  0  0  0
  5 33  1  0  0  0  0
  6 34  1  0  0  0  0
  7 35  1  0  0  0  0
  8 36  1  0  0  0  0
  9 37  1  0  0  0  0
 15 38  1  0  0  0  0
 15 39  1  0  0  0  0
 16 40  1  0  0  0  0
 16 41  1  0  0  0  0
 17 42  1  0  0  0  0
 17 43  1  0  0  0  0
 18 44  1  0  0  0  0
 18 45  1  0  0  0  0
 19 46  1  0  0  0  0
 21 47  1  0  0  0  0
 21 48  1  0  0  0  0
 21 49  1  0  0  0  0
 22 50  1  0  0  0  0
 22 51  1  0  0  0  0
 22 52  1  0  0  0  0
 23 53  1  0  0  0  0
 23 54  1  0  0  0  0
 28 55  1  0  0  0  0
M  END
> <id>
EN300-37389511

> <smiles>
CC(C)(O)C1(CCN(CC1)C(=O)OCC2C=3C=CC=CC3C=4C=CC=CC24)C#N

> <IUPAC Name>
(9H-fluoren-9-yl)methyl 4-cyano-4-(2-hydroxypropan-2-yl)piperidine-1-carboxylate

> <CAS>
2763998-05-4

> <URL>
https://www.enaminestore.com/catalog/EN300-37389511

> <ROCS_ShapeQuery>
x0446_0A_x1080_0A_x0929_0A_x0812_0A_x0719_0A_x1140_0A_x0528_0A_x0310_0A

> <ROCS_TanimotoCombo>
0.412 

> <ROCS_ShapeTanimoto>
0.248 

> <ROCS_ColorTanimoto>
0.164 

> <ROCS_RefTversky>
0.230 

> <ROCS_RefColorTversky>
0.182 

> <ROCS_RefTverskyCombo>
0.413 

> <ROCS_FitTversky>
1.454 

> <ROCS_FitColorTversky>
0.624 

> <ROCS_FitTverskyCombo>
2.079 

> <ROCS_ColorScore>
-6.518

> <ROCS_Overlap>
2725.286

> <ROCS_Rank>
381                 

$$$$
untitled-dbase-292913_3
  -OEChem-02082415563D

 52 56  0     0  0  0  0  0  0999 V2000
    5.5385   19.5734   20.9221 C   0  0  0  0  0  0  0  0  0  0  0  0
    6.9362   19.7233   20.8022 C   0  0  0  0  0  0  0  0  0  0  0  0
    4.9672   18.3245   21.1832 C   0  0  0  0  0  0  0  0  0  0  0  0
    7.7932   18.6275   20.9407 C   0  0  0  0  0  0  0  0  0  0  0  0
    5.8298   17.2573   21.3195 C   0  0  0  0  0  0  0  0  0  0  0  0
    7.2101   17.4053   21.2010 C   0  0  0  0  0  0  0  0  0  0  0  0
    5.5461   15.8427   21.5819 C   0  0  0  0  0  0  0  0  0  0  0  0
    7.8252   16.0870   21.3859 C   0  0  0  0  0  0  0  0  0  0  0  0
    7.0853   13.6925   23.2979 C   0  0  0  0  0  0  0  0  0  0  0  0
    9.3316   12.7199   22.9110 C   0  0  0  0  0  0  0  0  0  0  0  0
    8.0957   12.2818   25.0485 C   0  0  0  0  0  0  0  0  0  0  0  0
    7.2923   11.2551   22.9030 C   0  0  0  0  0  0  0  0  0  0  0  0
   10.3675   11.2699   24.6836 C   0  0  0  0  0  0  0  0  0  0  0  0
    9.5637   10.2449   22.5340 C   0  0  0  0  0  0  0  0  0  0  0  0
    8.3245    9.8056   24.6772 C   0  0  0  0  0  0  0  0  0  0  0  0
    7.9510   12.4852   23.5355 C   0  0  0  0  0  0  0  0  0  0  0  0
   10.2357   11.4903   23.1583 C   0  0  0  0  0  0  0  0  0  0  0  0
    8.9803   11.0452   25.3298 C   0  0  0  0  0  0  0  0  0  0  0  0
    8.1661   10.0047   23.1515 C   0  0  0  0  0  0  0  0  0  0  0  0
   11.6165   11.7149   22.5348 C   0  0  0  0  0  0  0  0  0  0  0  0
    9.1278   10.8326   26.8394 C   0  0  0  0  0  0  0  0  0  0  0  0
    7.5145    8.7699   22.5215 C   0  0  0  0  0  0  0  0  0  0  0  0
    6.7747   15.2632   21.6441 N   0  0  0  0  0  0  0  0  0  0  0  0
    4.4358   15.3684   21.7198 O   0  0  0  0  0  0  0  0  0  0  0  0
    9.0174   15.8597   21.3254 O   0  0  0  0  0  0  0  0  0  0  0  0
    6.5916   14.3671   24.1918 O   0  0  0  0  0  0  0  0  0  0  0  0
    6.9479   13.8970   21.9560 O   0  0  0  0  0  0  0  0  0  0  0  0
    4.8978   20.4441   20.8080 H   0  0  0  0  0  0  0  0  0  0  0  0
    7.3507   20.7071   20.5975 H   0  0  0  0  0  0  0  0  0  0  0  0
    3.8934   18.2101   21.2725 H   0  0  0  0  0  0  0  0  0  0  0  0
    8.8663   18.7433   20.8456 H   0  0  0  0  0  0  0  0  0  0  0  0
    9.2336   12.9086   21.8331 H   0  0  0  0  0  0  0  0  0  0  0  0
    9.7959   13.6207   23.3356 H   0  0  0  0  0  0  0  0  0  0  0  0
    8.5343   13.1755   25.5132 H   0  0  0  0  0  0  0  0  0  0  0  0
    7.1075   12.1538   25.5115 H   0  0  0  0  0  0  0  0  0  0  0  0
    6.2878   11.1017   23.3208 H   0  0  0  0  0  0  0  0  0  0  0  0
    7.1514   11.4117   21.8247 H   0  0  0  0  0  0  0  0  0  0  0  0
   11.0160   10.4057   24.8813 H   0  0  0  0  0  0  0  0  0  0  0  0
   10.8574   12.1382   25.1446 H   0  0  0  0  0  0  0  0  0  0  0  0
    9.4738   10.3752   21.4470 H   0  0  0  0  0  0  0  0  0  0  0  0
   10.1973    9.3614   22.6899 H   0  0  0  0  0  0  0  0  0  0  0  0
    8.9335    8.9133   24.8756 H   0  0  0  0  0  0  0  0  0  0  0  0
    7.3425    9.6196   25.1329 H   0  0  0  0  0  0  0  0  0  0  0  0
   12.2436   10.8450   22.7144 H   0  0  0  0  0  0  0  0  0  0  0  0
   12.0801   12.5912   22.9812 H   0  0  0  0  0  0  0  0  0  0  0  0
   11.5123   11.8687   21.4635 H   0  0  0  0  0  0  0  0  0  0  0  0
    9.7510    9.9614   27.0259 H   0  0  0  0  0  0  0  0  0  0  0  0
    8.1476   10.6757   27.2831 H   0  0  0  0  0  0  0  0  0  0  0  0
    9.5900   11.7088   27.2876 H   0  0  0  0  0  0  0  0  0  0  0  0
    8.1369    7.8969   22.7022 H   0  0  0  0  0  0  0  0  0  0  0  0
    7.4078    8.9205   21.4500 H   0  0  0  0  0  0  0  0  0  0  0  0
    6.5335    8.6103   22.9624 H   0  0  0  0  0  0  0  0  0  0  0  0
  1  2  1  0  0  0  0
  1  3  2  0  0  0  0
  2  4  2  0  0  0  0
  3  5  1  0  0  0  0
  4  6  1  0  0  0  0
  5  6  2  0  0  0  0
  5  7  1  0  0  0  0
  6  8  1  0  0  0  0
  7 23  1  0  0  0  0
  7 24  2  0  0  0  0
  8 23  1  0  0  0  0
  8 25  2  0  0  0  0
  9 16  1  0  0  0  0
  9 26  2  0  0  0  0
  9 27  1  0  0  0  0
 10 16  1  0  0  0  0
 10 17  1  0  0  0  0
 11 16  1  0  0  0  0
 11 18  1  0  0  0  0
 12 16  1  0  0  0  0
 12 19  1  0  0  0  0
 13 17  1  0  0  0  0
 13 18  1  0  0  0  0
 14 17  1  0  0  0  0
 14 19  1  0  0  0  0
 15 18  1  0  0  0  0
 15 19  1  0  0  0  0
 17 20  1  0  0  0  0
 18 21  1  0  0  0  0
 19 22  1  0  0  0  0
 23 27  1  0  0  0  0
  1 28  1  0  0  0  0
  2 29  1  0  0  0  0
  3 30  1  0  0  0  0
  4 31  1  0  0  0  0
 10 32  1  0  0  0  0
 10 33  1  0  0  0  0
 11 34  1  0  0  0  0
 11 35  1  0  0  0  0
 12 36  1  0  0  0  0
 12 37  1  0  0  0  0
 13 38  1  0  0  0  0
 13 39  1  0  0  0  0
 14 40  1  0  0  0  0
 14 41  1  0  0  0  0
 15 42  1  0  0  0  0
 15 43  1  0  0  0  0
 20 44  1  0  0  0  0
 20 45  1  0  0  0  0
 20 46  1  0  0  0  0
 21 47  1  0  0  0  0
 21 48  1  0  0  0  0
 21 49  1  0  0  0  0
 22 50  1  0  0  0  0
 22 51  1  0  0  0  0
 22 52  1  0  0  0  0
M  END
> <id>
EN300-6521303

> <smiles>
CC1(CC2(C)CC3(C)C1)CC(C2)(C3)C(=O)ON4C(=O)C=5C=CC=CC5C4=O

> <IUPAC Name>
1,3-dioxo-2,3-dihydro-1H-isoindol-2-yl 3,5,7-trimethyladamantane-1-carboxylate

> <CAS>
2248273-57-4

> <URL>
https://www.enaminestore.com/catalog/EN300-6521303

> <ROCS_ShapeQuery>
x0446_0A_x1080_0A_x0929_0A_x0812_0A_x0719_0A_x1140_0A_x0528_0A_x0310_0A

> <ROCS_TanimotoCombo>
0.412 

> <ROCS_ShapeTanimoto>
0.228 

> <ROCS_ColorTanimoto>
0.184 

> <ROCS_RefTversky>
0.215 

> <ROCS_RefColorTversky>
0.211 

> <ROCS_RefTverskyCombo>
0.425 

> <ROCS_FitTversky>
1.389 

> <ROCS_FitColorTversky>
0.593 

> <ROCS_FitTverskyCombo>
1.982 

> <ROCS_ColorScore>
-7.567

> <ROCS_Overlap>
2537.071

> <ROCS_Rank>
382                 

$$$$
untitled-dbase-245400_2
  -OEChem-02082415563D

 23 25  0     0  0  0  0  0  0999 V2000
   11.2542   14.8558   22.9090 C   0  0  0  0  0  0  0  0  0  0  0  0
    9.4448   10.6431   23.6062 C   0  0  0  0  0  0  0  0  0  0  0  0
   10.0495   14.1467   22.7619 C   0  0  0  0  0  0  0  0  0  0  0  0
    9.3045   11.9993   23.8209 C   0  0  0  0  0  0  0  0  0  0  0  0
   10.2104   13.0584   23.5778 C   0  0  0  0  0  0  0  0  0  0  0  0
    7.5043   10.8812   24.4183 C   0  0  0  0  0  0  0  0  0  0  0  0
    6.1743   10.7293   24.9387 C   0  0  0  0  0  0  0  0  0  0  0  0
    6.0757   13.0079   25.2446 C   0  0  0  0  0  0  0  0  0  0  0  0
    7.3166   13.2296   24.7684 C   0  0  0  0  0  0  0  0  0  0  0  0
    8.9090   14.4647   21.9565 C   0  0  0  0  0  0  0  0  0  0  0  0
    8.3159    9.9498   23.9817 N   0  0  0  0  0  0  0  0  0  0  0  0
   12.0977   14.2532   23.7518 N   0  0  0  0  0  0  0  0  0  0  0  0
    5.4760   11.7572   25.3411 N   0  0  0  0  0  0  0  0  0  0  0  0
    8.0504   12.1375   24.3441 N   0  0  0  0  0  0  0  0  0  0  0  0
    7.8600   13.7939   21.8642 O   0  0  0  0  0  0  0  0  0  0  0  0
   11.4288   13.1106   24.1742 O   0  0  0  0  0  0  0  0  0  0  0  0
    9.0520   15.6288   21.2484 O   0  0  0  0  0  0  0  0  0  0  0  0
   11.5573   15.7820   22.4426 H   0  0  0  0  0  0  0  0  0  0  0  0
   10.3019   10.1251   23.1988 H   0  0  0  0  0  0  0  0  0  0  0  0
    5.7349    9.7210   24.9989 H   0  0  0  0  0  0  0  0  0  0  0  0
    5.4706   13.8406   25.5870 H   0  0  0  0  0  0  0  0  0  0  0  0
    7.7588   14.2155   24.7053 H   0  0  0  0  0  0  0  0  0  0  0  0
    8.2753   15.8560   20.6939 H   0  0  0  0  0  0  0  0  0  0  0  0
  1  3  1  0  0  0  0
  1 12  2  0  0  0  0
  2  4  2  0  0  0  0
  2 11  1  0  0  0  0
  3  5  2  0  0  0  0
  3 10  1  0  0  0  0
  4  5  1  0  0  0  0
  4 14  1  0  0  0  0
  5 16  1  0  0  0  0
  6  7  1  0  0  0  0
  6 11  2  0  0  0  0
  6 14  1  0  0  0  0
  7 13  2  0  0  0  0
  8  9  2  0  0  0  0
  8 13  1  0  0  0  0
  9 14  1  0  0  0  0
 10 15  2  0  0  0  0
 10 17  1  0  0  0  0
 12 16  1  0  0  0  0
  1 18  1  0  0  0  0
  2 19  1  0  0  0  0
  7 20  1  0  0  0  0
  8 21  1  0  0  0  0
  9 22  1  0  0  0  0
 17 23  1  0  0  0  0
M  END
> <id>
EN300-1727037

> <smiles>
OC(=O)C=1C=NOC1C2=CN=C3C=NC=CN23

> <IUPAC Name>
5-{imidazo[1,2-a]pyrazin-3-yl}-1,2-oxazole-4-carboxylic acid

> <CAS>
2228282-01-5

> <URL>
https://www.enaminestore.com/catalog/EN300-1727037

> <ROCS_ShapeQuery>
x0446_0A_x1080_0A_x0929_0A_x0812_0A_x0719_0A_x1140_0A_x0528_0A_x0310_0A

> <ROCS_TanimotoCombo>
0.412 

> <ROCS_ShapeTanimoto>
0.236 

> <ROCS_ColorTanimoto>
0.177 

> <ROCS_RefTversky>
0.213 

> <ROCS_RefColorTversky>
0.198 

> <ROCS_RefTverskyCombo>
0.411 

> <ROCS_FitTversky>
1.805 

> <ROCS_FitColorTversky>
0.622 

> <ROCS_FitTverskyCombo>
2.427 

> <ROCS_ColorScore>
-7.086

> <ROCS_Overlap>
2518.576

> <ROCS_Rank>
383                 

$$$$
untitled-dbase-47252_2
  -OEChem-02082415563D

 39 41  0     0  0  0  0  0  0999 V2000
   12.7979   14.4649   23.1883 C   0  0  0  0  0  0  0  0  0  0  0  0
   11.1311   15.0349   21.5350 C   0  0  0  0  0  0  0  0  0  0  0  0
   13.5570   15.5703   22.8042 C   0  0  0  0  0  0  0  0  0  0  0  0
   11.8901   16.1403   21.1508 C   0  0  0  0  0  0  0  0  0  0  0  0
    7.4226   10.5883   24.4523 C   0  0  0  0  0  0  0  0  0  0  0  0
   11.5850   14.1972   22.5537 C   0  0  0  0  0  0  0  0  0  0  0  0
    7.5809   11.9664   24.2658 C   0  0  0  0  0  0  0  0  0  0  0  0
   13.1031   16.4080   21.7854 C   0  0  0  0  0  0  0  0  0  0  0  0
    8.8551   12.1110   23.7665 C   0  0  0  0  0  0  0  0  0  0  0  0
   11.4299   11.6806   22.8207 C   0  0  0  0  0  0  0  0  0  0  0  0
   10.7747   13.0194   22.9627 C   0  0  0  0  0  0  0  0  0  0  0  0
   10.6950   10.6210   23.1955 C   0  0  0  0  0  0  0  0  0  0  0  0
    6.6520   13.0249   24.5245 C   0  0  0  0  0  0  0  0  0  0  0  0
   13.9146   17.5905   21.3758 C   0  0  0  0  0  0  0  0  0  0  0  0
    3.2183   12.8115   25.8537 C   0  0  0  0  0  0  0  0  0  0  0  0
    4.4407   13.5287   25.3217 C   0  0  0  0  0  0  0  0  0  0  0  0
   11.2151    9.2176   23.1088 C   0  0  0  0  0  0  0  0  0  0  0  0
    8.5026    9.8915   24.1038 N   0  0  0  0  0  0  0  0  0  0  0  0
    9.5628   13.2130   23.3976 N   0  0  0  0  0  0  0  0  0  0  0  0
    9.3954   10.8280   23.6778 N   0  0  0  0  0  0  0  0  0  0  0  0
    6.8698   14.2413   24.3300 O   0  0  0  0  0  0  0  0  0  0  0  0
    5.4548   12.5633   25.0234 O   0  0  0  0  0  0  0  0  0  0  0  0
   11.2086    8.6385   24.3306 F   0  0  0  0  0  0  0  0  0  0  0  0
   10.4197    8.4714   22.3100 F   0  0  0  0  0  0  0  0  0  0  0  0
   13.1605   13.8185   23.9833 H   0  0  0  0  0  0  0  0  0  0  0  0
   10.1875   14.8361   21.0334 H   0  0  0  0  0  0  0  0  0  0  0  0
   14.5006   15.7715   23.3042 H   0  0  0  0  0  0  0  0  0  0  0  0
   11.5286   16.7881   20.3564 H   0  0  0  0  0  0  0  0  0  0  0  0
    6.5623   10.0535   24.8294 H   0  0  0  0  0  0  0  0  0  0  0  0
   12.4402   11.6048   22.4390 H   0  0  0  0  0  0  0  0  0  0  0  0
   14.6139   17.3154   20.5768 H   0  0  0  0  0  0  0  0  0  0  0  0
   13.2755   18.4060   21.0134 H   0  0  0  0  0  0  0  0  0  0  0  0
   14.4909   17.9900   22.2204 H   0  0  0  0  0  0  0  0  0  0  0  0
    2.8247   12.1095   25.1133 H   0  0  0  0  0  0  0  0  0  0  0  0
    3.4612   12.2611   26.7685 H   0  0  0  0  0  0  0  0  0  0  0  0
    2.4325   13.5288   26.1130 H   0  0  0  0  0  0  0  0  0  0  0  0
    4.8292   14.2292   26.0670 H   0  0  0  0  0  0  0  0  0  0  0  0
    4.1964   14.0774   24.4073 H   0  0  0  0  0  0  0  0  0  0  0  0
   12.2270    9.2138   22.7140 H   0  0  0  0  0  0  0  0  0  0  0  0
  1  3  2  0  0  0  0
  1  6  1  0  0  0  0
  2  4  1  0  0  0  0
  2  6  2  0  0  0  0
  3  8  1  0  0  0  0
  4  8  2  0  0  0  0
  5  7  1  0  0  0  0
  5 18  2  0  0  0  0
  6 11  1  0  0  0  0
  7  9  2  0  0  0  0
  7 13  1  0  0  0  0
  8 14  1  0  0  0  0
  9 19  1  0  0  0  0
  9 20  1  0  0  0  0
 10 11  1  0  0  0  0
 10 12  2  0  0  0  0
 11 19  2  0  0  0  0
 12 17  1  0  0  0  0
 12 20  1  0  0  0  0
 13 21  2  0  0  0  0
 13 22  1  0  0  0  0
 15 16  1  0  0  0  0
 16 22  1  0  0  0  0
 17 23  1  0  0  0  0
 17 24  1  0  0  0  0
 18 20  1  0  0  0  0
  1 25  1  0  0  0  0
  2 26  1  0  0  0  0
  3 27  1  0  0  0  0
  4 28  1  0  0  0  0
  5 29  1  0  0  0  0
 10 30  1  0  0  0  0
 14 31  1  0  0  0  0
 14 32  1  0  0  0  0
 14 33  1  0  0  0  0
 15 34  1  0  0  0  0
 15 35  1  0  0  0  0
 15 36  1  0  0  0  0
 16 37  1  0  0  0  0
 16 38  1  0  0  0  0
 17 39  1  0  0  0  0
M  END
> <id>
EN300-228271

> <smiles>
CCOC(=O)C=1C=NN2C(=CC(=NC12)C=3C=CC(C)=CC3)C(F)F

> <MDLNUMBER>
MFCD03074470

> <IUPAC Name>
ethyl 7-(difluoromethyl)-5-(4-methylphenyl)pyrazolo[1,5-a]pyrimidine-3-carboxylate

> <CAS>
438218-13-4

> <URL>
https://www.enaminestore.com/catalog/EN300-228271

> <ROCS_ShapeQuery>
x0446_0A_x1080_0A_x0929_0A_x0812_0A_x0719_0A_x1140_0A_x0528_0A_x0310_0A

> <ROCS_TanimotoCombo>
0.412 

> <ROCS_ShapeTanimoto>
0.266 

> <ROCS_ColorTanimoto>
0.147 

> <ROCS_RefTversky>
0.240 

> <ROCS_RefColorTversky>
0.155 

> <ROCS_RefTverskyCombo>
0.395 

> <ROCS_FitTversky>
1.694 

> <ROCS_FitColorTversky>
0.728 

> <ROCS_FitTverskyCombo>
2.422 

> <ROCS_ColorScore>
-5.523

> <ROCS_Overlap>
2833.061

> <ROCS_Rank>
384                 

$$$$
untitled-dbase-518711_8
  -OEChem-02082415563D

 36 38  0     0  0  0  0  0  0999 V2000
   12.8767   14.2690   22.2425 C   0  0  0  0  0  0  0  0  0  0  0  0
   12.3648   15.4127   21.6297 C   0  0  0  0  0  0  0  0  0  0  0  0
   12.0101   13.3312   22.8039 C   0  0  0  0  0  0  0  0  0  0  0  0
   10.9862   15.6186   21.5784 C   0  0  0  0  0  0  0  0  0  0  0  0
   10.6314   13.5372   22.7525 C   0  0  0  0  0  0  0  0  0  0  0  0
   10.1195   14.6809   22.1398 C   0  0  0  0  0  0  0  0  0  0  0  0
    8.1031   12.7113   23.3287 C   0  0  0  0  0  0  0  0  0  0  0  0
    9.4414   12.5077   24.9514 C   0  0  0  0  0  0  0  0  0  0  0  0
   10.0586   11.0288   22.9666 C   0  0  0  0  0  0  0  0  0  0  0  0
    8.2077   10.3489   24.4021 C   0  0  0  0  0  0  0  0  0  0  0  0
    9.6598   12.4613   23.3964 C   0  0  0  0  0  0  0  0  0  0  0  0
    8.0543   11.8630   24.6454 C   0  0  0  0  0  0  0  0  0  0  0  0
    8.3369   16.0897   21.4373 C   0  0  0  0  0  0  0  0  0  0  0  0
    6.9524   12.2010   25.6309 C   0  0  0  0  0  0  0  0  0  0  0  0
    8.9514   10.0891   23.1667 N   0  0  0  0  0  0  0  0  0  0  0  0
    5.6967   12.0277   24.9935 O   0  0  0  0  0  0  0  0  0  0  0  0
    8.7756   14.8952   22.0816 O   0  0  0  0  0  0  0  0  0  0  0  0
   13.9503   14.1094   22.2824 H   0  0  0  0  0  0  0  0  0  0  0  0
   13.0400   16.1427   21.1930 H   0  0  0  0  0  0  0  0  0  0  0  0
   12.4167   12.4427   23.2793 H   0  0  0  0  0  0  0  0  0  0  0  0
   10.5941   16.5121   21.1001 H   0  0  0  0  0  0  0  0  0  0  0  0
    7.8062   13.7619   23.4480 H   0  0  0  0  0  0  0  0  0  0  0  0
    7.5705   12.3124   22.4600 H   0  0  0  0  0  0  0  0  0  0  0  0
   10.1314   11.9163   25.5621 H   0  0  0  0  0  0  0  0  0  0  0  0
    9.3974   13.5197   25.3757 H   0  0  0  0  0  0  0  0  0  0  0  0
   10.3307   11.0054   21.9047 H   0  0  0  0  0  0  0  0  0  0  0  0
   10.9386   10.6913   23.5276 H   0  0  0  0  0  0  0  0  0  0  0  0
    8.7141    9.8735   25.2504 H   0  0  0  0  0  0  0  0  0  0  0  0
    7.2241    9.8732   24.3128 H   0  0  0  0  0  0  0  0  0  0  0  0
    7.2455   16.1374   21.4604 H   0  0  0  0  0  0  0  0  0  0  0  0
    8.6909   16.0981   20.4033 H   0  0  0  0  0  0  0  0  0  0  0  0
    8.7483   16.9515   21.9681 H   0  0  0  0  0  0  0  0  0  0  0  0
    7.0419   13.2392   25.9611 H   0  0  0  0  0  0  0  0  0  0  0  0
    7.0027   11.5403   26.5003 H   0  0  0  0  0  0  0  0  0  0  0  0
    8.3092   10.1739   22.3781 H   0  0  0  0  0  0  0  0  0  0  0  0
    5.0144   12.2510   25.6481 H   0  0  0  0  0  0  0  0  0  0  0  0
  1  2  1  0  0  0  0
  1  3  2  0  0  0  0
  2  4  2  0  0  0  0
  3  5  1  0  0  0  0
  4  6  1  0  0  0  0
  5  6  2  0  0  0  0
  5 11  1  0  0  0  0
  6 17  1  0  0  0  0
  7 11  1  0  0  0  0
  7 12  1  0  0  0  0
  8 11  1  0  0  0  0
  8 12  1  0  0  0  0
  9 11  1  0  0  0  0
  9 15  1  0  0  0  0
 10 12  1  0  0  0  0
 10 15  1  0  0  0  0
 12 14  1  0  0  0  0
 13 17  1  0  0  0  0
 14 16  1  0  0  0  0
  1 18  1  0  0  0  0
  2 19  1  0  0  0  0
  3 20  1  0  0  0  0
  4 21  1  0  0  0  0
  7 22  1  0  0  0  0
  7 23  1  0  0  0  0
  8 24  1  0  0  0  0
  8 25  1  0  0  0  0
  9 26  1  0  0  0  0
  9 27  1  0  0  0  0
 10 28  1  0  0  0  0
 10 29  1  0  0  0  0
 13 30  1  0  0  0  0
 13 31  1  0  0  0  0
 13 32  1  0  0  0  0
 14 33  1  0  0  0  0
 14 34  1  0  0  0  0
 15 35  1  0  0  0  0
 16 36  1  0  0  0  0
M  END
> <id>
EN300-30839385

> <smiles>
COC=1C=CC=CC1C2(CC3(CO)C2)CNC3

> <MDLNUMBER>
MFCD34550811

> <IUPAC Name>
[5-(2-methoxyphenyl)-3-azabicyclo[3.1.1]heptan-1-yl]methanol

> <CAS>
2703775-20-4

> <Purity>
95

> <URL>
https://www.enaminestore.com/catalog/EN300-30839385

> <ROCS_ShapeQuery>
x0446_0A_x1080_0A_x0929_0A_x0812_0A_x0719_0A_x1140_0A_x0528_0A_x0310_0A

> <ROCS_TanimotoCombo>
0.412 

> <ROCS_ShapeTanimoto>
0.235 

> <ROCS_ColorTanimoto>
0.177 

> <ROCS_RefTversky>
0.212 

> <ROCS_RefColorTversky>
0.207 

> <ROCS_RefTverskyCombo>
0.418 

> <ROCS_FitTversky>
1.867 

> <ROCS_FitColorTversky>
0.557 

> <ROCS_FitTverskyCombo>
2.423 

> <ROCS_ColorScore>
-7.428

> <ROCS_Overlap>
2499.132

> <ROCS_Rank>
385                 

$$$$
untitled-dbase-275744_1
  -OEChem-02082415563D

 71 76  0     1  0  0  0  0  0999 V2000
    3.0229   12.1780   17.9860 C   0  0  0  0  0  0  0  0  0  0  0  0
    2.3058   10.6828   19.8928 C   0  0  0  0  0  0  0  0  0  0  0  0
    3.7047   12.9325   18.8534 C   0  0  0  0  0  0  0  0  0  0  0  0
    2.9933   11.4435   20.7590 C   0  0  0  0  0  0  0  0  0  0  0  0
    2.2631   11.0036   18.4516 C   0  0  0  0  0  0  0  0  0  0  0  0
   10.2272   13.3979   23.1334 C   0  0  0  0  0  0  0  0  0  0  0  0
   11.7940   15.9497   22.1010 C   0  0  0  0  0  0  0  0  0  0  0  0
    3.0653   11.0601   22.2151 C   0  0  0  0  0  0  0  0  0  0  0  0
    4.5151   10.8656   22.6428 C   0  0  0  0  0  0  0  0  0  0  0  0
   10.4264    7.9253   22.7174 C   0  0  0  0  0  0  0  0  0  0  0  0
   11.6984    8.6281   23.1942 C   0  0  0  0  0  0  0  0  0  0  0  0
    9.5437    9.0125   22.1109 C   0  0  0  0  0  0  0  0  0  0  0  0
   11.5222   10.1034   22.8460 C   0  0  0  0  0  0  0  0  0  0  0  0
    7.2257   11.3413   24.0629 C   0  0  0  0  0  0  0  0  0  0  0  0
    7.7328   13.3267   20.8970 C   0  0  0  0  0  0  0  0  0  0  0  0
    5.3916   12.0879   22.3119 C   0  0  1  0  0  0  0  0  0  0  0  0
    6.8606   11.7954   22.6475 C   0  0  1  0  0  0  0  0  0  0  0  0
    8.7431   11.6081   24.1600 C   0  0  2  0  0  0  0  0  0  0  0  0
    6.2961   13.5814   20.3870 C   0  0  1  0  0  0  0  0  0  0  0  0
    3.7806   12.6966   20.3548 C   0  0  1  0  0  0  0  0  0  0  0  0
    9.1304   12.4001   22.9082 C   0  0  1  0  0  0  0  0  0  0  0  0
    7.7957   13.0015   22.4006 C   0  0  1  0  0  0  0  0  0  0  0  0
    5.2805   12.4708   20.7950 C   0  0  2  0  0  0  0  0  0  0  0  0
   10.0114   10.2976   22.7819 C   0  0  0  0  0  0  0  0  0  0  0  0
   12.9375   16.8283   22.5088 C   0  0  0  0  0  0  0  0  0  0  0  0
    3.1000   13.9153   21.0198 C   0  0  0  0  0  0  0  0  0  0  0  0
    7.4333   14.2479   23.2528 C   0  0  0  0  0  0  0  0  0  0  0  0
   11.1224   13.6893   21.9478 C   0  0  0  0  0  0  0  0  0  0  0  0
    1.6217   10.3126   17.6673 O   0  0  0  0  0  0  0  0  0  0  0  0
   10.3808   13.9431   24.2254 O   0  0  0  0  0  0  0  0  0  0  0  0
   10.7313   16.3679   21.6616 O   0  0  0  0  0  0  0  0  0  0  0  0
    9.4790   10.3910   24.1023 O   0  0  0  0  0  0  0  0  0  0  0  0
    9.6695   11.4377   22.0060 O   0  0  0  0  0  0  0  0  0  0  0  0
    5.8879   14.8722   20.8123 O   0  0  0  0  0  0  0  0  0  0  0  0
   12.1167   14.6303   22.2932 O   0  0  0  0  0  0  0  0  0  0  0  0
    5.7065   11.3497   20.0971 F   0  0  0  0  0  0  0  0  0  0  0  0
    3.0028   12.4133   16.9282 H   0  0  0  0  0  0  0  0  0  0  0  0
    1.7672    9.7970   20.2125 H   0  0  0  0  0  0  0  0  0  0  0  0
    4.2273   13.7988   18.4535 H   0  0  0  0  0  0  0  0  0  0  0  0
    2.5922   11.8360   22.8277 H   0  0  0  0  0  0  0  0  0  0  0  0
    2.5106   10.1348   22.4136 H   0  0  0  0  0  0  0  0  0  0  0  0
    4.5382   10.6685   23.7212 H   0  0  0  0  0  0  0  0  0  0  0  0
    4.9210    9.9715   22.1515 H   0  0  0  0  0  0  0  0  0  0  0  0
   10.6449    7.1391   21.9878 H   0  0  0  0  0  0  0  0  0  0  0  0
    9.9222    7.4521   23.5679 H   0  0  0  0  0  0  0  0  0  0  0  0
   11.8093    8.5008   24.2773 H   0  0  0  0  0  0  0  0  0  0  0  0
   12.5946    8.2131   22.7221 H   0  0  0  0  0  0  0  0  0  0  0  0
    9.6942    9.0643   21.0257 H   0  0  0  0  0  0  0  0  0  0  0  0
    8.4838    8.8044   22.2897 H   0  0  0  0  0  0  0  0  0  0  0  0
   11.9988   10.7459   23.5937 H   0  0  0  0  0  0  0  0  0  0  0  0
   11.9829   10.3232   21.8753 H   0  0  0  0  0  0  0  0  0  0  0  0
    6.6885   11.9434   24.8043 H   0  0  0  0  0  0  0  0  0  0  0  0
    6.9770   10.2885   24.2308 H   0  0  0  0  0  0  0  0  0  0  0  0
    8.1478   12.4922   20.3179 H   0  0  0  0  0  0  0  0  0  0  0  0
    8.3616   14.2005   20.6856 H   0  0  0  0  0  0  0  0  0  0  0  0
    5.0369   12.9197   22.9283 H   0  0  0  0  0  0  0  0  0  0  0  0
    7.1656   10.9733   21.9810 H   0  0  0  0  0  0  0  0  0  0  0  0
    8.9756   12.1126   25.1034 H   0  0  0  0  0  0  0  0  0  0  0  0
    6.3739   13.6086   19.2934 H   0  0  0  0  0  0  0  0  0  0  0  0
   12.8439   17.0924   23.5651 H   0  0  0  0  0  0  0  0  0  0  0  0
   12.9551   17.7269   21.8869 H   0  0  0  0  0  0  0  0  0  0  0  0
   13.8783   16.2886   22.3665 H   0  0  0  0  0  0  0  0  0  0  0  0
    3.1306   13.7903   22.0946 H   0  0  0  0  0  0  0  0  0  0  0  0
    2.0731   13.9705   20.6816 H   0  0  0  0  0  0  0  0  0  0  0  0
    3.6336   14.8130   20.7349 H   0  0  0  0  0  0  0  0  0  0  0  0
    7.4892   13.9782   24.2975 H   0  0  0  0  0  0  0  0  0  0  0  0
    6.4305   14.5588   22.9978 H   0  0  0  0  0  0  0  0  0  0  0  0
    8.1395   15.0345   23.0290 H   0  0  0  0  0  0  0  0  0  0  0  0
   10.5252   14.0851   21.1218 H   0  0  0  0  0  0  0  0  0  0  0  0
   11.6147   12.7640   21.6371 H   0  0  0  0  0  0  0  0  0  0  0  0
    6.5143   15.5076   20.4277 H   0  0  0  0  0  0  0  0  0  0  0  0
  1  3  2  0  0  0  0
  1  5  1  0  0  0  0
  2  4  2  0  0  0  0
  2  5  1  0  0  0  0
  3 20  1  0  0  0  0
  4  8  1  0  0  0  0
  4 20  1  0  0  0  0
  5 29  2  0  0  0  0
  6 21  1  1  0  0  0
  6 28  1  0  0  0  0
  6 30  2  0  0  0  0
  7 25  1  0  0  0  0
  7 31  2  0  0  0  0
  7 35  1  0  0  0  0
  8  9  1  0  0  0  0
  9 16  1  6  0  0  0
 10 11  1  0  0  0  0
 10 12  1  0  0  0  0
 11 13  1  0  0  0  0
 12 24  1  0  0  0  0
 13 24  1  0  0  0  0
 14 17  1  1  0  0  0
 14 18  1  0  0  0  0
 15 19  1  0  0  0  0
 15 22  1  0  0  0  0
 16 17  1  0  0  0  0
 16 23  1  0  0  0  0
 17 22  1  0  0  0  0
 18 21  1  0  0  0  0
 18 32  1  6  0  0  0
 19 23  1  0  0  0  0
 19 34  1  1  0  0  0
 20 23  1  0  0  0  0
 20 26  1  1  0  0  0
 21 22  1  0  0  0  0
 21 33  1  0  0  0  0
 22 27  1  1  0  0  0
 23 36  1  6  0  0  0
 24 32  1  0  0  0  0
 24 33  1  0  0  0  0
 28 35  1  0  0  0  0
  1 37  1  0  0  0  0
  2 38  1  0  0  0  0
  3 39  1  0  0  0  0
  8 40  1  0  0  0  0
  8 41  1  0  0  0  0
  9 42  1  0  0  0  0
  9 43  1  0  0  0  0
 10 44  1  0  0  0  0
 10 45  1  0  0  0  0
 11 46  1  0  0  0  0
 11 47  1  0  0  0  0
 12 48  1  0  0  0  0
 12 49  1  0  0  0  0
 13 50  1  0  0  0  0
 13 51  1  0  0  0  0
 14 52  1  0  0  0  0
 14 53  1  0  0  0  0
 15 54  1  0  0  0  0
 15 55  1  0  0  0  0
 16 56  1  0  0  0  0
 17 57  1  0  0  0  0
 18 58  1  0  0  0  0
 19 59  1  0  0  0  0
 25 60  1  0  0  0  0
 25 61  1  0  0  0  0
 25 62  1  0  0  0  0
 26 63  1  0  0  0  0
 26 64  1  0  0  0  0
 26 65  1  0  0  0  0
 27 66  1  0  0  0  0
 27 67  1  0  0  0  0
 27 68  1  0  0  0  0
 28 69  1  0  0  0  0
 28 70  1  0  0  0  0
 34 71  1  0  0  0  0
M  END
> <id>
EN300-19651692

> <smiles>
CC(=O)OCC(=O)[C@]12OC3(CCCC3)O[C@@H]2C[C@H]4[C@@H]5CCC6=CC(=O)C=C[C@]6(C)[C@@]5(F)[C@@H](O)C[C@@]41C

> <MDLNUMBER>
MFCD00213379

> <IUPAC Name>
2-[(1'S,2'S,4'R,8'S,9'S,11'S,12'R,13'S)-12'-fluoro-11'-hydroxy-9',13'-dimethyl-16'-oxo-5',7'-dioxaspiro[cyclopentane-1,6'-pentacyclo[10.8.0.0^{2,9}.0^{4,8}.0^{13,18}]icosane]-14',17'-dien-8'-yl]-2-oxoethyl acetate

> <CAS>
51022-69-6

> <URL>
https://www.enaminestore.com/catalog/EN300-19651692

> <ROCS_ShapeQuery>
x0446_0A_x1080_0A_x0929_0A_x0812_0A_x0719_0A_x1140_0A_x0528_0A_x0310_0A

> <ROCS_TanimotoCombo>
0.412 

> <ROCS_ShapeTanimoto>
0.278 

> <ROCS_ColorTanimoto>
0.135 

> <ROCS_RefTversky>
0.258 

> <ROCS_RefColorTversky>
0.166 

> <ROCS_RefTverskyCombo>
0.424 

> <ROCS_FitTversky>
1.386 

> <ROCS_FitColorTversky>
0.416 

> <ROCS_FitTverskyCombo>
1.802 

> <ROCS_ColorScore>
-5.974

> <ROCS_Overlap>
3053.599

> <ROCS_Rank>
386                 

$$$$
untitled-dbase-47801_0
  -OEChem-02082415563D

 38 40  0     0  0  0  0  0  0999 V2000
   12.1783   16.7084   21.3439 C   0  0  0  0  0  0  0  0  0  0  0  0
   10.3892   14.0207   21.7039 C   0  0  0  0  0  0  0  0  0  0  0  0
    7.6553    9.8110   23.3887 C   0  0  0  0  0  0  0  0  0  0  0  0
    6.7617   12.0333   24.1316 C   0  0  0  0  0  0  0  0  0  0  0  0
    8.4989   10.8574   25.5057 C   0  0  0  0  0  0  0  0  0  0  0  0
    8.2536   11.8907   22.1198 C   0  0  0  0  0  0  0  0  0  0  0  0
    9.9945   10.7117   23.4965 C   0  0  0  0  0  0  0  0  0  0  0  0
    9.0987   12.9389   24.2404 C   0  0  0  0  0  0  0  0  0  0  0  0
    7.1405   11.1790   22.9102 C   0  0  0  0  0  0  0  0  0  0  0  0
    8.8866    9.9968   24.2915 C   0  0  0  0  0  0  0  0  0  0  0  0
    7.9884   12.2307   25.0378 C   0  0  0  0  0  0  0  0  0  0  0  0
    9.4986   12.0914   23.0121 C   0  0  0  0  0  0  0  0  0  0  0  0
   11.6624   15.6944   20.3693 C   0  0  0  0  0  0  0  0  0  0  0  0
   10.5439   12.7577   22.2662 N   0  0  0  0  0  0  0  0  0  0  0  0
   11.5474   14.4227   21.0435 N   0  0  0  0  0  0  0  0  0  0  0  0
   12.4765   16.5071   22.5117 O   0  0  0  0  0  0  0  0  0  0  0  0
    9.3641   14.6968   21.7793 O   0  0  0  0  0  0  0  0  0  0  0  0
   12.2760   17.9218   20.7415 O   0  0  0  0  0  0  0  0  0  0  0  0
    6.8647    9.2848   23.9377 H   0  0  0  0  0  0  0  0  0  0  0  0
    7.9142    9.1852   22.5258 H   0  0  0  0  0  0  0  0  0  0  0  0
    6.3776   13.0069   23.8034 H   0  0  0  0  0  0  0  0  0  0  0  0
    5.9555   11.5460   24.6937 H   0  0  0  0  0  0  0  0  0  0  0  0
    7.7232   10.3497   26.0920 H   0  0  0  0  0  0  0  0  0  0  0  0
    9.3651   10.9849   26.1666 H   0  0  0  0  0  0  0  0  0  0  0  0
    8.5103   11.2947   21.2342 H   0  0  0  0  0  0  0  0  0  0  0  0
    7.8841   12.8588   21.7573 H   0  0  0  0  0  0  0  0  0  0  0  0
   10.8835   10.8266   24.1303 H   0  0  0  0  0  0  0  0  0  0  0  0
   10.2901   10.0904   22.6410 H   0  0  0  0  0  0  0  0  0  0  0  0
    8.7469   13.9290   23.9223 H   0  0  0  0  0  0  0  0  0  0  0  0
    9.9676   13.1023   24.8911 H   0  0  0  0  0  0  0  0  0  0  0  0
    6.2628   11.0404   22.2692 H   0  0  0  0  0  0  0  0  0  0  0  0
    9.2473    9.0194   24.6308 H   0  0  0  0  0  0  0  0  0  0  0  0
    7.7125   12.8385   25.9067 H   0  0  0  0  0  0  0  0  0  0  0  0
   10.6747   15.9975   20.0120 H   0  0  0  0  0  0  0  0  0  0  0  0
   12.3593   15.5941   19.5332 H   0  0  0  0  0  0  0  0  0  0  0  0
   11.4316   12.2815   22.1476 H   0  0  0  0  0  0  0  0  0  0  0  0
   12.3620   13.8176   21.0728 H   0  0  0  0  0  0  0  0  0  0  0  0
   12.6124   18.6088   21.3556 H   0  0  0  0  0  0  0  0  0  0  0  0
  1 13  1  0  0  0  0
  1 16  2  0  0  0  0
  1 18  1  0  0  0  0
  2 14  1  0  0  0  0
  2 15  1  0  0  0  0
  2 17  2  0  0  0  0
  3  9  1  1  0  0  0
  3 10  1  0  0  0  0
  4  9  1  0  0  0  0
  4 11  1  6  0  0  0
  5 10  1  0  0  0  0
  5 11  1  0  0  0  0
  6  9  1  0  0  0  0
  6 12  1  0  0  0  0
  7 10  1  6  0  0  0
  7 12  1  0  0  0  0
  8 11  1  0  0  0  0
  8 12  1  0  0  0  0
 12 14  1  6  0  0  0
 13 15  1  0  0  0  0
  3 19  1  0  0  0  0
  3 20  1  0  0  0  0
  4 21  1  0  0  0  0
  4 22  1  0  0  0  0
  5 23  1  0  0  0  0
  5 24  1  0  0  0  0
  6 25  1  0  0  0  0
  6 26  1  0  0  0  0
  7 27  1  0  0  0  0
  7 28  1  0  0  0  0
  8 29  1  0  0  0  0
  8 30  1  0  0  0  0
  9 31  1  0  0  0  0
 10 32  1  0  0  0  0
 11 33  1  0  0  0  0
 13 34  1  0  0  0  0
 13 35  1  0  0  0  0
 14 36  1  0  0  0  0
 15 37  1  0  0  0  0
 18 38  1  0  0  0  0
M  END
> <id>
EN300-236142

> <smiles>
OC(=O)CNC(=O)N[C@]1(C[C@@H]2C[C@H]3C[C@@H](C2)C1)C3

> <MDLNUMBER>
MFCD01791134

> <IUPAC Name>
2-({[(3R,5S,7s)-adamantan-1-yl]carbamoyl}amino)acetic acid

> <CAS>
33200-18-9

> <URL>
https://www.enaminestore.com/catalog/EN300-236142

> <ROCS_ShapeQuery>
x0446_0A_x1080_0A_x0929_0A_x0812_0A_x0719_0A_x1140_0A_x0528_0A_x0310_0A

> <ROCS_TanimotoCombo>
0.412 

> <ROCS_ShapeTanimoto>
0.218 

> <ROCS_ColorTanimoto>
0.194 

> <ROCS_RefTversky>
0.200 

> <ROCS_RefColorTversky>
0.224 

> <ROCS_RefTverskyCombo>
0.425 

> <ROCS_FitTversky>
1.706 

> <ROCS_FitColorTversky>
0.588 

> <ROCS_FitTverskyCombo>
2.294 

> <ROCS_ColorScore>
-8.070

> <ROCS_Overlap>
2363.847

> <ROCS_Rank>
387                 

$$$$
untitled-dbase-320394_4
  -OEChem-02082415563D

 38 39  0     0  0  0  0  0  0999 V2000
    5.6252   11.7000   25.4134 C   0  0  0  0  0  0  0  0  0  0  0  0
    6.0540   13.0259   25.2253 C   0  0  0  0  0  0  0  0  0  0  0  0
    6.4319   10.6288   25.0214 C   0  0  0  0  0  0  0  0  0  0  0  0
    7.2945   13.2967   24.6428 C   0  0  0  0  0  0  0  0  0  0  0  0
    7.6523   10.9225   24.4490 C   0  0  0  0  0  0  0  0  0  0  0  0
    8.0724   12.2218   24.2644 C   0  0  0  0  0  0  0  0  0  0  0  0
    9.2738   15.3707   22.5720 C   0  0  0  0  0  0  0  0  0  0  0  0
    9.5939   10.8949   23.5311 C   0  0  0  0  0  0  0  0  0  0  0  0
   11.4966   17.1743   22.5605 C   0  0  0  0  0  0  0  0  0  0  0  0
   12.4104   15.7673   24.4300 C   0  0  0  0  0  0  0  0  0  0  0  0
   12.0446   14.7502   22.1628 C   0  0  0  0  0  0  0  0  0  0  0  0
    6.8567   14.8987   22.1421 C   0  0  0  0  0  0  0  0  0  0  0  0
    7.7530   14.7118   24.4393 C   0  0  0  0  0  0  0  0  0  0  0  0
   11.5390   15.7763   23.1759 C   0  0  0  0  0  0  0  0  0  0  0  0
    8.0055   15.0063   23.0360 N   0  0  0  0  0  0  0  0  0  0  0  0
    9.5347   15.6282   21.3981 O   0  0  0  0  0  0  0  0  0  0  0  0
    8.5661   10.0143   24.0077 O   0  0  0  0  0  0  0  0  0  0  0  0
    9.3024   12.2915   23.6841 O   0  0  0  0  0  0  0  0  0  0  0  0
   10.2111   15.4116   23.5704 O   0  0  0  0  0  0  0  0  0  0  0  0
    9.8086   10.6382   22.2165 F   0  0  0  0  0  0  0  0  0  0  0  0
   10.7444   10.6175   24.1941 F   0  0  0  0  0  0  0  0  0  0  0  0
    4.6564   11.5091   25.8673 H   0  0  0  0  0  0  0  0  0  0  0  0
    5.4065   13.8406   25.5405 H   0  0  0  0  0  0  0  0  0  0  0  0
    6.1043    9.6056   25.1642 H   0  0  0  0  0  0  0  0  0  0  0  0
   10.8721   17.1850   21.6601 H   0  0  0  0  0  0  0  0  0  0  0  0
   11.1029   17.9136   23.2656 H   0  0  0  0  0  0  0  0  0  0  0  0
   12.4970   17.4938   22.2467 H   0  0  0  0  0  0  0  0  0  0  0  0
   12.4436   14.7662   24.8748 H   0  0  0  0  0  0  0  0  0  0  0  0
   11.9974   16.4323   25.1970 H   0  0  0  0  0  0  0  0  0  0  0  0
   13.4354   16.0840   24.2119 H   0  0  0  0  0  0  0  0  0  0  0  0
   12.0750   13.7474   22.6040 H   0  0  0  0  0  0  0  0  0  0  0  0
   11.4095   14.7166   21.2716 H   0  0  0  0  0  0  0  0  0  0  0  0
   13.0695   14.9823   21.8516 H   0  0  0  0  0  0  0  0  0  0  0  0
    6.7926   13.8737   21.7483 H   0  0  0  0  0  0  0  0  0  0  0  0
    5.9371   15.1364   22.6969 H   0  0  0  0  0  0  0  0  0  0  0  0
    6.9744   15.6054   21.3074 H   0  0  0  0  0  0  0  0  0  0  0  0
    6.9981   15.4181   24.8017 H   0  0  0  0  0  0  0  0  0  0  0  0
    8.6762   14.9094   24.9942 H   0  0  0  0  0  0  0  0  0  0  0  0
  1  2  2  0  0  0  0
  1  3  1  0  0  0  0
  2  4  1  0  0  0  0
  3  5  2  0  0  0  0
  4  6  2  0  0  0  0
  4 13  1  0  0  0  0
  5  6  1  0  0  0  0
  5 17  1  0  0  0  0
  6 18  1  0  0  0  0
  7 15  1  0  0  0  0
  7 16  2  0  0  0  0
  7 19  1  0  0  0  0
  8 17  1  0  0  0  0
  8 18  1  0  0  0  0
  8 20  1  0  0  0  0
  8 21  1  0  0  0  0
  9 14  1  0  0  0  0
 10 14  1  0  0  0  0
 11 14  1  0  0  0  0
 12 15  1  0  0  0  0
 13 15  1  0  0  0  0
 14 19  1  0  0  0  0
  1 22  1  0  0  0  0
  2 23  1  0  0  0  0
  3 24  1  0  0  0  0
  9 25  1  0  0  0  0
  9 26  1  0  0  0  0
  9 27  1  0  0  0  0
 10 28  1  0  0  0  0
 10 29  1  0  0  0  0
 10 30  1  0  0  0  0
 11 31  1  0  0  0  0
 11 32  1  0  0  0  0
 11 33  1  0  0  0  0
 12 34  1  0  0  0  0
 12 35  1  0  0  0  0
 12 36  1  0  0  0  0
 13 37  1  0  0  0  0
 13 38  1  0  0  0  0
M  END
> <id>
EN300-37447100

> <smiles>
CN(CC=1C=CC=C2OC(F)(F)OC21)C(=O)OC(C)(C)C

> <IUPAC Name>
tert-butyl N-[(2,2-difluoro-1,3-dioxaindan-4-yl)methyl]-N-methylcarbamate

> <URL>
https://www.enaminestore.com/catalog/EN300-37447100

> <ROCS_ShapeQuery>
x0446_0A_x1080_0A_x0929_0A_x0812_0A_x0719_0A_x1140_0A_x0528_0A_x0310_0A

> <ROCS_TanimotoCombo>
0.412 

> <ROCS_ShapeTanimoto>
0.252 

> <ROCS_ColorTanimoto>
0.160 

> <ROCS_RefTversky>
0.228 

> <ROCS_RefColorTversky>
0.167 

> <ROCS_RefTverskyCombo>
0.395 

> <ROCS_FitTversky>
1.751 

> <ROCS_FitColorTversky>
0.786 

> <ROCS_FitTverskyCombo>
2.537 

> <ROCS_ColorScore>
-5.967

> <ROCS_Overlap>
2687.161

> <ROCS_Rank>
388                 

$$$$
untitled-dbase-64587_0
  -OEChem-02082415563D

 38 40  0     0  0  0  0  0  0999 V2000
   12.1792   16.7097   21.3432 C   0  0  0  0  0  0  0  0  0  0  0  0
   10.3907   14.0216   21.7037 C   0  0  0  0  0  0  0  0  0  0  0  0
    7.6549    9.8105   23.3868 C   0  0  0  0  0  0  0  0  0  0  0  0
    6.7637   12.0330   24.1321 C   0  0  0  0  0  0  0  0  0  0  0  0
    8.5001   10.8543   25.5048 C   0  0  0  0  0  0  0  0  0  0  0  0
    8.2547   11.8904   22.1211 C   0  0  0  0  0  0  0  0  0  0  0  0
    9.9928   10.7103   23.4953 C   0  0  0  0  0  0  0  0  0  0  0  0
    9.1006   12.9362   24.2423 C   0  0  0  0  0  0  0  0  0  0  0  0
    7.1413   11.1794   22.9095 C   0  0  0  0  0  0  0  0  0  0  0  0
    8.8866    9.9945   24.2893 C   0  0  0  0  0  0  0  0  0  0  0  0
    7.9907   12.2288   25.0388 C   0  0  0  0  0  0  0  0  0  0  0  0
    9.5002   12.0926   23.0124 C   0  0  0  0  0  0  0  0  0  0  0  0
   11.6640   15.6952   20.3688 C   0  0  0  0  0  0  0  0  0  0  0  0
   10.5453   12.7587   22.2668 N   0  0  0  0  0  0  0  0  0  0  0  0
   11.5491   14.4237   21.0435 N   0  0  0  0  0  0  0  0  0  0  0  0
   12.4771   16.5090   22.5112 O   0  0  0  0  0  0  0  0  0  0  0  0
    9.3654   14.6975   21.7784 O   0  0  0  0  0  0  0  0  0  0  0  0
   12.2767   17.9229   20.7403 O   0  0  0  0  0  0  0  0  0  0  0  0
    6.8641    9.2844   23.9354 H   0  0  0  0  0  0  0  0  0  0  0  0
    7.9130    9.1850   22.5234 H   0  0  0  0  0  0  0  0  0  0  0  0
    6.3802   13.0073   23.8048 H   0  0  0  0  0  0  0  0  0  0  0  0
    5.9574   11.5460   24.6941 H   0  0  0  0  0  0  0  0  0  0  0  0
    7.7239   10.3466   26.0907 H   0  0  0  0  0  0  0  0  0  0  0  0
    9.3666   10.9797   26.1656 H   0  0  0  0  0  0  0  0  0  0  0  0
    8.5119   11.2948   21.2354 H   0  0  0  0  0  0  0  0  0  0  0  0
    7.8853   12.8586   21.7586 H   0  0  0  0  0  0  0  0  0  0  0  0
   10.8828   10.8230   24.1281 H   0  0  0  0  0  0  0  0  0  0  0  0
   10.2875   10.0904   22.6385 H   0  0  0  0  0  0  0  0  0  0  0  0
    8.7497   13.9272   23.9264 H   0  0  0  0  0  0  0  0  0  0  0  0
    9.9701   13.0981   24.8929 H   0  0  0  0  0  0  0  0  0  0  0  0
    6.2633   11.0418   22.2687 H   0  0  0  0  0  0  0  0  0  0  0  0
    9.2473    9.0166   24.6272 H   0  0  0  0  0  0  0  0  0  0  0  0
    7.7151   12.8354   25.9087 H   0  0  0  0  0  0  0  0  0  0  0  0
   10.6763   15.9979   20.0111 H   0  0  0  0  0  0  0  0  0  0  0  0
   12.3612   15.5947   19.5330 H   0  0  0  0  0  0  0  0  0  0  0  0
   11.4332   12.2825   22.1487 H   0  0  0  0  0  0  0  0  0  0  0  0
   12.3638   13.8188   21.0734 H   0  0  0  0  0  0  0  0  0  0  0  0
   12.6128   18.6103   21.3543 H   0  0  0  0  0  0  0  0  0  0  0  0
  1 13  1  0  0  0  0
  1 16  2  0  0  0  0
  1 18  1  0  0  0  0
  2 14  1  0  0  0  0
  2 15  1  0  0  0  0
  2 17  2  0  0  0  0
  3  9  1  0  0  0  0
  3 10  1  0  0  0  0
  4  9  1  0  0  0  0
  4 11  1  0  0  0  0
  5 10  1  0  0  0  0
  5 11  1  0  0  0  0
  6  9  1  0  0  0  0
  6 12  1  0  0  0  0
  7 10  1  0  0  0  0
  7 12  1  0  0  0  0
  8 11  1  0  0  0  0
  8 12  1  0  0  0  0
 12 14  1  0  0  0  0
 13 15  1  0  0  0  0
  3 19  1  0  0  0  0
  3 20  1  0  0  0  0
  4 21  1  0  0  0  0
  4 22  1  0  0  0  0
  5 23  1  0  0  0  0
  5 24  1  0  0  0  0
  6 25  1  0  0  0  0
  6 26  1  0  0  0  0
  7 27  1  0  0  0  0
  7 28  1  0  0  0  0
  8 29  1  0  0  0  0
  8 30  1  0  0  0  0
  9 31  1  0  0  0  0
 10 32  1  0  0  0  0
 11 33  1  0  0  0  0
 13 34  1  0  0  0  0
 13 35  1  0  0  0  0
 14 36  1  0  0  0  0
 15 37  1  0  0  0  0
 18 38  1  0  0  0  0
M  END
> <id>
EN300-297460

> <smiles>
OC(=O)CNC(=O)NC1(CC2CC3CC(C2)C1)C3

> <IUPAC Name>
2-{[(adamantan-1-yl)carbamoyl]amino}acetic acid

> <CAS>
33200-18-9

> <URL>
https://www.enaminestore.com/catalog/EN300-297460

> <ROCS_ShapeQuery>
x0446_0A_x1080_0A_x0929_0A_x0812_0A_x0719_0A_x1140_0A_x0528_0A_x0310_0A

> <ROCS_TanimotoCombo>
0.412 

> <ROCS_ShapeTanimoto>
0.218 

> <ROCS_ColorTanimoto>
0.194 

> <ROCS_RefTversky>
0.200 

> <ROCS_RefColorTversky>
0.224 

> <ROCS_RefTverskyCombo>
0.425 

> <ROCS_FitTversky>
1.706 

> <ROCS_FitColorTversky>
0.588 

> <ROCS_FitTverskyCombo>
2.294 

> <ROCS_ColorScore>
-8.069

> <ROCS_Overlap>
2363.849

> <ROCS_Rank>
389                 

$$$$
untitled-dbase-477269_4
  -OEChem-02082415563D

 40 42  0     1  0  0  0  0  0999 V2000
   16.3046   11.7685   25.3755 C   0  0  0  0  0  0  0  0  0  0  0  0
   15.5699   12.5844   26.2357 C   0  0  0  0  0  0  0  0  0  0  0  0
   15.8692   11.5646   24.0660 C   0  0  0  0  0  0  0  0  0  0  0  0
   14.3996   13.1963   25.7866 C   0  0  0  0  0  0  0  0  0  0  0  0
   14.6989   12.1765   23.6169 C   0  0  0  0  0  0  0  0  0  0  0  0
   13.9641   12.9924   24.4772 C   0  0  0  0  0  0  0  0  0  0  0  0
    7.4496   13.5321   23.1357 C   0  0  0  0  0  0  0  0  0  0  0  0
   10.3667   13.2448   23.8605 C   0  0  0  0  0  0  0  0  0  0  0  0
    9.0642   10.0370   22.4779 C   0  0  0  0  0  0  0  0  0  0  0  0
   10.0336   10.0815   23.6798 C   0  0  0  0  0  0  0  0  0  0  0  0
    8.1843   10.6878   25.3165 C   0  0  0  0  0  0  0  0  0  0  0  0
    8.4320   11.4031   22.1323 C   0  0  0  0  0  0  0  0  0  0  0  0
    7.2101   11.3962   24.3614 C   0  0  0  0  0  0  0  0  0  0  0  0
    9.5731   11.0499   24.7933 C   0  0  2  0  0  0  0  0  0  0  0  0
    8.1071   12.2101   23.4005 C   0  0  2  0  0  0  0  0  0  0  0  0
   12.7052   13.6501   23.9935 C   0  0  0  0  0  0  0  0  0  0  0  0
    9.3490   12.3404   24.1553 N   0  0  0  0  0  0  0  0  0  0  0  0
    7.1071   14.3302   23.9954 O   0  0  0  0  0  0  0  0  0  0  0  0
   10.1953   14.3366   23.3231 O   0  0  0  0  0  0  0  0  0  0  0  0
    7.2814   13.7251   21.8047 O   0  0  0  0  0  0  0  0  0  0  0  0
   11.5960   12.7812   24.2488 O   0  0  0  0  0  0  0  0  0  0  0  0
   17.2165   11.2932   25.7249 H   0  0  0  0  0  0  0  0  0  0  0  0
   15.9093   12.7442   27.2549 H   0  0  0  0  0  0  0  0  0  0  0  0
   16.4416   10.9303   23.3957 H   0  0  0  0  0  0  0  0  0  0  0  0
   13.8334   13.8302   26.4639 H   0  0  0  0  0  0  0  0  0  0  0  0
   14.3673   12.0117   22.5952 H   0  0  0  0  0  0  0  0  0  0  0  0
    9.5778    9.6307   21.5990 H   0  0  0  0  0  0  0  0  0  0  0  0
    8.2593    9.3278   22.7090 H   0  0  0  0  0  0  0  0  0  0  0  0
   10.1542    9.0702   24.0857 H   0  0  0  0  0  0  0  0  0  0  0  0
   11.0226   10.3934   23.3208 H   0  0  0  0  0  0  0  0  0  0  0  0
    8.0488   11.0845   26.3297 H   0  0  0  0  0  0  0  0  0  0  0  0
    8.0081    9.6081   25.3536 H   0  0  0  0  0  0  0  0  0  0  0  0
    9.1229   11.9712   21.4958 H   0  0  0  0  0  0  0  0  0  0  0  0
    7.5289   11.2439   21.5301 H   0  0  0  0  0  0  0  0  0  0  0  0
    6.5808   10.6726   23.8311 H   0  0  0  0  0  0  0  0  0  0  0  0
    6.5360   12.0368   24.9436 H   0  0  0  0  0  0  0  0  0  0  0  0
   10.3195   11.1040   25.5912 H   0  0  0  0  0  0  0  0  0  0  0  0
   12.5384   14.6027   24.5077 H   0  0  0  0  0  0  0  0  0  0  0  0
   12.7623   13.8535   22.9187 H   0  0  0  0  0  0  0  0  0  0  0  0
    6.8505   14.5848   21.6107 H   0  0  0  0  0  0  0  0  0  0  0  0
  1  2  1  0  0  0  0
  1  3  2  0  0  0  0
  2  4  2  0  0  0  0
  3  5  1  0  0  0  0
  4  6  1  0  0  0  0
  5  6  2  0  0  0  0
  6 16  1  0  0  0  0
  7 15  1  0  0  0  0
  7 18  2  0  0  0  0
  7 20  1  0  0  0  0
  8 17  1  0  0  0  0
  8 19  2  0  0  0  0
  8 21  1  0  0  0  0
  9 10  1  0  0  0  0
  9 12  1  0  0  0  0
 10 14  1  0  0  0  0
 11 13  1  0  0  0  0
 11 14  1  0  0  0  0
 12 15  1  0  0  0  0
 13 15  1  0  0  0  0
 14 17  1  0  0  0  0
 15 17  1  0  0  0  0
 16 21  1  0  0  0  0
  1 22  1  0  0  0  0
  2 23  1  0  0  0  0
  3 24  1  0  0  0  0
  4 25  1  0  0  0  0
  5 26  1  0  0  0  0
  9 27  1  0  0  0  0
  9 28  1  0  0  0  0
 10 29  1  0  0  0  0
 10 30  1  0  0  0  0
 11 31  1  0  0  0  0
 11 32  1  0  0  0  0
 12 33  1  0  0  0  0
 12 34  1  0  0  0  0
 13 35  1  0  0  0  0
 13 36  1  0  0  0  0
 14 37  1  0  0  0  0
 16 38  1  0  0  0  0
 16 39  1  0  0  0  0
 20 40  1  0  0  0  0
M  END
> <id>
EN300-7198778

> <smiles>
OC(=O)C1(CCC2CCC1)N2C(=O)OCC=3C=CC=CC3

> <IUPAC Name>
8-[(benzyloxy)carbonyl]-8-azabicyclo[3.2.1]octane-1-carboxylic acid

> <CAS>
2384340-69-4

> <URL>
https://www.enaminestore.com/catalog/EN300-7198778

> <ROCS_ShapeQuery>
x0446_0A_x1080_0A_x0929_0A_x0812_0A_x0719_0A_x1140_0A_x0528_0A_x0310_0A

> <ROCS_TanimotoCombo>
0.412 

> <ROCS_ShapeTanimoto>
0.234 

> <ROCS_ColorTanimoto>
0.178 

> <ROCS_RefTversky>
0.214 

> <ROCS_RefColorTversky>
0.202 

> <ROCS_RefTverskyCombo>
0.417 

> <ROCS_FitTversky>
1.658 

> <ROCS_FitColorTversky>
0.596 

> <ROCS_FitTverskyCombo>
2.254 

> <ROCS_ColorScore>
-7.261

> <ROCS_Overlap>
2530.517

> <ROCS_Rank>
390                 

$$$$
untitled-dbase-497055_2
  -OEChem-02082415563D

 32 33  0     1  0  0  0  0  0999 V2000
    6.4599   12.7433   24.7187 C   0  0  0  0  0  0  0  0  0  0  0  0
   11.4540   13.4023   23.1461 C   0  0  0  0  0  0  0  0  0  0  0  0
    8.0457    9.6889   22.9641 C   0  0  0  0  0  0  0  0  0  0  0  0
    6.9676   10.6547   23.4651 C   0  0  0  0  0  0  0  0  0  0  0  0
    8.5052   11.4245   25.3477 C   0  0  0  0  0  0  0  0  0  0  0  0
    9.2722   10.4109   22.3931 C   0  0  0  0  0  0  0  0  0  0  0  0
    9.8971   11.3153   24.7006 C   0  0  0  0  0  0  0  0  0  0  0  0
    8.5016   12.6244   23.2764 C   0  0  0  0  0  0  0  0  0  0  0  0
    7.5612   11.8618   24.2131 C   0  0  2  0  0  0  0  0  0  0  0  0
    9.6837   11.6542   23.2128 C   0  0  2  0  0  0  0  0  0  0  0  0
   12.6466   13.8244   22.3394 C   0  0  0  0  0  0  0  0  0  0  0  0
   10.8505   12.2665   22.6301 N   0  0  0  0  0  0  0  0  0  0  0  0
    6.3027   13.9158   24.4123 O   0  0  0  0  0  0  0  0  0  0  0  0
   11.0882   14.0233   24.1400 O   0  0  0  0  0  0  0  0  0  0  0  0
    5.6551   12.0627   25.5710 O   0  0  0  0  0  0  0  0  0  0  0  0
   12.8641   12.9968   21.2857 F   0  0  0  0  0  0  0  0  0  0  0  0
   13.7852   13.8301   23.0785 F   0  0  0  0  0  0  0  0  0  0  0  0
   12.5023   15.0751   21.8323 F   0  0  0  0  0  0  0  0  0  0  0  0
    8.3656    9.0479   23.7950 H   0  0  0  0  0  0  0  0  0  0  0  0
    7.6236    9.0145   22.2102 H   0  0  0  0  0  0  0  0  0  0  0  0
    6.3806   11.0102   22.6077 H   0  0  0  0  0  0  0  0  0  0  0  0
    6.2642   10.1104   24.1078 H   0  0  0  0  0  0  0  0  0  0  0  0
    8.1987   10.4759   25.8023 H   0  0  0  0  0  0  0  0  0  0  0  0
    8.5357   12.1662   26.1557 H   0  0  0  0  0  0  0  0  0  0  0  0
   10.1038    9.6975   22.3345 H   0  0  0  0  0  0  0  0  0  0  0  0
    9.0457   10.7170   21.3630 H   0  0  0  0  0  0  0  0  0  0  0  0
   10.5638   12.0437   25.1797 H   0  0  0  0  0  0  0  0  0  0  0  0
   10.3389   10.3240   24.8474 H   0  0  0  0  0  0  0  0  0  0  0  0
    8.0557   12.8229   22.2945 H   0  0  0  0  0  0  0  0  0  0  0  0
    8.7906   13.5907   23.7118 H   0  0  0  0  0  0  0  0  0  0  0  0
   11.2522   11.8431   21.7966 H   0  0  0  0  0  0  0  0  0  0  0  0
    4.9278   12.6239   25.9150 H   0  0  0  0  0  0  0  0  0  0  0  0
  1  9  1  0  0  0  0
  1 13  2  0  0  0  0
  1 15  1  0  0  0  0
  2 11  1  0  0  0  0
  2 12  1  0  0  0  0
  2 14  2  0  0  0  0
  3  4  1  0  0  0  0
  3  6  1  0  0  0  0
  4  9  1  0  0  0  0
  5  7  1  0  0  0  0
  5  9  1  0  0  0  0
  6 10  1  0  0  0  0
  7 10  1  0  0  0  0
  8  9  1  0  0  0  0
  8 10  1  0  0  0  0
 10 12  1  0  0  0  0
 11 16  1  0  0  0  0
 11 17  1  0  0  0  0
 11 18  1  0  0  0  0
  3 19  1  0  0  0  0
  3 20  1  0  0  0  0
  4 21  1  0  0  0  0
  4 22  1  0  0  0  0
  5 23  1  0  0  0  0
  5 24  1  0  0  0  0
  6 25  1  0  0  0  0
  6 26  1  0  0  0  0
  7 27  1  0  0  0  0
  7 28  1  0  0  0  0
  8 29  1  0  0  0  0
  8 30  1  0  0  0  0
 12 31  1  0  0  0  0
 15 32  1  0  0  0  0
M  END
> <id>
EN300-28281918

> <smiles>
OC(=O)C1(CCC2(C1)NC(=O)C(F)(F)F)CCC2

> <IUPAC Name>
5-(2,2,2-trifluoroacetamido)bicyclo[3.2.1]octane-1-carboxylic acid

> <CAS>
2680871-10-5

> <URL>
https://www.enaminestore.com/catalog/EN300-28281918

> <ROCS_ShapeQuery>
x0446_0A_x1080_0A_x0929_0A_x0812_0A_x0719_0A_x1140_0A_x0528_0A_x0310_0A

> <ROCS_TanimotoCombo>
0.412 

> <ROCS_ShapeTanimoto>
0.225 

> <ROCS_ColorTanimoto>
0.187 

> <ROCS_RefTversky>
0.205 

> <ROCS_RefColorTversky>
0.211 

> <ROCS_RefTverskyCombo>
0.416 

> <ROCS_FitTversky>
1.740 

> <ROCS_FitColorTversky>
0.625 

> <ROCS_FitTverskyCombo>
2.365 

> <ROCS_ColorScore>
-7.577

> <ROCS_Overlap>
2421.032

> <ROCS_Rank>
391                 

$$$$
untitled-dbase-390654_5
  -OEChem-02082415563D

 39 42  0     0  0  0  0  0  0999 V2000
   12.3898   10.5349   24.3270 C   0  0  0  0  0  0  0  0  0  0  0  0
    5.3223   12.0498   25.3058 C   0  0  0  0  0  0  0  0  0  0  0  0
   12.3408   11.8389   24.8100 C   0  0  0  0  0  0  0  0  0  0  0  0
    5.8233   13.3391   25.3166 C   0  0  0  0  0  0  0  0  0  0  0  0
   12.6893   14.3100   21.3725 C   0  0  0  0  0  0  0  0  0  0  0  0
   11.4020   13.8985   21.6994 C   0  0  0  0  0  0  0  0  0  0  0  0
   11.3352   10.0350   23.5645 C   0  0  0  0  0  0  0  0  0  0  0  0
    6.0426   11.0448   24.6686 C   0  0  0  0  0  0  0  0  0  0  0  0
   11.2381   12.6448   24.5289 C   0  0  0  0  0  0  0  0  0  0  0  0
    7.0411   13.6149   24.6925 C   0  0  0  0  0  0  0  0  0  0  0  0
   13.1221   15.5333   21.8583 C   0  0  0  0  0  0  0  0  0  0  0  0
   10.5982   14.7114   22.4908 C   0  0  0  0  0  0  0  0  0  0  0  0
   10.2228   10.8381   23.2757 C   0  0  0  0  0  0  0  0  0  0  0  0
    7.2752   11.3004   24.0202 C   0  0  0  0  0  0  0  0  0  0  0  0
   10.1705   12.1515   23.7606 C   0  0  0  0  0  0  0  0  0  0  0  0
    7.7946   12.6164   24.0318 C   0  0  0  0  0  0  0  0  0  0  0  0
   11.1247   15.9167   22.9267 C   0  0  0  0  0  0  0  0  0  0  0  0
    9.2319   14.2642   22.8330 C   0  0  0  0  0  0  0  0  0  0  0  0
    9.0903   10.3065   22.4507 C   0  0  0  0  0  0  0  0  0  0  0  0
    7.8777   10.0886   23.3389 C   0  0  0  0  0  0  0  0  0  0  0  0
   12.3703   16.3502   22.6297 N   0  0  0  0  0  0  0  0  0  0  0  0
    9.0630   13.0033   23.4545 N   0  0  0  0  0  0  0  0  0  0  0  0
    8.3363   15.0172   22.4491 O   0  0  0  0  0  0  0  0  0  0  0  0
   10.2314   17.0113   23.9092 Cl  0  0  0  0  0  0  0  0  0  0  0  0
   13.2502    9.9076   24.5410 H   0  0  0  0  0  0  0  0  0  0  0  0
    4.3756   11.8239   25.7863 H   0  0  0  0  0  0  0  0  0  0  0  0
   13.1623   12.2304   25.4029 H   0  0  0  0  0  0  0  0  0  0  0  0
    5.2655   14.1383   25.7955 H   0  0  0  0  0  0  0  0  0  0  0  0
   13.3339   13.6923   20.7578 H   0  0  0  0  0  0  0  0  0  0  0  0
   11.0375   12.9424   21.3332 H   0  0  0  0  0  0  0  0  0  0  0  0
   11.3864    9.0133   23.1968 H   0  0  0  0  0  0  0  0  0  0  0  0
    5.6400   10.0330   24.6850 H   0  0  0  0  0  0  0  0  0  0  0  0
   11.2291   13.6663   24.9022 H   0  0  0  0  0  0  0  0  0  0  0  0
    7.3673   14.6528   24.6938 H   0  0  0  0  0  0  0  0  0  0  0  0
   14.1183   15.8995   21.6325 H   0  0  0  0  0  0  0  0  0  0  0  0
    8.8338   11.0168   21.6550 H   0  0  0  0  0  0  0  0  0  0  0  0
    9.3911    9.3805   21.9449 H   0  0  0  0  0  0  0  0  0  0  0  0
    8.1760    9.3773   24.1211 H   0  0  0  0  0  0  0  0  0  0  0  0
    7.0832    9.6053   22.7531 H   0  0  0  0  0  0  0  0  0  0  0  0
  1  3  1  0  0  0  0
  1  7  2  0  0  0  0
  2  4  1  0  0  0  0
  2  8  2  0  0  0  0
  3  9  2  0  0  0  0
  4 10  2  0  0  0  0
  5  6  2  0  0  0  0
  5 11  1  0  0  0  0
  6 12  1  0  0  0  0
  7 13  1  0  0  0  0
  8 14  1  0  0  0  0
  9 15  1  0  0  0  0
 10 16  1  0  0  0  0
 11 21  2  0  0  0  0
 12 17  2  0  0  0  0
 12 18  1  0  0  0  0
 13 15  2  0  0  0  0
 13 19  1  0  0  0  0
 14 16  2  0  0  0  0
 14 20  1  0  0  0  0
 15 22  1  0  0  0  0
 16 22  1  0  0  0  0
 17 21  1  0  0  0  0
 17 24  1  0  0  0  0
 18 22  1  0  0  0  0
 18 23  2  0  0  0  0
 19 20  1  0  0  0  0
  1 25  1  0  0  0  0
  2 26  1  0  0  0  0
  3 27  1  0  0  0  0
  4 28  1  0  0  0  0
  5 29  1  0  0  0  0
  6 30  1  0  0  0  0
  7 31  1  0  0  0  0
  8 32  1  0  0  0  0
  9 33  1  0  0  0  0
 10 34  1  0  0  0  0
 11 35  1  0  0  0  0
 19 36  1  0  0  0  0
 19 37  1  0  0  0  0
 20 38  1  0  0  0  0
 20 39  1  0  0  0  0
M  END
> <id>
EN300-26604051

> <smiles>
ClC=1N=CC=CC1C(=O)N2C=3C=CC=CC3CCC=4C=CC=CC24

> <IUPAC Name>
2-(2-chloropyridine-3-carbonyl)-2-azatricyclo[9.4.0.0,3,8]pentadeca-1(11),3(8),4,6,12,14-hexaene

> <CAS>
380559-33-1

> <URL>
https://www.enaminestore.com/catalog/EN300-26604051

> <ROCS_ShapeQuery>
x0446_0A_x1080_0A_x0929_0A_x0812_0A_x0719_0A_x1140_0A_x0528_0A_x0310_0A

> <ROCS_TanimotoCombo>
0.412 

> <ROCS_ShapeTanimoto>
0.262 

> <ROCS_ColorTanimoto>
0.150 

> <ROCS_RefTversky>
0.237 

> <ROCS_RefColorTversky>
0.158 

> <ROCS_RefTverskyCombo>
0.395 

> <ROCS_FitTversky>
1.675 

> <ROCS_FitColorTversky>
0.745 

> <ROCS_FitTverskyCombo>
2.420 

> <ROCS_ColorScore>
-5.635

> <ROCS_Overlap>
2801.979

> <ROCS_Rank>
392                 

$$$$
untitled-dbase-265743_7
  -OEChem-02082415563D

 47 49  0     0  0  0  0  0  0999 V2000
   10.9589   15.3971   21.0380 C   0  0  0  0  0  0  0  0  0  0  0  0
    8.0444    9.8747   24.3553 C   0  0  0  0  0  0  0  0  0  0  0  0
   10.3168   10.9260   24.4577 C   0  0  0  0  0  0  0  0  0  0  0  0
    8.2884   12.2354   25.1597 C   0  0  0  0  0  0  0  0  0  0  0  0
    9.2548   10.4640   22.2429 C   0  0  0  0  0  0  0  0  0  0  0  0
    7.2222   11.7763   22.9472 C   0  0  0  0  0  0  0  0  0  0  0  0
    8.9423   10.8422   25.1450 C   0  0  0  0  0  0  0  0  0  0  0  0
    7.8710   10.3805   22.9125 C   0  0  0  0  0  0  0  0  0  0  0  0
   10.1575   11.4500   23.0118 C   0  0  0  0  0  0  0  0  0  0  0  0
    8.1264   12.7624   23.7146 C   0  0  0  0  0  0  0  0  0  0  0  0
    9.5202   12.8661   23.0390 C   0  0  0  0  0  0  0  0  0  0  0  0
   12.3084   17.8356   21.6565 C   0  0  0  0  0  0  0  0  0  0  0  0
   14.1504   16.9739   20.1821 C   0  0  0  0  0  0  0  0  0  0  0  0
   11.8725   17.4043   19.2155 C   0  0  0  0  0  0  0  0  0  0  0  0
    9.4568   13.5064   21.6461 C   0  0  0  0  0  0  0  0  0  0  0  0
   12.6477   16.9564   20.4537 C   0  0  0  0  0  0  0  0  0  0  0  0
   10.7271   14.0532   21.3164 N   0  0  0  0  0  0  0  0  0  0  0  0
   10.1009   16.2737   21.0423 O   0  0  0  0  0  0  0  0  0  0  0  0
   10.3633   13.7245   23.8202 O   0  0  0  0  0  0  0  0  0  0  0  0
   12.2800   15.6062   20.7581 O   0  0  0  0  0  0  0  0  0  0  0  0
    8.4869    8.8709   24.3506 H   0  0  0  0  0  0  0  0  0  0  0  0
    7.0656    9.7882   24.8429 H   0  0  0  0  0  0  0  0  0  0  0  0
   10.9853   11.5776   25.0328 H   0  0  0  0  0  0  0  0  0  0  0  0
   10.7868    9.9345   24.4435 H   0  0  0  0  0  0  0  0  0  0  0  0
    7.3069   12.1811   25.6474 H   0  0  0  0  0  0  0  0  0  0  0  0
    8.8936   12.9282   25.7561 H   0  0  0  0  0  0  0  0  0  0  0  0
    9.7198    9.4699   22.2301 H   0  0  0  0  0  0  0  0  0  0  0  0
    9.1506   10.7641   21.1948 H   0  0  0  0  0  0  0  0  0  0  0  0
    7.0343   12.1312   21.9283 H   0  0  0  0  0  0  0  0  0  0  0  0
    6.2413   11.7163   23.4360 H   0  0  0  0  0  0  0  0  0  0  0  0
    9.0629   10.4787   26.1715 H   0  0  0  0  0  0  0  0  0  0  0  0
    7.2308    9.6881   22.3547 H   0  0  0  0  0  0  0  0  0  0  0  0
   11.1505   11.4925   22.5482 H   0  0  0  0  0  0  0  0  0  0  0  0
    7.6529   13.7507   23.7582 H   0  0  0  0  0  0  0  0  0  0  0  0
   11.2306   17.8257   21.8547 H   0  0  0  0  0  0  0  0  0  0  0  0
   12.8311   17.5033   22.5593 H   0  0  0  0  0  0  0  0  0  0  0  0
   12.5779   18.8806   21.4653 H   0  0  0  0  0  0  0  0  0  0  0  0
   14.3983   16.3443   19.3199 H   0  0  0  0  0  0  0  0  0  0  0  0
   14.7057   16.5640   21.0335 H   0  0  0  0  0  0  0  0  0  0  0  0
   14.5138   17.9879   19.9869 H   0  0  0  0  0  0  0  0  0  0  0  0
   12.1157   16.7737   18.3526 H   0  0  0  0  0  0  0  0  0  0  0  0
   10.7909   17.3628   19.3798 H   0  0  0  0  0  0  0  0  0  0  0  0
   12.1432   18.4288   18.9358 H   0  0  0  0  0  0  0  0  0  0  0  0
    9.1799   12.7198   20.9495 H   0  0  0  0  0  0  0  0  0  0  0  0
    8.6990   14.2839   21.6904 H   0  0  0  0  0  0  0  0  0  0  0  0
   11.5284   13.4128   21.2812 H   0  0  0  0  0  0  0  0  0  0  0  0
    9.9378   14.5929   23.8152 H   0  0  0  0  0  0  0  0  0  0  0  0
  1 17  1  0  0  0  0
  1 18  2  0  0  0  0
  1 20  1  0  0  0  0
  2  7  1  0  0  0  0
  2  8  1  0  0  0  0
  3  7  1  0  0  0  0
  3  9  1  0  0  0  0
  4  7  1  0  0  0  0
  4 10  1  0  0  0  0
  5  8  1  0  0  0  0
  5  9  1  0  0  0  0
  6  8  1  0  0  0  0
  6 10  1  0  0  0  0
  9 11  1  0  0  0  0
 10 11  1  0  0  0  0
 11 15  1  0  0  0  0
 11 19  1  0  0  0  0
 12 16  1  0  0  0  0
 13 16  1  0  0  0  0
 14 16  1  0  0  0  0
 15 17  1  0  0  0  0
 16 20  1  0  0  0  0
  2 21  1  0  0  0  0
  2 22  1  0  0  0  0
  3 23  1  0  0  0  0
  3 24  1  0  0  0  0
  4 25  1  0  0  0  0
  4 26  1  0  0  0  0
  5 27  1  0  0  0  0
  5 28  1  0  0  0  0
  6 29  1  0  0  0  0
  6 30  1  0  0  0  0
  7 31  1  0  0  0  0
  8 32  1  0  0  0  0
  9 33  1  0  0  0  0
 10 34  1  0  0  0  0
 12 35  1  0  0  0  0
 12 36  1  0  0  0  0
 12 37  1  0  0  0  0
 13 38  1  0  0  0  0
 13 39  1  0  0  0  0
 13 40  1  0  0  0  0
 14 41  1  0  0  0  0
 14 42  1  0  0  0  0
 14 43  1  0  0  0  0
 15 44  1  0  0  0  0
 15 45  1  0  0  0  0
 17 46  1  0  0  0  0
 19 47  1  0  0  0  0
M  END
> <id>
EN300-7548650

> <smiles>
CC(C)(C)OC(=O)NCC1(O)C2CC3CC(C2)CC1C3

> <IUPAC Name>
tert-butyl N-[(2-hydroxyadamantan-2-yl)methyl]carbamate

> <CAS>
2408975-04-0

> <URL>
https://www.enaminestore.com/catalog/EN300-7548650

> <ROCS_ShapeQuery>
x0446_0A_x1080_0A_x0929_0A_x0812_0A_x0719_0A_x1140_0A_x0528_0A_x0310_0A

> <ROCS_TanimotoCombo>
0.412 

> <ROCS_ShapeTanimoto>
0.218 

> <ROCS_ColorTanimoto>
0.194 

> <ROCS_RefTversky>
0.201 

> <ROCS_RefColorTversky>
0.220 

> <ROCS_RefTverskyCombo>
0.421 

> <ROCS_FitTversky>
1.620 

> <ROCS_FitColorTversky>
0.620 

> <ROCS_FitTverskyCombo>
2.241 

> <ROCS_ColorScore>
-7.906

> <ROCS_Overlap>
2376.640

> <ROCS_Rank>
393                 

$$$$
untitled-dbase-520555_1
  -OEChem-02082415563D

 37 39  0     1  0  0  0  0  0999 V2000
    7.1079   15.1046   23.5854 C   0  0  0  0  0  0  0  0  0  0  0  0
    6.5848   11.2124   25.4596 C   0  0  0  0  0  0  0  0  0  0  0  0
    5.9058   13.1677   24.9505 C   0  0  0  0  0  0  0  0  0  0  0  0
    7.1781   13.0548   24.4130 C   0  0  0  0  0  0  0  0  0  0  0  0
    5.2426   14.3740   24.7489 C   0  0  0  0  0  0  0  0  0  0  0  0
   10.3952   10.5595   22.7307 C   0  0  1  0  0  0  0  0  0  0  0  0
    8.9157   10.5092   23.0570 C   0  0  2  0  0  0  0  0  0  0  0  0
   10.8049   11.9196   23.2870 C   0  0  1  0  0  0  0  0  0  0  0  0
    8.8828   11.1872   24.4183 C   0  0  2  0  0  0  0  0  0  0  0  0
   10.6751   13.0416   22.2665 C   0  0  0  0  0  0  0  0  0  0  0  0
    7.8495   13.9829   23.7150 N   0  0  0  0  0  0  0  0  0  0  0  0
    5.8612   15.3574   24.0521 N   0  0  0  0  0  0  0  0  0  0  0  0
    5.5487   12.0127   25.5999 N   0  0  0  0  0  0  0  0  0  0  0  0
    7.5975   11.7990   24.7480 N   0  0  0  0  0  0  0  0  0  0  0  0
    3.9488   14.5758   25.2592 N   0  0  0  0  0  0  0  0  0  0  0  0
   11.4483   16.8575   22.7222 O   0  0  0  0  0  0  0  0  0  0  0  0
    9.9086   12.1981   24.3875 O   0  0  0  0  0  0  0  0  0  0  0  0
   11.0783    9.5394   23.4594 O   0  0  0  0  0  0  0  0  0  0  0  0
    8.4054    9.1926   23.1116 O   0  0  0  0  0  0  0  0  0  0  0  0
    9.5098   15.6428   21.4147 O   0  0  0  0  0  0  0  0  0  0  0  0
   11.9100   15.2380   20.7021 O   0  0  0  0  0  0  0  0  0  0  0  0
   11.0659   14.2584   22.8781 O   0  0  0  0  0  0  0  0  0  0  0  0
   11.0182   15.6160   21.9970 P   0  0  0  0  0  0  0  0  0  0  0  0
    7.5728   15.9137   23.0320 H   0  0  0  0  0  0  0  0  0  0  0  0
    6.6598   10.2061   25.8483 H   0  0  0  0  0  0  0  0  0  0  0  0
   10.6111   10.4143   21.6678 H   0  0  0  0  0  0  0  0  0  0  0  0
    8.3441   11.0787   22.3147 H   0  0  0  0  0  0  0  0  0  0  0  0
   11.8270   11.9058   23.6899 H   0  0  0  0  0  0  0  0  0  0  0  0
    9.1024   10.4779   25.2499 H   0  0  0  0  0  0  0  0  0  0  0  0
    9.6403   13.1253   21.9309 H   0  0  0  0  0  0  0  0  0  0  0  0
   11.3225   12.8467   21.4102 H   0  0  0  0  0  0  0  0  0  0  0  0
    3.4829   13.8249   25.7325 H   0  0  0  0  0  0  0  0  0  0  0  0
    3.4700   15.4343   25.0627 H   0  0  0  0  0  0  0  0  0  0  0  0
   12.0142    9.6116   23.2190 H   0  0  0  0  0  0  0  0  0  0  0  0
    7.4581    9.2589   23.3250 H   0  0  0  0  0  0  0  0  0  0  0  0
    9.2655   16.3328   20.7617 H   0  0  0  0  0  0  0  0  0  0  0  0
   11.9671   15.8787   19.9616 H   0  0  0  0  0  0  0  0  0  0  0  0
  1 11  1  0  0  0  0
  1 12  2  0  0  0  0
  2 13  2  0  0  0  0
  2 14  1  0  0  0  0
  3  4  1  0  0  0  0
  3  5  2  0  0  0  0
  3 13  1  0  0  0  0
  4 11  2  0  0  0  0
  4 14  1  0  0  0  0
  5 12  1  0  0  0  0
  5 15  1  0  0  0  0
  6  7  1  0  0  0  0
  6  8  1  0  0  0  0
  6 18  1  1  0  0  0
  7  9  1  0  0  0  0
  7 19  1  1  0  0  0
  8 10  1  6  0  0  0
  8 17  1  0  0  0  0
  9 14  1  6  0  0  0
  9 17  1  0  0  0  0
 10 22  1  0  0  0  0
 16 23  2  0  0  0  0
 20 23  1  0  0  0  0
 21 23  1  0  0  0  0
 22 23  1  0  0  0  0
  1 24  1  0  0  0  0
  2 25  1  0  0  0  0
  6 26  1  0  0  0  0
  7 27  1  0  0  0  0
  8 28  1  0  0  0  0
  9 29  1  0  0  0  0
 10 30  1  0  0  0  0
 10 31  1  0  0  0  0
 15 32  1  0  0  0  0
 15 33  1  0  0  0  0
 18 34  1  0  0  0  0
 19 35  1  0  0  0  0
 20 36  1  0  0  0  0
 21 37  1  0  0  0  0
M  END
> <id>
EN300-1700412

> <smiles>
NC=1N=CN=C2N(C=NC12)[C@@H]3O[C@H](COP(=O)(O)O)[C@@H](O)[C@H]3O

> <MDLNUMBER>
MFCD00005750

> <IUPAC Name>
{[(2R,3S,4R,5R)-5-(6-amino-9H-purin-9-yl)-3,4-dihydroxyoxolan-2-yl]methoxy}phosphonic acid

> <CAS>
61-19-8

> <Purity>
95

> <URL>
https://www.enaminestore.com/catalog/EN300-1700412

> <MP>
193-196

> <ROCS_ShapeQuery>
x0446_0A_x1080_0A_x0929_0A_x0812_0A_x0719_0A_x1140_0A_x0528_0A_x0310_0A

> <ROCS_TanimotoCombo>
0.412 

> <ROCS_ShapeTanimoto>
0.268 

> <ROCS_ColorTanimoto>
0.144 

> <ROCS_RefTversky>
0.240 

> <ROCS_RefColorTversky>
0.192 

> <ROCS_RefTverskyCombo>
0.432 

> <ROCS_FitTversky>
1.761 

> <ROCS_FitColorTversky>
0.367 

> <ROCS_FitTverskyCombo>
2.128 

> <ROCS_ColorScore>
-6.968

> <ROCS_Overlap>
2835.773

> <ROCS_Rank>
394                 

$$$$
untitled-dbase-285684_8
  -OEChem-02082415563D

 43 46  0     0  0  0  0  0  0999 V2000
   12.0100   18.6253   21.9880 C   0  0  0  0  0  0  0  0  0  0  0  0
   10.8483   18.0303   21.6938 C   0  0  0  0  0  0  0  0  0  0  0  0
   13.2032   17.8525   22.2039 C   0  0  0  0  0  0  0  0  0  0  0  0
   13.1548   16.5192   22.1108 C   0  0  0  0  0  0  0  0  0  0  0  0
   10.7757   16.5410   21.5873 C   0  0  0  0  0  0  0  0  0  0  0  0
   11.0299   13.8258   22.7354 C   0  0  0  0  0  0  0  0  0  0  0  0
    6.8929   10.5856   23.3806 C   0  0  0  0  0  0  0  0  0  0  0  0
    7.9079   11.4576   25.5017 C   0  0  0  0  0  0  0  0  0  0  0  0
    8.7884    9.3512   24.4638 C   0  0  0  0  0  0  0  0  0  0  0  0
    8.2756   12.6771   23.3418 C   0  0  0  0  0  0  0  0  0  0  0  0
    9.1569   10.5685   22.3029 C   0  0  0  0  0  0  0  0  0  0  0  0
   10.1738   11.4412   24.4273 C   0  0  0  0  0  0  0  0  0  0  0  0
    7.2654   11.8567   24.1623 C   0  0  0  0  0  0  0  0  0  0  0  0
    8.1503    9.7395   23.1192 C   0  0  0  0  0  0  0  0  0  0  0  0
    9.1708   10.6158   25.2516 C   0  0  0  0  0  0  0  0  0  0  0  0
    9.5512   11.8477   23.0741 C   0  0  0  0  0  0  0  0  0  0  0  0
   11.9874   14.4001   21.7227 C   0  0  0  0  0  0  0  0  0  0  0  0
   11.9768   15.8676   21.8108 N   0  0  0  0  0  0  0  0  0  0  0  0
   10.4969   12.6215   22.3003 N   0  0  0  0  0  0  0  0  0  0  0  0
    9.6952   16.0188   21.3177 O   0  0  0  0  0  0  0  0  0  0  0  0
   10.7708   14.3705   23.8053 O   0  0  0  0  0  0  0  0  0  0  0  0
   12.0778   19.7043   22.0689 H   0  0  0  0  0  0  0  0  0  0  0  0
    9.9419   18.6003   21.5276 H   0  0  0  0  0  0  0  0  0  0  0  0
   14.1259   18.3699   22.4384 H   0  0  0  0  0  0  0  0  0  0  0  0
   14.0366   15.9080   22.2675 H   0  0  0  0  0  0  0  0  0  0  0  0
    6.1585    9.9997   23.9467 H   0  0  0  0  0  0  0  0  0  0  0  0
    6.4187   10.8561   22.4292 H   0  0  0  0  0  0  0  0  0  0  0  0
    8.1640   12.3559   26.0768 H   0  0  0  0  0  0  0  0  0  0  0  0
    7.1915   10.8867   26.1051 H   0  0  0  0  0  0  0  0  0  0  0  0
    8.0872    8.7437   25.0492 H   0  0  0  0  0  0  0  0  0  0  0  0
    9.6780    8.7332   24.2917 H   0  0  0  0  0  0  0  0  0  0  0  0
    7.8133   12.9827   22.3941 H   0  0  0  0  0  0  0  0  0  0  0  0
    8.5273   13.5971   23.8856 H   0  0  0  0  0  0  0  0  0  0  0  0
   10.0468    9.9607   22.0935 H   0  0  0  0  0  0  0  0  0  0  0  0
    8.7140   10.8299   21.3330 H   0  0  0  0  0  0  0  0  0  0  0  0
   10.4670   12.3339   24.9949 H   0  0  0  0  0  0  0  0  0  0  0  0
   11.0860   10.8518   24.2660 H   0  0  0  0  0  0  0  0  0  0  0  0
    6.3657   12.4542   24.3468 H   0  0  0  0  0  0  0  0  0  0  0  0
    7.8790    8.8351   22.5633 H   0  0  0  0  0  0  0  0  0  0  0  0
    9.6225   10.3328   26.2088 H   0  0  0  0  0  0  0  0  0  0  0  0
   12.9988   14.0345   21.9233 H   0  0  0  0  0  0  0  0  0  0  0  0
   11.6865   14.0986   20.7151 H   0  0  0  0  0  0  0  0  0  0  0  0
   10.7849   12.2656   21.3940 H   0  0  0  0  0  0  0  0  0  0  0  0
  1  2  2  0  0  0  0
  1  3  1  0  0  0  0
  2  5  1  0  0  0  0
  3  4  2  0  0  0  0
  4 18  1  0  0  0  0
  5 18  1  0  0  0  0
  5 20  2  0  0  0  0
  6 17  1  0  0  0  0
  6 19  1  0  0  0  0
  6 21  2  0  0  0  0
  7 13  1  0  0  0  0
  7 14  1  0  0  0  0
  8 13  1  0  0  0  0
  8 15  1  0  0  0  0
  9 14  1  0  0  0  0
  9 15  1  0  0  0  0
 10 13  1  0  0  0  0
 10 16  1  0  0  0  0
 11 14  1  0  0  0  0
 11 16  1  0  0  0  0
 12 15  1  0  0  0  0
 12 16  1  0  0  0  0
 16 19  1  0  0  0  0
 17 18  1  0  0  0  0
  1 22  1  0  0  0  0
  2 23  1  0  0  0  0
  3 24  1  0  0  0  0
  4 25  1  0  0  0  0
  7 26  1  0  0  0  0
  7 27  1  0  0  0  0
  8 28  1  0  0  0  0
  8 29  1  0  0  0  0
  9 30  1  0  0  0  0
  9 31  1  0  0  0  0
 10 32  1  0  0  0  0
 10 33  1  0  0  0  0
 11 34  1  0  0  0  0
 11 35  1  0  0  0  0
 12 36  1  0  0  0  0
 12 37  1  0  0  0  0
 13 38  1  0  0  0  0
 14 39  1  0  0  0  0
 15 40  1  0  0  0  0
 17 41  1  0  0  0  0
 17 42  1  0  0  0  0
 19 43  1  0  0  0  0
M  END
> <id>
EN300-26867490

> <smiles>
O=C(CN1C=CC=CC1=O)NC2(CC3CC4CC(C3)C2)C4

> <IUPAC Name>
N-(adamantan-1-yl)-2-(2-oxo-1,2-dihydropyridin-1-yl)acetamide

> <CAS>
941057-54-1

> <URL>
https://www.enaminestore.com/catalog/EN300-26867490

> <ROCS_ShapeQuery>
x0446_0A_x1080_0A_x0929_0A_x0812_0A_x0719_0A_x1140_0A_x0528_0A_x0310_0A

> <ROCS_TanimotoCombo>
0.412 

> <ROCS_ShapeTanimoto>
0.227 

> <ROCS_ColorTanimoto>
0.185 

> <ROCS_RefTversky>
0.209 

> <ROCS_RefColorTversky>
0.208 

> <ROCS_RefTverskyCombo>
0.417 

> <ROCS_FitTversky>
1.609 

> <ROCS_FitColorTversky>
0.631 

> <ROCS_FitTverskyCombo>
2.241 

> <ROCS_ColorScore>
-7.453

> <ROCS_Overlap>
2466.684

> <ROCS_Rank>
395                 

$$$$
untitled-dbase-293707_6
  -OEChem-02082415563D

 40 44  0     0  0  0  0  0  0999 V2000
    8.4165    7.2701   22.8452 C   0  0  0  0  0  0  0  0  0  0  0  0
    7.1214    7.4632   23.3013 C   0  0  0  0  0  0  0  0  0  0  0  0
   11.9407   18.9412   21.3533 C   0  0  0  0  0  0  0  0  0  0  0  0
   13.2500   18.6097   21.7611 C   0  0  0  0  0  0  0  0  0  0  0  0
    5.6669   12.7968   25.1196 C   0  0  0  0  0  0  0  0  0  0  0  0
    9.3082    8.3383   22.8376 C   0  0  0  0  0  0  0  0  0  0  0  0
    6.7197    8.7246   23.7494 C   0  0  0  0  0  0  0  0  0  0  0  0
    5.9575   11.5050   24.6985 C   0  0  0  0  0  0  0  0  0  0  0  0
   10.9375   17.9695   21.2903 C   0  0  0  0  0  0  0  0  0  0  0  0
   13.5849   17.2993   22.1147 C   0  0  0  0  0  0  0  0  0  0  0  0
    9.8291   10.6654   23.2680 C   0  0  0  0  0  0  0  0  0  0  0  0
    6.6738   13.7300   25.0414 C   0  0  0  0  0  0  0  0  0  0  0  0
    8.9153    9.6112   23.2859 C   0  0  0  0  0  0  0  0  0  0  0  0
    7.5990    9.8364   23.7569 C   0  0  0  0  0  0  0  0  0  0  0  0
    7.2365   11.1554   24.2074 C   0  0  0  0  0  0  0  0  0  0  0  0
   11.2874   16.6840   21.6462 C   0  0  0  0  0  0  0  0  0  0  0  0
   12.5805   16.3567   22.0488 C   0  0  0  0  0  0  0  0  0  0  0  0
    9.4612   11.9349   23.7073 C   0  0  0  0  0  0  0  0  0  0  0  0
    8.1860   12.2032   24.1764 C   0  0  0  0  0  0  0  0  0  0  0  0
   10.4797   15.4605   21.6758 C   0  0  0  0  0  0  0  0  0  0  0  0
   12.6147   14.9199   22.3402 C   0  0  0  0  0  0  0  0  0  0  0  0
   10.4758   12.9839   23.6560 C   0  0  0  0  0  0  0  0  0  0  0  0
    7.9122   13.4569   24.5824 N   0  0  0  0  0  0  0  0  0  0  0  0
   11.3353   14.5082   22.1340 N   0  0  0  0  0  0  0  0  0  0  0  0
    9.3073   15.3916   21.3635 O   0  0  0  0  0  0  0  0  0  0  0  0
   13.5996   14.3050   22.6990 O   0  0  0  0  0  0  0  0  0  0  0  0
   10.8793   13.6073   24.6432 O   0  0  0  0  0  0  0  0  0  0  0  0
   10.9228   13.1801   22.3792 O   0  0  0  0  0  0  0  0  0  0  0  0
    8.7336    6.2921   22.4962 H   0  0  0  0  0  0  0  0  0  0  0  0
    6.4181    6.6356   23.3112 H   0  0  0  0  0  0  0  0  0  0  0  0
   11.7111   19.9688   21.0832 H   0  0  0  0  0  0  0  0  0  0  0  0
   14.0089   19.3871   21.7987 H   0  0  0  0  0  0  0  0  0  0  0  0
    4.6842   13.0567   25.4951 H   0  0  0  0  0  0  0  0  0  0  0  0
   10.3205    8.1670   22.4759 H   0  0  0  0  0  0  0  0  0  0  0  0
    5.6937    8.8185   24.0956 H   0  0  0  0  0  0  0  0  0  0  0  0
    5.1580   10.7718   24.7628 H   0  0  0  0  0  0  0  0  0  0  0  0
    9.9329   18.2248   20.9745 H   0  0  0  0  0  0  0  0  0  0  0  0
   14.5914   17.0453   22.4250 H   0  0  0  0  0  0  0  0  0  0  0  0
   10.8441   10.4999   22.9082 H   0  0  0  0  0  0  0  0  0  0  0  0
    6.5114   14.7556   25.3546 H   0  0  0  0  0  0  0  0  0  0  0  0
  1  2  1  0  0  0  0
  1  6  2  0  0  0  0
  2  7  2  0  0  0  0
  3  4  1  0  0  0  0
  3  9  2  0  0  0  0
  4 10  2  0  0  0  0
  5  8  2  0  0  0  0
  5 12  1  0  0  0  0
  6 13  1  0  0  0  0
  7 14  1  0  0  0  0
  8 15  1  0  0  0  0
  9 16  1  0  0  0  0
 10 17  1  0  0  0  0
 11 13  2  0  0  0  0
 11 18  1  0  0  0  0
 12 23  2  0  0  0  0
 13 14  1  0  0  0  0
 14 15  2  0  0  0  0
 15 19  1  0  0  0  0
 16 17  2  0  0  0  0
 16 20  1  0  0  0  0
 17 21  1  0  0  0  0
 18 19  2  0  0  0  0
 18 22  1  0  0  0  0
 19 23  1  0  0  0  0
 20 24  1  0  0  0  0
 20 25  2  0  0  0  0
 21 24  1  0  0  0  0
 21 26  2  0  0  0  0
 22 27  2  0  0  0  0
 22 28  1  0  0  0  0
 24 28  1  0  0  0  0
  1 29  1  0  0  0  0
  2 30  1  0  0  0  0
  3 31  1  0  0  0  0
  4 32  1  0  0  0  0
  5 33  1  0  0  0  0
  6 34  1  0  0  0  0
  7 35  1  0  0  0  0
  8 36  1  0  0  0  0
  9 37  1  0  0  0  0
 10 38  1  0  0  0  0
 11 39  1  0  0  0  0
 12 40  1  0  0  0  0
M  END
> <id>
EN300-6522708

> <smiles>
O=C(ON1C(=O)C=2C=CC=CC2C1=O)C=3C=C4C=CC=CC4=C5C=CC=NC35

> <IUPAC Name>
1,3-dioxo-2,3-dihydro-1H-isoindol-2-yl benzo[f]quinoline-5-carboxylate

> <CAS>
2248363-99-5

> <URL>
https://www.enaminestore.com/catalog/EN300-6522708

> <ROCS_ShapeQuery>
x0446_0A_x1080_0A_x0929_0A_x0812_0A_x0719_0A_x1140_0A_x0528_0A_x0310_0A

> <ROCS_TanimotoCombo>
0.412 

> <ROCS_ShapeTanimoto>
0.265 

> <ROCS_ColorTanimoto>
0.147 

> <ROCS_RefTversky>
0.243 

> <ROCS_RefColorTversky>
0.165 

> <ROCS_RefTverskyCombo>
0.409 

> <ROCS_FitTversky>
1.513 

> <ROCS_FitColorTversky>
0.567 

> <ROCS_FitTverskyCombo>
2.080 

> <ROCS_ColorScore>
-5.921

> <ROCS_Overlap>
2878.550

> <ROCS_Rank>
396                 

$$$$
untitled-dbase-395462_0
  -OEChem-02082415563D

 41 43  0     0  0  0  0  0  0999 V2000
   10.2632   14.8565   22.1646 C   0  0  0  0  0  0  0  0  0  0  0  0
    8.8631   10.3173   23.0695 C   0  0  0  0  0  0  0  0  0  0  0  0
    9.8737   11.4792   24.4895 C   0  0  0  0  0  0  0  0  0  0  0  0
    7.0403   12.6022   25.5674 C   0  0  0  0  0  0  0  0  0  0  0  0
    6.0425   11.4557   24.1662 C   0  0  0  0  0  0  0  0  0  0  0  0
    8.4946   10.7374   24.5330 C   0  0  0  0  0  0  0  0  0  0  0  0
    7.4933   11.8928   24.3003 C   0  0  0  0  0  0  0  0  0  0  0  0
    9.2862   11.8483   23.0606 C   0  0  0  0  0  0  0  0  0  0  0  0
    9.2859   17.3316   23.1984 C   0  0  0  0  0  0  0  0  0  0  0  0
   11.6805   18.0879   23.1414 C   0  0  0  0  0  0  0  0  0  0  0  0
   10.5160   17.4604   21.0064 C   0  0  0  0  0  0  0  0  0  0  0  0
   10.1936   12.3738   21.9861 C   0  0  0  0  0  0  0  0  0  0  0  0
   10.6370   17.1740   22.5025 C   0  0  0  0  0  0  0  0  0  0  0  0
    8.3317    9.7003   25.4967 N   0  0  0  0  0  0  0  0  0  0  0  0
   10.8064   13.6030   22.3951 N   0  0  0  0  0  0  0  0  0  0  0  0
    9.2024   15.0751   21.5888 O   0  0  0  0  0  0  0  0  0  0  0  0
    5.7037   12.0578   25.4398 O   0  0  0  0  0  0  0  0  0  0  0  0
    8.0864   12.6785   23.2351 O   0  0  0  0  0  0  0  0  0  0  0  0
   11.0831   15.8240   22.6736 O   0  0  0  0  0  0  0  0  0  0  0  0
    9.6693    9.5848   22.9458 H   0  0  0  0  0  0  0  0  0  0  0  0
    8.0298   10.0476   22.4134 H   0  0  0  0  0  0  0  0  0  0  0  0
   10.0022   12.3147   25.1840 H   0  0  0  0  0  0  0  0  0  0  0  0
   10.7779   10.8596   24.5026 H   0  0  0  0  0  0  0  0  0  0  0  0
    7.5104   12.2972   26.5063 H   0  0  0  0  0  0  0  0  0  0  0  0
    7.0280   13.6954   25.5115 H   0  0  0  0  0  0  0  0  0  0  0  0
    5.4868   11.9250   23.3484 H   0  0  0  0  0  0  0  0  0  0  0  0
    5.8433   10.3805   24.1634 H   0  0  0  0  0  0  0  0  0  0  0  0
    8.5342   16.6772   22.7427 H   0  0  0  0  0  0  0  0  0  0  0  0
    9.3518   17.0951   24.2654 H   0  0  0  0  0  0  0  0  0  0  0  0
    8.9090   18.3554   23.0935 H   0  0  0  0  0  0  0  0  0  0  0  0
   12.6515   17.9781   22.6452 H   0  0  0  0  0  0  0  0  0  0  0  0
   11.8396   17.8231   24.1930 H   0  0  0  0  0  0  0  0  0  0  0  0
   11.3819   19.1399   23.0901 H   0  0  0  0  0  0  0  0  0  0  0  0
   11.4850   17.3474   20.5070 H   0  0  0  0  0  0  0  0  0  0  0  0
    9.7982   16.7889   20.5240 H   0  0  0  0  0  0  0  0  0  0  0  0
   10.1970   18.4943   20.8322 H   0  0  0  0  0  0  0  0  0  0  0  0
   10.9703   11.6251   21.7889 H   0  0  0  0  0  0  0  0  0  0  0  0
    9.5992   12.5443   21.0806 H   0  0  0  0  0  0  0  0  0  0  0  0
    8.9883    9.8190   26.2470 H   0  0  0  0  0  0  0  0  0  0  0  0
    7.4015    9.7226   25.8741 H   0  0  0  0  0  0  0  0  0  0  0  0
   11.6993   13.5517   22.8873 H   0  0  0  0  0  0  0  0  0  0  0  0
  1 15  1  0  0  0  0
  1 16  2  0  0  0  0
  1 19  1  0  0  0  0
  2  6  1  0  0  0  0
  2  8  1  0  0  0  0
  3  6  1  0  0  0  0
  3  8  1  0  0  0  0
  4  7  1  0  0  0  0
  4 17  1  0  0  0  0
  5  7  1  0  0  0  0
  5 17  1  0  0  0  0
  6  7  1  0  0  0  0
  6 14  1  0  0  0  0
  7 18  1  0  0  0  0
  8 12  1  0  0  0  0
  8 18  1  0  0  0  0
  9 13  1  0  0  0  0
 10 13  1  0  0  0  0
 11 13  1  0  0  0  0
 12 15  1  0  0  0  0
 13 19  1  0  0  0  0
  2 20  1  0  0  0  0
  2 21  1  0  0  0  0
  3 22  1  0  0  0  0
  3 23  1  0  0  0  0
  4 24  1  0  0  0  0
  4 25  1  0  0  0  0
  5 26  1  0  0  0  0
  5 27  1  0  0  0  0
  9 28  1  0  0  0  0
  9 29  1  0  0  0  0
  9 30  1  0  0  0  0
 10 31  1  0  0  0  0
 10 32  1  0  0  0  0
 10 33  1  0  0  0  0
 11 34  1  0  0  0  0
 11 35  1  0  0  0  0
 11 36  1  0  0  0  0
 12 37  1  0  0  0  0
 12 38  1  0  0  0  0
 14 39  1  0  0  0  0
 14 40  1  0  0  0  0
 15 41  1  0  0  0  0
M  END
> <id>
EN300-6491057

> <smiles>
CC(C)(C)OC(=O)NCC1(CC2(N)C1)OC32COC3

> <MDLNUMBER>
MFCD31736564

> <IUPAC Name>
tert-butyl N-({1-amino-3-oxaspiro[bicyclo[2.1.1]hexane-2,3'-oxetane]-4-yl}methyl)carbamate

> <CAS>
2490401-59-5

> <Purity>
95

> <URL>
https://www.enaminestore.com/catalog/EN300-6491057

> <ROCS_ShapeQuery>
x0446_0A_x1080_0A_x0929_0A_x0812_0A_x0719_0A_x1140_0A_x0528_0A_x0310_0A

> <ROCS_TanimotoCombo>
0.412 

> <ROCS_ShapeTanimoto>
0.216 

> <ROCS_ColorTanimoto>
0.197 

> <ROCS_RefTversky>
0.199 

> <ROCS_RefColorTversky>
0.237 

> <ROCS_RefTverskyCombo>
0.436 

> <ROCS_FitTversky>
1.639 

> <ROCS_FitColorTversky>
0.537 

> <ROCS_FitTverskyCombo>
2.176 

> <ROCS_ColorScore>
-8.538

> <ROCS_Overlap>
2347.431

> <ROCS_Rank>
397                 

$$$$
untitled-dbase-550135_0
  -OEChem-02082415563D

 35 37  0     0  0  0  0  0  0999 V2000
   11.0624   15.8138   22.1418 C   0  0  0  0  0  0  0  0  0  0  0  0
    7.0026   11.0382   24.1730 C   0  0  0  0  0  0  0  0  0  0  0  0
    9.2335   10.0212   24.6988 C   0  0  0  0  0  0  0  0  0  0  0  0
    8.5090   10.2901   22.3133 C   0  0  0  0  0  0  0  0  0  0  0  0
    8.8460   12.4671   25.0952 C   0  0  0  0  0  0  0  0  0  0  0  0
    8.1198   12.7366   22.7043 C   0  0  0  0  0  0  0  0  0  0  0  0
   10.3557   11.7172   23.2310 C   0  0  0  0  0  0  0  0  0  0  0  0
    8.1996   11.0714   25.1377 C   0  0  0  0  0  0  0  0  0  0  0  0
    7.4715   11.3416   22.7403 C   0  0  0  0  0  0  0  0  0  0  0  0
    9.7135   10.3194   23.2687 C   0  0  0  0  0  0  0  0  0  0  0  0
    9.3324   12.7941   23.6634 C   0  0  0  0  0  0  0  0  0  0  0  0
    9.9747   14.1832   23.6249 C   0  0  0  0  0  0  0  0  0  0  0  0
   10.8389   14.3488   22.3942 C   0  0  0  0  0  0  0  0  0  0  0  0
   11.9900   16.4653   22.6002 O   0  0  0  0  0  0  0  0  0  0  0  0
   10.0837   16.3325   21.3612 O   0  0  0  0  0  0  0  0  0  0  0  0
   12.0280   13.7144   22.5779 F   0  0  0  0  0  0  0  0  0  0  0  0
   10.2463   13.7503   21.3264 F   0  0  0  0  0  0  0  0  0  0  0  0
    6.5203   10.0536   24.2084 H   0  0  0  0  0  0  0  0  0  0  0  0
    6.2497   11.7727   24.4844 H   0  0  0  0  0  0  0  0  0  0  0  0
   10.0863   10.0237   25.3887 H   0  0  0  0  0  0  0  0  0  0  0  0
    8.7908    9.0185   24.7436 H   0  0  0  0  0  0  0  0  0  0  0  0
    8.0534    9.2922   22.3158 H   0  0  0  0  0  0  0  0  0  0  0  0
    8.8406   10.4860   21.2862 H   0  0  0  0  0  0  0  0  0  0  0  0
    8.1203   13.2193   25.4305 H   0  0  0  0  0  0  0  0  0  0  0  0
    9.6869   12.5051   25.7996 H   0  0  0  0  0  0  0  0  0  0  0  0
    8.4354   12.9697   21.6792 H   0  0  0  0  0  0  0  0  0  0  0  0
    7.3776   13.4950   22.9852 H   0  0  0  0  0  0  0  0  0  0  0  0
   11.2313   11.7383   23.8928 H   0  0  0  0  0  0  0  0  0  0  0  0
   10.7219   11.9270   22.2178 H   0  0  0  0  0  0  0  0  0  0  0  0
    7.8597   10.8526   26.1562 H   0  0  0  0  0  0  0  0  0  0  0  0
    6.6151   11.3146   22.0573 H   0  0  0  0  0  0  0  0  0  0  0  0
   10.4482    9.5670   22.9609 H   0  0  0  0  0  0  0  0  0  0  0  0
   10.5589   14.2882   24.5350 H   0  0  0  0  0  0  0  0  0  0  0  0
    9.1645   14.9070   23.6411 H   0  0  0  0  0  0  0  0  0  0  0  0
   10.2081   17.2933   21.2075 H   0  0  0  0  0  0  0  0  0  0  0  0
  1 13  1  0  0  0  0
  1 14  2  0  0  0  0
  1 15  1  0  0  0  0
  2  8  1  0  0  0  0
  2  9  1  0  0  0  0
  3  8  1  0  0  0  0
  3 10  1  0  0  0  0
  4  9  1  0  0  0  0
  4 10  1  0  0  0  0
  5  8  1  0  0  0  0
  5 11  1  0  0  0  0
  6  9  1  0  0  0  0
  6 11  1  0  0  0  0
  7 10  1  0  0  0  0
  7 11  1  0  0  0  0
 11 12  1  0  0  0  0
 12 13  1  0  0  0  0
 13 16  1  0  0  0  0
 13 17  1  0  0  0  0
  2 18  1  0  0  0  0
  2 19  1  0  0  0  0
  3 20  1  0  0  0  0
  3 21  1  0  0  0  0
  4 22  1  0  0  0  0
  4 23  1  0  0  0  0
  5 24  1  0  0  0  0
  5 25  1  0  0  0  0
  6 26  1  0  0  0  0
  6 27  1  0  0  0  0
  7 28  1  0  0  0  0
  7 29  1  0  0  0  0
  8 30  1  0  0  0  0
  9 31  1  0  0  0  0
 10 32  1  0  0  0  0
 12 33  1  0  0  0  0
 12 34  1  0  0  0  0
 15 35  1  0  0  0  0
M  END
> <id>
EN300-1962452

> <smiles>
OC(=O)C(F)(F)CC1(CC2CC3CC(C2)C1)C3

> <IUPAC Name>
3-(adamantan-1-yl)-2,2-difluoropropanoic acid

> <CAS>
2229469-45-6

> <URL>
https://www.enaminestore.com/catalog/EN300-1962452

> <ROCS_ShapeQuery>
x0446_0A_x1080_0A_x0929_0A_x0812_0A_x0719_0A_x1140_0A_x0528_0A_x0310_0A

> <ROCS_TanimotoCombo>
0.412 

> <ROCS_ShapeTanimoto>
0.231 

> <ROCS_ColorTanimoto>
0.181 

> <ROCS_RefTversky>
0.209 

> <ROCS_RefColorTversky>
0.200 

> <ROCS_RefTverskyCombo>
0.409 

> <ROCS_FitTversky>
1.822 

> <ROCS_FitColorTversky>
0.658 

> <ROCS_FitTverskyCombo>
2.481 

> <ROCS_ColorScore>
-7.152

> <ROCS_Overlap>
2469.944

> <ROCS_Rank>
398                 

$$$$
untitled-dbase-281125_2
  -OEChem-02082415563D

 42 45  0     1  0  0  0  0  0999 V2000
   12.1580   16.0931   21.9770 C   0  0  0  0  0  0  0  0  0  0  0  0
   11.0344   15.6996   21.2502 C   0  0  0  0  0  0  0  0  0  0  0  0
   12.5489   15.3690   23.1033 C   0  0  0  0  0  0  0  0  0  0  0  0
   10.3016   14.5820   21.6498 C   0  0  0  0  0  0  0  0  0  0  0  0
   11.8161   14.2515   23.5029 C   0  0  0  0  0  0  0  0  0  0  0  0
   10.6924   13.8579   22.7761 C   0  0  0  0  0  0  0  0  0  0  0  0
    6.2039   12.1959   24.2502 C   0  0  0  0  0  0  0  0  0  0  0  0
    9.8806   11.5764   22.0867 C   0  0  0  0  0  0  0  0  0  0  0  0
    7.6314   10.7592   22.8274 C   0  0  0  0  0  0  0  0  0  0  0  0
    9.7138    9.7309   23.7721 C   0  0  0  0  0  0  0  0  0  0  0  0
    8.4313   13.0384   23.5168 C   0  0  0  0  0  0  0  0  0  0  0  0
   10.5306   12.0038   24.4708 C   0  0  0  0  0  0  0  0  0  0  0  0
    8.2708   11.1936   25.2151 C   0  0  0  0  0  0  0  0  0  0  0  0
    9.0743   10.3409   22.5174 C   0  0  2  0  0  0  0  0  0  0  0  0
    9.9092   12.6630   23.2041 C   0  0  2  0  0  0  0  0  0  0  0  0
    7.6238   11.8015   23.9563 C   0  0  1  0  0  0  0  0  0  0  0  0
    9.7252   10.7615   24.9206 C   0  0  1  0  0  0  0  0  0  0  0  0
   10.3584   10.1485   26.1737 C   0  0  0  0  0  0  0  0  0  0  0  0
    5.6462   12.0582   25.3288 O   0  0  0  0  0  0  0  0  0  0  0  0
    5.6170   12.7270   23.1499 O   0  0  0  0  0  0  0  0  0  0  0  0
   12.7293   16.9626   21.6649 H   0  0  0  0  0  0  0  0  0  0  0  0
   10.7305   16.2626   20.3725 H   0  0  0  0  0  0  0  0  0  0  0  0
   13.4243   15.6745   23.6687 H   0  0  0  0  0  0  0  0  0  0  0  0
    9.4274   14.2829   21.0775 H   0  0  0  0  0  0  0  0  0  0  0  0
   12.1280   13.6935   24.3818 H   0  0  0  0  0  0  0  0  0  0  0  0
   10.9056   11.2757   21.8301 H   0  0  0  0  0  0  0  0  0  0  0  0
    9.4482   11.9955   21.1678 H   0  0  0  0  0  0  0  0  0  0  0  0
    7.1575   11.1675   21.9249 H   0  0  0  0  0  0  0  0  0  0  0  0
    7.0391    9.8797   23.1126 H   0  0  0  0  0  0  0  0  0  0  0  0
    9.1565    8.8336   24.0709 H   0  0  0  0  0  0  0  0  0  0  0  0
   10.7366    9.4043   23.5442 H   0  0  0  0  0  0  0  0  0  0  0  0
    8.3986   13.8063   24.3029 H   0  0  0  0  0  0  0  0  0  0  0  0
    7.9668   13.5004   22.6339 H   0  0  0  0  0  0  0  0  0  0  0  0
   11.5734   11.7212   24.2689 H   0  0  0  0  0  0  0  0  0  0  0  0
   10.5682   12.7390   25.2869 H   0  0  0  0  0  0  0  0  0  0  0  0
    8.2498   11.9218   26.0376 H   0  0  0  0  0  0  0  0  0  0  0  0
    7.6853   10.3305   25.5609 H   0  0  0  0  0  0  0  0  0  0  0  0
    9.0765    9.6015   21.7085 H   0  0  0  0  0  0  0  0  0  0  0  0
   10.3617   10.8818   26.9763 H   0  0  0  0  0  0  0  0  0  0  0  0
   11.3803    9.8481   25.9558 H   0  0  0  0  0  0  0  0  0  0  0  0
    9.7850    9.2781   26.4831 H   0  0  0  0  0  0  0  0  0  0  0  0
    4.6875   12.9895   23.3211 H   0  0  0  0  0  0  0  0  0  0  0  0
  1  2  1  0  0  0  0
  1  3  2  0  0  0  0
  2  4  2  0  0  0  0
  3  5  1  0  0  0  0
  4  6  1  0  0  0  0
  5  6  2  0  0  0  0
  6 15  1  0  0  0  0
  7 16  1  1  0  0  0
  7 19  2  0  0  0  0
  7 20  1  0  0  0  0
  8 14  1  0  0  0  0
  8 15  1  0  0  0  0
  9 14  1  0  0  0  0
  9 16  1  0  0  0  0
 10 14  1  0  0  0  0
 10 17  1  0  0  0  0
 11 15  1  0  0  0  0
 11 16  1  0  0  0  0
 12 15  1  0  0  0  0
 12 17  1  0  0  0  0
 13 16  1  0  0  0  0
 13 17  1  0  0  0  0
 17 18  1  0  0  0  0
  1 21  1  0  0  0  0
  2 22  1  0  0  0  0
  3 23  1  0  0  0  0
  4 24  1  0  0  0  0
  5 25  1  0  0  0  0
  8 26  1  0  0  0  0
  8 27  1  0  0  0  0
  9 28  1  0  0  0  0
  9 29  1  0  0  0  0
 10 30  1  0  0  0  0
 10 31  1  0  0  0  0
 11 32  1  0  0  0  0
 11 33  1  0  0  0  0
 12 34  1  0  0  0  0
 12 35  1  0  0  0  0
 13 36  1  0  0  0  0
 13 37  1  0  0  0  0
 14 38  1  0  0  0  0
 18 39  1  0  0  0  0
 18 40  1  0  0  0  0
 18 41  1  0  0  0  0
 20 42  1  0  0  0  0
M  END
> <id>
EN300-1721783

> <smiles>
CC1(CC2C[C@]3(C1)C(=O)O)CC(C2)(C3)C=4C=CC=CC4 |o1:5,r|

> <MDLNUMBER>
MFCD13368197

> <IUPAC Name>
rel-(1R)-3-methyl-5-phenyladamantane-1-carboxylic acid

> <URL>
https://www.enaminestore.com/catalog/EN300-1721783

> <ROCS_ShapeQuery>
x0446_0A_x1080_0A_x0929_0A_x0812_0A_x0719_0A_x1140_0A_x0528_0A_x0310_0A

> <ROCS_TanimotoCombo>
0.412 

> <ROCS_ShapeTanimoto>
0.250 

> <ROCS_ColorTanimoto>
0.162 

> <ROCS_RefTversky>
0.226 

> <ROCS_RefColorTversky>
0.185 

> <ROCS_RefTverskyCombo>
0.410 

> <ROCS_FitTversky>
1.785 

> <ROCS_FitColorTversky>
0.562 

> <ROCS_FitTverskyCombo>
2.348 

> <ROCS_ColorScore>
-6.632

> <ROCS_Overlap>
2663.175

> <ROCS_Rank>
399                 

$$$$
untitled-dbase-329938_9
  -OEChem-02082415563D

 29 30  0     0  0  0  0  0  0999 V2000
    6.8289   13.5478   23.7674 C   0  0  0  0  0  0  0  0  0  0  0  0
    9.7252   14.3708   22.2649 C   0  0  0  0  0  0  0  0  0  0  0  0
    8.3695   10.5576   25.1008 C   0  0  0  0  0  0  0  0  0  0  0  0
   10.0978   11.3909   23.4169 C   0  0  0  0  0  0  0  0  0  0  0  0
    8.3520   10.6415   22.4945 C   0  0  0  0  0  0  0  0  0  0  0  0
    8.1261   12.0681   25.2340 C   0  0  0  0  0  0  0  0  0  0  0  0
    9.1236   10.2500   23.8009 C   0  0  0  0  0  0  0  0  0  0  0  0
    8.8140   12.1010   22.8207 C   0  0  0  0  0  0  0  0  0  0  0  0
    9.2137   13.0605   21.7192 C   0  0  0  0  0  0  0  0  0  0  0  0
    6.1549   13.6164   22.4258 C   0  0  0  0  0  0  0  0  0  0  0  0
    7.9133   12.6771   23.9084 N   0  0  0  0  0  0  0  0  0  0  0  0
    6.3860   14.2422   24.6882 O   0  0  0  0  0  0  0  0  0  0  0  0
   10.3170   14.5277   23.3222 O   0  0  0  0  0  0  0  0  0  0  0  0
    9.4354   15.3810   21.4051 O   0  0  0  0  0  0  0  0  0  0  0  0
    6.7511   12.7815   21.5578 F   0  0  0  0  0  0  0  0  0  0  0  0
    4.8613   13.2671   22.5301 F   0  0  0  0  0  0  0  0  0  0  0  0
    6.2184   14.8630   21.9272 F   0  0  0  0  0  0  0  0  0  0  0  0
    8.9523   10.1952   25.9518 H   0  0  0  0  0  0  0  0  0  0  0  0
    7.4105   10.0340   25.1123 H   0  0  0  0  0  0  0  0  0  0  0  0
   10.5955   11.9133   24.2365 H   0  0  0  0  0  0  0  0  0  0  0  0
   10.8482   11.1178   22.6676 H   0  0  0  0  0  0  0  0  0  0  0  0
    8.7866   10.2025   21.5879 H   0  0  0  0  0  0  0  0  0  0  0  0
    7.2772   10.4430   22.4835 H   0  0  0  0  0  0  0  0  0  0  0  0
    7.2203   12.2517   25.8075 H   0  0  0  0  0  0  0  0  0  0  0  0
    8.9611   12.5193   25.7567 H   0  0  0  0  0  0  0  0  0  0  0  0
    9.5723    9.2520   23.7989 H   0  0  0  0  0  0  0  0  0  0  0  0
   10.0046   12.6089   21.1091 H   0  0  0  0  0  0  0  0  0  0  0  0
    8.3465   13.2679   21.0817 H   0  0  0  0  0  0  0  0  0  0  0  0
    9.7578   16.2465   21.7358 H   0  0  0  0  0  0  0  0  0  0  0  0
  1 10  1  0  0  0  0
  1 11  1  0  0  0  0
  1 12  2  0  0  0  0
  2  9  1  0  0  0  0
  2 13  2  0  0  0  0
  2 14  1  0  0  0  0
  3  6  1  0  0  0  0
  3  7  1  0  0  0  0
  4  7  1  0  0  0  0
  4  8  1  0  0  0  0
  5  7  1  0  0  0  0
  5  8  1  0  0  0  0
  6 11  1  0  0  0  0
  8  9  1  0  0  0  0
  8 11  1  0  0  0  0
 10 15  1  0  0  0  0
 10 16  1  0  0  0  0
 10 17  1  0  0  0  0
  3 18  1  0  0  0  0
  3 19  1  0  0  0  0
  4 20  1  0  0  0  0
  4 21  1  0  0  0  0
  5 22  1  0  0  0  0
  5 23  1  0  0  0  0
  6 24  1  0  0  0  0
  6 25  1  0  0  0  0
  7 26  1  0  0  0  0
  9 27  1  0  0  0  0
  9 28  1  0  0  0  0
 14 29  1  0  0  0  0
M  END
> <id>
EN300-37101629

> <smiles>
OC(=O)CC1(CC2C1)N(CC2)C(=O)C(F)(F)F

> <IUPAC Name>
2-[2-(2,2,2-trifluoroacetyl)-2-azabicyclo[3.1.1]heptan-1-yl]acetic acid

> <CAS>
2757959-96-7

> <URL>
https://www.enaminestore.com/catalog/EN300-37101629

> <ROCS_ShapeQuery>
x0446_0A_x1080_0A_x0929_0A_x0812_0A_x0719_0A_x1140_0A_x0528_0A_x0310_0A

> <ROCS_TanimotoCombo>
0.412 

> <ROCS_ShapeTanimoto>
0.213 

> <ROCS_ColorTanimoto>
0.199 

> <ROCS_RefTversky>
0.196 

> <ROCS_RefColorTversky>
0.219 

> <ROCS_RefTverskyCombo>
0.415 

> <ROCS_FitTversky>
1.713 

> <ROCS_FitColorTversky>
0.684 

> <ROCS_FitTverskyCombo>
2.397 

> <ROCS_ColorScore>
-7.843

> <ROCS_Overlap>
2311.679

> <ROCS_Rank>
400                 

$$$$
untitled-dbase-577097_1
  -OEChem-02082415563D

 36 38  0     0  0  0  0  0  0999 V2000
   13.5564   15.4704   22.3349 C   0  0  0  0  0  0  0  0  0  0  0  0
   12.8814   15.1863   23.5220 C   0  0  0  0  0  0  0  0  0  0  0  0
   12.9073   15.3175   21.1097 C   0  0  0  0  0  0  0  0  0  0  0  0
   11.5573   14.7492   23.4840 C   0  0  0  0  0  0  0  0  0  0  0  0
   11.5833   14.8804   21.0717 C   0  0  0  0  0  0  0  0  0  0  0  0
   10.9082   14.5962   22.2588 C   0  0  0  0  0  0  0  0  0  0  0  0
    9.5114   14.1350   22.2187 C   0  0  0  0  0  0  0  0  0  0  0  0
    8.4539   10.0862   23.1238 C   0  0  0  0  0  0  0  0  0  0  0  0
    9.4843   11.2274   25.0904 C   0  0  0  0  0  0  0  0  0  0  0  0
    7.4271   11.2153   22.9751 C   0  0  0  0  0  0  0  0  0  0  0  0
    8.4063   12.3198   25.0071 C   0  0  0  0  0  0  0  0  0  0  0  0
   10.2269   11.7903   22.7777 C   0  0  0  0  0  0  0  0  0  0  0  0
    9.7610   10.6500   23.6928 C   0  0  0  0  0  0  0  0  0  0  0  0
    7.9832   12.5536   23.5356 C   0  0  0  0  0  0  0  0  0  0  0  0
    6.8664   13.6032   23.4775 C   0  0  0  0  0  0  0  0  0  0  0  0
    9.2292   12.8783   22.7696 N   0  0  0  0  0  0  0  0  0  0  0  0
    8.7184   14.9119   21.6931 O   0  0  0  0  0  0  0  0  0  0  0  0
    5.8244   13.1985   24.2158 F   0  0  0  0  0  0  0  0  0  0  0  0
    7.3161   14.7711   23.9550 F   0  0  0  0  0  0  0  0  0  0  0  0
    6.4674   13.7712   22.2097 F   0  0  0  0  0  0  0  0  0  0  0  0
   14.5873   15.8107   22.3646 H   0  0  0  0  0  0  0  0  0  0  0  0
   13.3870   15.3051   24.4759 H   0  0  0  0  0  0  0  0  0  0  0  0
   13.4328   15.5390   20.1855 H   0  0  0  0  0  0  0  0  0  0  0  0
   11.0407   14.5306   24.4151 H   0  0  0  0  0  0  0  0  0  0  0  0
   11.0875   14.7648   20.1113 H   0  0  0  0  0  0  0  0  0  0  0  0
    8.0583    9.3031   23.7817 H   0  0  0  0  0  0  0  0  0  0  0  0
    8.6316    9.6172   22.1487 H   0  0  0  0  0  0  0  0  0  0  0  0
   10.4050   11.6475   25.5132 H   0  0  0  0  0  0  0  0  0  0  0  0
    9.1572   10.4355   25.7746 H   0  0  0  0  0  0  0  0  0  0  0  0
    7.1568   11.3329   21.9177 H   0  0  0  0  0  0  0  0  0  0  0  0
    6.5046   10.9322   23.4982 H   0  0  0  0  0  0  0  0  0  0  0  0
    7.5399   12.0199   25.6103 H   0  0  0  0  0  0  0  0  0  0  0  0
    8.7869   13.2483   25.4512 H   0  0  0  0  0  0  0  0  0  0  0  0
   11.1828   12.1959   23.1293 H   0  0  0  0  0  0  0  0  0  0  0  0
   10.3644   11.4410   21.7476 H   0  0  0  0  0  0  0  0  0  0  0  0
   10.5230    9.8656   23.7483 H   0  0  0  0  0  0  0  0  0  0  0  0
  1  2  1  0  0  0  0
  1  3  2  0  0  0  0
  2  4  2  0  0  0  0
  3  5  1  0  0  0  0
  4  6  1  0  0  0  0
  5  6  2  0  0  0  0
  6  7  1  0  0  0  0
  7 16  1  0  0  0  0
  7 17  2  0  0  0  0
  8 10  1  0  0  0  0
  8 13  1  0  0  0  0
  9 11  1  0  0  0  0
  9 13  1  0  0  0  0
 10 14  1  0  0  0  0
 11 14  1  0  0  0  0
 12 13  1  0  0  0  0
 12 16  1  0  0  0  0
 14 15  1  0  0  0  0
 14 16  1  0  0  0  0
 15 18  1  0  0  0  0
 15 19  1  0  0  0  0
 15 20  1  0  0  0  0
  1 21  1  0  0  0  0
  2 22  1  0  0  0  0
  3 23  1  0  0  0  0
  4 24  1  0  0  0  0
  5 25  1  0  0  0  0
  8 26  1  0  0  0  0
  8 27  1  0  0  0  0
  9 28  1  0  0  0  0
  9 29  1  0  0  0  0
 10 30  1  0  0  0  0
 10 31  1  0  0  0  0
 11 32  1  0  0  0  0
 11 33  1  0  0  0  0
 12 34  1  0  0  0  0
 12 35  1  0  0  0  0
 13 36  1  0  0  0  0
M  END
> <id>
EN300-43360509

> <smiles>
FC(F)(F)C1(CCC2CC1)N(C2)C(=O)C=3C=CC=CC3

> <IUPAC Name>
2-benzoyl-1-(trifluoromethyl)-2-azabicyclo[2.2.2]octane

> <Purity>
95

> <URL>
https://www.enaminestore.com/catalog/EN300-43360509

> <ROCS_ShapeQuery>
x0446_0A_x1080_0A_x0929_0A_x0812_0A_x0719_0A_x1140_0A_x0528_0A_x0310_0A

> <ROCS_TanimotoCombo>
0.412 

> <ROCS_ShapeTanimoto>
0.245 

> <ROCS_ColorTanimoto>
0.167 

> <ROCS_RefTversky>
0.222 

> <ROCS_RefColorTversky>
0.181 

> <ROCS_RefTverskyCombo>
0.403 

> <ROCS_FitTversky>
1.746 

> <ROCS_FitColorTversky>
0.681 

> <ROCS_FitTverskyCombo>
2.427 

> <ROCS_ColorScore>
-6.455

> <ROCS_Overlap>
2623.608

> <ROCS_Rank>
401                 

$$$$
untitled-dbase-409299_2
  -OEChem-02082415563D

 34 35  0     1  0  0  0  0  0999 V2000
    9.4158   11.3439   22.6040 C   0  0  0  0  0  0  0  0  0  0  0  0
    9.3719    9.9856   23.2755 C   0  0  0  0  0  0  0  0  0  0  0  0
    7.4310   10.8856   24.5578 C   0  0  0  0  0  0  0  0  0  0  0  0
    7.5282   12.2362   23.8136 C   0  0  0  0  0  0  0  0  0  0  0  0
    8.9109   10.4417   24.6820 C   0  0  2  0  0  0  0  0  0  0  0  0
    9.0526   12.4203   23.6322 C   0  0  1  0  0  0  0  0  0  0  0  0
    9.6599   11.7839   24.9128 C   0  0  0  0  0  0  0  0  0  0  0  0
    9.2820   12.4880   26.2306 C   0  0  0  0  0  0  0  0  0  0  0  0
   11.1975   11.6634   24.9045 C   0  0  0  0  0  0  0  0  0  0  0  0
    6.2005   15.8899   22.7079 C   0  0  0  0  0  0  0  0  0  0  0  0
    9.4888   13.8175   23.2627 C   0  0  0  0  0  0  0  0  0  0  0  0
    9.6785   11.5331   21.4265 O   0  0  0  0  0  0  0  0  0  0  0  0
    9.0799   15.6470   21.4362 O   0  0  0  0  0  0  0  0  0  0  0  0
    7.7411   13.4970   21.3408 O   0  0  0  0  0  0  0  0  0  0  0  0
    7.3274   15.1672   23.1792 O   0  0  0  0  0  0  0  0  0  0  0  0
    8.3885   14.5543   22.0968 S   0  0  0  0  0  0  0  0  0  0  0  0
    8.6514    9.3263   22.7861 H   0  0  0  0  0  0  0  0  0  0  0  0
   10.3663    9.5344   23.2901 H   0  0  0  0  0  0  0  0  0  0  0  0
    6.9691   11.0175   25.5420 H   0  0  0  0  0  0  0  0  0  0  0  0
    6.8225   10.1616   24.0055 H   0  0  0  0  0  0  0  0  0  0  0  0
    6.9973   12.1923   22.8555 H   0  0  0  0  0  0  0  0  0  0  0  0
    7.0798   13.0402   24.4071 H   0  0  0  0  0  0  0  0  0  0  0  0
    9.0659    9.6794   25.4494 H   0  0  0  0  0  0  0  0  0  0  0  0
    9.8450   13.4107   26.3145 H   0  0  0  0  0  0  0  0  0  0  0  0
    9.5201   11.8354   27.0629 H   0  0  0  0  0  0  0  0  0  0  0  0
    8.2197   12.7048   26.2256 H   0  0  0  0  0  0  0  0  0  0  0  0
   11.6303   12.6427   25.0720 H   0  0  0  0  0  0  0  0  0  0  0  0
   11.5172   11.2790   23.9430 H   0  0  0  0  0  0  0  0  0  0  0  0
   11.5037   10.9855   25.6927 H   0  0  0  0  0  0  0  0  0  0  0  0
    5.6008   16.2258   23.5574 H   0  0  0  0  0  0  0  0  0  0  0  0
    5.6017   15.2485   22.0564 H   0  0  0  0  0  0  0  0  0  0  0  0
    6.5463   16.7586   22.1427 H   0  0  0  0  0  0  0  0  0  0  0  0
   10.4833   13.8120   22.8058 H   0  0  0  0  0  0  0  0  0  0  0  0
    9.5085   14.4695   24.1414 H   0  0  0  0  0  0  0  0  0  0  0  0
  1  2  1  0  0  0  0
  1  6  1  0  0  0  0
  1 12  2  0  0  0  0
  2  5  1  0  0  0  0
  3  4  1  0  0  0  0
  3  5  1  0  0  0  0
  4  6  1  0  0  0  0
  5  7  1  0  0  0  0
  6  7  1  0  0  0  0
  6 11  1  0  0  0  0
  7  8  1  0  0  0  0
  7  9  1  0  0  0  0
 10 15  1  0  0  0  0
 11 16  1  0  0  0  0
 13 16  2  0  0  0  0
 14 16  2  0  0  0  0
 15 16  1  0  0  0  0
  2 17  1  0  0  0  0
  2 18  1  0  0  0  0
  3 19  1  0  0  0  0
  3 20  1  0  0  0  0
  4 21  1  0  0  0  0
  4 22  1  0  0  0  0
  5 23  1  0  0  0  0
  8 24  1  0  0  0  0
  8 25  1  0  0  0  0
  8 26  1  0  0  0  0
  9 27  1  0  0  0  0
  9 28  1  0  0  0  0
  9 29  1  0  0  0  0
 10 30  1  0  0  0  0
 10 31  1  0  0  0  0
 10 32  1  0  0  0  0
 11 33  1  0  0  0  0
 11 34  1  0  0  0  0
M  END
> <id>
EN300-266597

> <smiles>
COS(=O)(=O)CC1(CCC2CC1=O)C2(C)C

> <MDLNUMBER>
MFCD30180397

> <IUPAC Name>
methyl {7,7-dimethyl-2-oxobicyclo[2.2.1]heptan-1-yl}methanesulfonate

> <CAS>
46471-67-4

> <URL>
https://www.enaminestore.com/catalog/EN300-266597

> <ROCS_ShapeQuery>
x0446_0A_x1080_0A_x0929_0A_x0812_0A_x0719_0A_x1140_0A_x0528_0A_x0310_0A

> <ROCS_TanimotoCombo>
0.412 

> <ROCS_ShapeTanimoto>
0.208 

> <ROCS_ColorTanimoto>
0.204 

> <ROCS_RefTversky>
0.190 

> <ROCS_RefColorTversky>
0.225 

> <ROCS_RefTverskyCombo>
0.415 

> <ROCS_FitTversky>
1.765 

> <ROCS_FitColorTversky>
0.690 

> <ROCS_FitTverskyCombo>
2.456 

> <ROCS_ColorScore>
-8.068

> <ROCS_Overlap>
2246.646

> <ROCS_Rank>
402                 

$$$$
untitled-dbase-567811_0
  -OEChem-02082415563D

 32 33  0     0  0  0  0  0  0999 V2000
    8.0030   12.1378   24.0596 C   0  0  0  0  0  0  0  0  0  0  0  0
    7.5015   10.8573   24.3928 C   0  0  0  0  0  0  0  0  0  0  0  0
    9.2014   11.8873   23.4385 C   0  0  0  0  0  0  0  0  0  0  0  0
   10.8586   15.3192   20.8318 C   0  0  0  0  0  0  0  0  0  0  0  0
    7.3060   13.4062   24.3863 C   0  0  0  0  0  0  0  0  0  0  0  0
    6.1963   10.6323   25.0658 C   0  0  0  0  0  0  0  0  0  0  0  0
    5.8324   13.1444   24.7514 C   0  0  0  0  0  0  0  0  0  0  0  0
    5.6723   11.9374   25.6952 C   0  0  0  0  0  0  0  0  0  0  0  0
   12.0466   16.0163   20.2195 C   0  0  0  0  0  0  0  0  0  0  0  0
    9.9585   13.0738   21.3701 C   0  0  0  0  0  0  0  0  0  0  0  0
   10.2210   12.7781   22.8606 C   0  0  0  0  0  0  0  0  0  0  0  0
    8.3123    9.8692   24.0073 N   0  0  0  0  0  0  0  0  0  0  0  0
    9.3372   10.5276   23.4328 N   0  0  0  0  0  0  0  0  0  0  0  0
   10.9746   13.9401   20.8171 N   0  0  0  0  0  0  0  0  0  0  0  0
    9.9099   15.9455   21.3011 O   0  0  0  0  0  0  0  0  0  0  0  0
   10.3088   13.9985   23.4991 F   0  0  0  0  0  0  0  0  0  0  0  0
   11.5027   12.2736   22.9466 F   0  0  0  0  0  0  0  0  0  0  0  0
   12.7676   17.0543   21.4595 Cl  0  0  0  0  0  0  0  0  0  0  0  0
    7.8109   13.8786   25.2376 H   0  0  0  0  0  0  0  0  0  0  0  0
    7.3567   14.1052   23.5441 H   0  0  0  0  0  0  0  0  0  0  0  0
    5.4729   10.2730   24.3238 H   0  0  0  0  0  0  0  0  0  0  0  0
    6.2851    9.8615   25.8395 H   0  0  0  0  0  0  0  0  0  0  0  0
    5.4077   14.0411   25.2169 H   0  0  0  0  0  0  0  0  0  0  0  0
    5.2571   12.9565   23.8355 H   0  0  0  0  0  0  0  0  0  0  0  0
    4.6177   11.8127   25.9659 H   0  0  0  0  0  0  0  0  0  0  0  0
    6.2198   12.1396   26.6249 H   0  0  0  0  0  0  0  0  0  0  0  0
   12.8066   15.3164   19.8635 H   0  0  0  0  0  0  0  0  0  0  0  0
   11.7126   16.6366   19.3832 H   0  0  0  0  0  0  0  0  0  0  0  0
    8.9834   13.5584   21.2508 H   0  0  0  0  0  0  0  0  0  0  0  0
    9.9476   12.1410   20.7965 H   0  0  0  0  0  0  0  0  0  0  0  0
   10.1020    9.9820   23.0555 H   0  0  0  0  0  0  0  0  0  0  0  0
   11.8021   13.5226   20.4035 H   0  0  0  0  0  0  0  0  0  0  0  0
  1  2  1  0  0  0  0
  1  3  2  0  0  0  0
  1  5  1  0  0  0  0
  2  6  1  0  0  0  0
  2 12  2  0  0  0  0
  3 11  1  0  0  0  0
  3 13  1  0  0  0  0
  4  9  1  0  0  0  0
  4 14  1  0  0  0  0
  4 15  2  0  0  0  0
  5  7  1  0  0  0  0
  6  8  1  0  0  0  0
  7  8  1  0  0  0  0
  9 18  1  0  0  0  0
 10 11  1  0  0  0  0
 10 14  1  0  0  0  0
 11 16  1  0  0  0  0
 11 17  1  0  0  0  0
 12 13  1  0  0  0  0
  5 19  1  0  0  0  0
  5 20  1  0  0  0  0
  6 21  1  0  0  0  0
  6 22  1  0  0  0  0
  7 23  1  0  0  0  0
  7 24  1  0  0  0  0
  8 25  1  0  0  0  0
  8 26  1  0  0  0  0
  9 27  1  0  0  0  0
  9 28  1  0  0  0  0
 10 29  1  0  0  0  0
 10 30  1  0  0  0  0
 13 31  1  0  0  0  0
 14 32  1  0  0  0  0
M  END
> <id>
EN300-7460235

> <smiles>
FC(F)(CNC(=O)CCl)C=1NN=C2CCCCC12

> <MDLNUMBER>
MFCD32648890

> <IUPAC Name>
2-chloro-N-[2,2-difluoro-2-(4,5,6,7-tetrahydro-2H-indazol-3-yl)ethyl]acetamide

> <CAS>
2411314-74-2

> <Purity>
95

> <URL>
https://www.enaminestore.com/catalog/EN300-7460235

> <ROCS_ShapeQuery>
x0446_0A_x1080_0A_x0929_0A_x0812_0A_x0719_0A_x1140_0A_x0528_0A_x0310_0A

> <ROCS_TanimotoCombo>
0.412 

> <ROCS_ShapeTanimoto>
0.228 

> <ROCS_ColorTanimoto>
0.184 

> <ROCS_RefTversky>
0.208 

> <ROCS_RefColorTversky>
0.188 

> <ROCS_RefTverskyCombo>
0.396 

> <ROCS_FitTversky>
1.783 

> <ROCS_FitColorTversky>
0.884 

> <ROCS_FitTverskyCombo>
2.668 

> <ROCS_ColorScore>
-6.702

> <ROCS_Overlap>
2449.980

> <ROCS_Rank>
403                 

$$$$
untitled-dbase-563031_6
  -OEChem-02082415563D

 59 64  0     1  0  0  0  0  0999 V2000
    3.7392   10.7989   18.4923 C   0  0  0  0  0  0  0  0  0  0  0  0
    6.2187   15.9485   20.2579 C   0  0  0  0  0  0  0  0  0  0  0  0
    2.9188   10.3178   19.5261 C   0  0  0  0  0  0  0  0  0  0  0  0
    5.7708   16.2405   21.5569 C   0  0  0  0  0  0  0  0  0  0  0  0
    4.4481   11.9950   18.6360 C   0  0  0  0  0  0  0  0  0  0  0  0
    5.7952   14.7929   19.5952 C   0  0  0  0  0  0  0  0  0  0  0  0
    2.7924   11.0226   20.7245 C   0  0  0  0  0  0  0  0  0  0  0  0
    4.8917   15.3818   22.2194 C   0  0  0  0  0  0  0  0  0  0  0  0
    9.6575   15.4610   22.7774 C   0  0  0  0  0  0  0  0  0  0  0  0
   10.6468   16.4626   22.7815 C   0  0  0  0  0  0  0  0  0  0  0  0
    4.3231   12.6948   19.8252 C   0  0  0  0  0  0  0  0  0  0  0  0
    4.9230   13.9403   20.2523 C   0  0  0  0  0  0  0  0  0  0  0  0
    3.5010   12.2047   20.8650 C   0  0  0  0  0  0  0  0  0  0  0  0
    4.4788   14.2348   21.5612 C   0  0  0  0  0  0  0  0  0  0  0  0
   10.3327   14.3101   23.1028 C   0  0  0  0  0  0  0  0  0  0  0  0
    6.1385   11.9446   24.2210 C   0  0  0  0  0  0  0  0  0  0  0  0
    9.1854   10.0076   24.2588 C   0  0  0  0  0  0  0  0  0  0  0  0
    8.7830    9.9943   22.7714 C   0  0  0  0  0  0  0  0  0  0  0  0
    9.3868   12.5178   24.7262 C   0  0  0  0  0  0  0  0  0  0  0  0
    8.7282   12.4949   22.2290 C   0  0  0  0  0  0  0  0  0  0  0  0
    3.5262   13.1548   22.0539 C   0  0  0  0  0  0  0  0  0  0  0  0
    8.5077   11.2540   24.8367 C   0  0  1  0  0  0  0  0  0  0  0  0
    7.9077   11.2384   22.5924 C   0  0  2  0  0  0  0  0  0  0  0  0
    9.8418   12.8653   23.2672 C   0  0  0  0  0  0  0  0  0  0  0  0
   12.7402   13.8178   23.6286 C   0  0  0  0  0  0  0  0  0  0  0  0
    4.0073   12.4873   23.3246 C   0  0  0  0  0  0  0  0  0  0  0  0
   11.8583   15.9894   23.0856 N   0  0  0  0  0  0  0  0  0  0  0  0
   11.6346   14.6779   23.2757 N   0  0  0  0  0  0  0  0  0  0  0  0
    7.3932   11.4479   23.9284 N   0  0  0  0  0  0  0  0  0  0  0  0
    5.7822   12.3049   25.3405 O   0  0  0  0  0  0  0  0  0  0  0  0
   10.9838   12.0455   22.9633 O   0  0  0  0  0  0  0  0  0  0  0  0
    5.3325   11.9870   23.1157 O   0  0  0  0  0  0  0  0  0  0  0  0
    3.8214   10.2334   17.5676 H   0  0  0  0  0  0  0  0  0  0  0  0
    6.9031   16.6316   19.7616 H   0  0  0  0  0  0  0  0  0  0  0  0
    2.3752    9.3869   19.3880 H   0  0  0  0  0  0  0  0  0  0  0  0
    6.1130   17.1468   22.0493 H   0  0  0  0  0  0  0  0  0  0  0  0
    5.0766   12.3547   17.8280 H   0  0  0  0  0  0  0  0  0  0  0  0
    6.1484   14.5818   18.5913 H   0  0  0  0  0  0  0  0  0  0  0  0
    2.1543   10.6497   21.5182 H   0  0  0  0  0  0  0  0  0  0  0  0
    4.5445   15.6138   23.2202 H   0  0  0  0  0  0  0  0  0  0  0  0
    8.6027   15.5626   22.5672 H   0  0  0  0  0  0  0  0  0  0  0  0
   10.5353   17.5174   22.5756 H   0  0  0  0  0  0  0  0  0  0  0  0
    8.7939    9.1052   24.7437 H   0  0  0  0  0  0  0  0  0  0  0  0
   10.2712   10.0082   24.3931 H   0  0  0  0  0  0  0  0  0  0  0  0
    9.6535    9.9845   22.1086 H   0  0  0  0  0  0  0  0  0  0  0  0
    8.2001    9.0887   22.5652 H   0  0  0  0  0  0  0  0  0  0  0  0
    8.8164   13.3606   25.1413 H   0  0  0  0  0  0  0  0  0  0  0  0
   10.2705   12.3911   25.3656 H   0  0  0  0  0  0  0  0  0  0  0  0
    9.1769   12.3496   21.2378 H   0  0  0  0  0  0  0  0  0  0  0  0
    8.0263   13.3355   22.1350 H   0  0  0  0  0  0  0  0  0  0  0  0
    2.5285   13.5896   22.1872 H   0  0  0  0  0  0  0  0  0  0  0  0
    8.1799   11.1050   25.8697 H   0  0  0  0  0  0  0  0  0  0  0  0
    7.1031   11.0840   21.8666 H   0  0  0  0  0  0  0  0  0  0  0  0
   13.1822   13.4397   22.7030 H   0  0  0  0  0  0  0  0  0  0  0  0
   13.4779   14.3886   24.1993 H   0  0  0  0  0  0  0  0  0  0  0  0
   12.3731   12.9914   24.2436 H   0  0  0  0  0  0  0  0  0  0  0  0
    3.3530   11.6517   23.5905 H   0  0  0  0  0  0  0  0  0  0  0  0
    4.0272   13.2040   24.1510 H   0  0  0  0  0  0  0  0  0  0  0  0
   11.2387   12.2561   22.0521 H   0  0  0  0  0  0  0  0  0  0  0  0
  1  3  1  0  0  0  0
  1  5  2  0  0  0  0
  2  4  1  0  0  0  0
  2  6  2  0  0  0  0
  3  7  2  0  0  0  0
  4  8  2  0  0  0  0
  5 11  1  0  0  0  0
  6 12  1  0  0  0  0
  7 13  1  0  0  0  0
  8 14  1  0  0  0  0
  9 10  1  0  0  0  0
  9 15  2  0  0  0  0
 10 27  2  0  0  0  0
 11 12  1  0  0  0  0
 11 13  2  0  0  0  0
 12 14  2  0  0  0  0
 13 21  1  0  0  0  0
 14 21  1  0  0  0  0
 15 24  1  6  0  0  0
 15 28  1  0  0  0  0
 16 29  1  0  0  0  0
 16 30  2  0  0  0  0
 16 32  1  0  0  0  0
 17 18  1  0  0  0  0
 17 22  1  0  0  0  0
 18 23  1  0  0  0  0
 19 22  1  0  0  0  0
 19 24  1  0  0  0  0
 20 23  1  0  0  0  0
 20 24  1  0  0  0  0
 21 26  1  0  0  0  0
 22 29  1  6  0  0  0
 23 29  1  6  0  0  0
 24 31  1  1  0  0  0
 25 28  1  0  0  0  0
 26 32  1  0  0  0  0
 27 28  1  0  0  0  0
  1 33  1  0  0  0  0
  2 34  1  0  0  0  0
  3 35  1  0  0  0  0
  4 36  1  0  0  0  0
  5 37  1  0  0  0  0
  6 38  1  0  0  0  0
  7 39  1  0  0  0  0
  8 40  1  0  0  0  0
  9 41  1  0  0  0  0
 10 42  1  0  0  0  0
 17 43  1  0  0  0  0
 17 44  1  0  0  0  0
 18 45  1  0  0  0  0
 18 46  1  0  0  0  0
 19 47  1  0  0  0  0
 19 48  1  0  0  0  0
 20 49  1  0  0  0  0
 20 50  1  0  0  0  0
 21 51  1  0  0  0  0
 22 52  1  0  0  0  0
 23 53  1  0  0  0  0
 25 54  1  0  0  0  0
 25 55  1  0  0  0  0
 25 56  1  0  0  0  0
 26 57  1  0  0  0  0
 26 58  1  0  0  0  0
 31 59  1  0  0  0  0
M  END
> <id>
EN300-37388503

> <smiles>
CN1N=CC=C1[C@@]2(O)C[C@@H]3CC[C@H](C2)N3C(=O)OCC4C=5C=CC=CC5C=6C=CC=CC46

> <IUPAC Name>
(9H-fluoren-9-yl)methyl (1R,3S,5S)-3-hydroxy-3-(1-methyl-1H-pyrazol-5-yl)-8-azabicyclo[3.2.1]octane-8-carboxylate

> <URL>
https://www.enaminestore.com/catalog/EN300-37388503

> <ROCS_ShapeQuery>
x0446_0A_x1080_0A_x0929_0A_x0812_0A_x0719_0A_x1140_0A_x0528_0A_x0310_0A

> <ROCS_TanimotoCombo>
0.412 

> <ROCS_ShapeTanimoto>
0.250 

> <ROCS_ColorTanimoto>
0.162 

> <ROCS_RefTversky>
0.234 

> <ROCS_RefColorTversky>
0.198 

> <ROCS_RefTverskyCombo>
0.432 

> <ROCS_FitTversky>
1.354 

> <ROCS_FitColorTversky>
0.475 

> <ROCS_FitTverskyCombo>
1.829 

> <ROCS_ColorScore>
-7.119

> <ROCS_Overlap>
2775.697

> <ROCS_Rank>
404                 

$$$$
untitled-dbase-505370_3
  -OEChem-02082415563D

 34 35  0     1  0  0  0  0  0999 V2000
   13.0628   15.4805   21.3911 C   0  0  0  0  0  0  0  0  0  0  0  0
   13.2008   14.2581   21.9161 C   0  0  0  0  0  0  0  0  0  0  0  0
    7.4525   13.4351   23.0016 C   0  0  0  0  0  0  0  0  0  0  0  0
   10.5212   13.2964   23.2269 C   0  0  0  0  0  0  0  0  0  0  0  0
    8.1672   12.1000   25.1003 C   0  0  0  0  0  0  0  0  0  0  0  0
    8.6056   10.6237   25.2503 C   0  0  0  0  0  0  0  0  0  0  0  0
    7.6841   10.9442   23.0821 C   0  0  0  0  0  0  0  0  0  0  0  0
   10.0380   10.8245   23.1774 C   0  0  0  0  0  0  0  0  0  0  0  0
    8.2232   12.2959   23.5817 C   0  0  1  0  0  0  0  0  0  0  0  0
    8.7874   10.1502   23.7815 C   0  0  1  0  0  0  0  0  0  0  0  0
    8.7408    8.6516   23.5957 C   0  0  0  0  0  0  0  0  0  0  0  0
   12.8169   13.9029   23.3141 C   0  0  0  0  0  0  0  0  0  0  0  0
    9.6330   12.2323   23.1728 N   0  0  0  0  0  0  0  0  0  0  0  0
    7.4019   13.7153   21.8132 O   0  0  0  0  0  0  0  0  0  0  0  0
   10.1904   14.4797   23.2235 O   0  0  0  0  0  0  0  0  0  0  0  0
    6.8124   14.1258   23.9765 O   0  0  0  0  0  0  0  0  0  0  0  0
   11.8230   12.8728   23.2708 O   0  0  0  0  0  0  0  0  0  0  0  0
   13.3550   15.6956   20.3692 H   0  0  0  0  0  0  0  0  0  0  0  0
   12.6511   16.2898   21.9842 H   0  0  0  0  0  0  0  0  0  0  0  0
   13.6251   13.4707   21.2984 H   0  0  0  0  0  0  0  0  0  0  0  0
    7.1527   12.2414   25.4908 H   0  0  0  0  0  0  0  0  0  0  0  0
    8.8282   12.7829   25.6445 H   0  0  0  0  0  0  0  0  0  0  0  0
    9.5309   10.5339   25.8292 H   0  0  0  0  0  0  0  0  0  0  0  0
    7.8237   10.0533   25.7648 H   0  0  0  0  0  0  0  0  0  0  0  0
    6.6764   10.7141   23.4481 H   0  0  0  0  0  0  0  0  0  0  0  0
    7.6953   10.8491   21.9895 H   0  0  0  0  0  0  0  0  0  0  0  0
   10.9393   10.6739   23.7798 H   0  0  0  0  0  0  0  0  0  0  0  0
   10.2280   10.5207   22.1424 H   0  0  0  0  0  0  0  0  0  0  0  0
    8.8750    8.3893   22.5416 H   0  0  0  0  0  0  0  0  0  0  0  0
    7.7783    8.2514   23.9292 H   0  0  0  0  0  0  0  0  0  0  0  0
    9.5335    8.1665   24.1739 H   0  0  0  0  0  0  0  0  0  0  0  0
   12.4089   14.7588   23.8608 H   0  0  0  0  0  0  0  0  0  0  0  0
   13.6904   13.5230   23.8531 H   0  0  0  0  0  0  0  0  0  0  0  0
    6.3009   14.8808   23.6151 H   0  0  0  0  0  0  0  0  0  0  0  0
  1  2  2  0  0  0  0
  2 12  1  0  0  0  0
  3  9  1  0  0  0  0
  3 14  2  0  0  0  0
  3 16  1  0  0  0  0
  4 13  1  0  0  0  0
  4 15  2  0  0  0  0
  4 17  1  0  0  0  0
  5  6  1  0  0  0  0
  5  9  1  0  0  0  0
  6 10  1  0  0  0  0
  7  9  1  0  0  0  0
  7 10  1  0  0  0  0
  8 10  1  0  0  0  0
  8 13  1  0  0  0  0
  9 13  1  0  0  0  0
 10 11  1  0  0  0  0
 12 17  1  0  0  0  0
  1 18  1  0  0  0  0
  1 19  1  0  0  0  0
  2 20  1  0  0  0  0
  5 21  1  0  0  0  0
  5 22  1  0  0  0  0
  6 23  1  0  0  0  0
  6 24  1  0  0  0  0
  7 25  1  0  0  0  0
  7 26  1  0  0  0  0
  8 27  1  0  0  0  0
  8 28  1  0  0  0  0
 11 29  1  0  0  0  0
 11 30  1  0  0  0  0
 11 31  1  0  0  0  0
 12 32  1  0  0  0  0
 12 33  1  0  0  0  0
 16 34  1  0  0  0  0
M  END
> <id>
EN300-28276764

> <smiles>
CC1(CCC2(C1)C(=O)O)CN2C(=O)OCC=C

> <IUPAC Name>
4-methyl-2-[(prop-2-en-1-yloxy)carbonyl]-2-azabicyclo[2.2.1]heptane-1-carboxylic acid

> <CAS>
2680877-39-6

> <URL>
https://www.enaminestore.com/catalog/EN300-28276764

> <ROCS_ShapeQuery>
x0446_0A_x1080_0A_x0929_0A_x0812_0A_x0719_0A_x1140_0A_x0528_0A_x0310_0A

> <ROCS_TanimotoCombo>
0.412 

> <ROCS_ShapeTanimoto>
0.235 

> <ROCS_ColorTanimoto>
0.177 

> <ROCS_RefTversky>
0.212 

> <ROCS_RefColorTversky>
0.204 

> <ROCS_RefTverskyCombo>
0.415 

> <ROCS_FitTversky>
1.861 

> <ROCS_FitColorTversky>
0.577 

> <ROCS_FitTverskyCombo>
2.438 

> <ROCS_ColorScore>
-7.308

> <ROCS_Overlap>
2499.117

> <ROCS_Rank>
405                 

$$$$
untitled-dbase-499747_1
  -OEChem-02082415563D

 27 28  0     1  0  0  0  0  0999 V2000
    6.2874   10.8431   24.7522 C   0  0  0  0  0  0  0  0  0  0  0  0
   10.4443   13.7857   22.4046 C   0  0  0  0  0  0  0  0  0  0  0  0
    8.6369   11.3646   25.5635 C   0  0  0  0  0  0  0  0  0  0  0  0
    9.8819   11.8961   24.8329 C   0  0  0  0  0  0  0  0  0  0  0  0
    8.0371   12.0281   23.3372 C   0  0  0  0  0  0  0  0  0  0  0  0
    9.4278   10.1686   23.0843 C   0  0  0  0  0  0  0  0  0  0  0  0
    7.7279   10.9756   24.3921 C   0  0  2  0  0  0  0  0  0  0  0  0
    9.5185   11.6764   23.3490 C   0  0  2  0  0  0  0  0  0  0  0  0
   11.3673   14.2752   21.3278 C   0  0  0  0  0  0  0  0  0  0  0  0
   10.3326   12.3945   22.4280 N   0  0  0  0  0  0  0  0  0  0  0  0
    5.6246    9.8237   24.6310 O   0  0  0  0  0  0  0  0  0  0  0  0
    9.8637   14.5564   23.1637 O   0  0  0  0  0  0  0  0  0  0  0  0
    8.2540    9.7627   23.8310 O   0  0  0  0  0  0  0  0  0  0  0  0
    5.8047   12.0145   25.2340 O   0  0  0  0  0  0  0  0  0  0  0  0
   11.8943   13.2519   20.6084 F   0  0  0  0  0  0  0  0  0  0  0  0
   12.4110   14.9807   21.8336 F   0  0  0  0  0  0  0  0  0  0  0  0
   10.7345   15.0897   20.4455 F   0  0  0  0  0  0  0  0  0  0  0  0
    8.8918   10.5038   26.1911 H   0  0  0  0  0  0  0  0  0  0  0  0
    8.1951   12.1424   26.1958 H   0  0  0  0  0  0  0  0  0  0  0  0
   10.0204   12.9596   25.0613 H   0  0  0  0  0  0  0  0  0  0  0  0
   10.7885   11.3583   25.1291 H   0  0  0  0  0  0  0  0  0  0  0  0
    7.5558   11.8226   22.3740 H   0  0  0  0  0  0  0  0  0  0  0  0
    7.8091   13.0514   23.6551 H   0  0  0  0  0  0  0  0  0  0  0  0
    9.2471    9.9330   22.0299 H   0  0  0  0  0  0  0  0  0  0  0  0
   10.2972    9.6070   23.4396 H   0  0  0  0  0  0  0  0  0  0  0  0
   10.8701   11.8565   21.7394 H   0  0  0  0  0  0  0  0  0  0  0  0
    4.8562   11.9483   25.4753 H   0  0  0  0  0  0  0  0  0  0  0  0
  1  7  1  0  0  0  0
  1 11  2  0  0  0  0
  1 14  1  0  0  0  0
  2  9  1  0  0  0  0
  2 10  1  0  0  0  0
  2 12  2  0  0  0  0
  3  4  1  0  0  0  0
  3  7  1  0  0  0  0
  4  8  1  0  0  0  0
  5  7  1  0  0  0  0
  5  8  1  0  0  0  0
  6  8  1  0  0  0  0
  6 13  1  0  0  0  0
  7 13  1  0  0  0  0
  8 10  1  0  0  0  0
  9 15  1  0  0  0  0
  9 16  1  0  0  0  0
  9 17  1  0  0  0  0
  3 18  1  0  0  0  0
  3 19  1  0  0  0  0
  4 20  1  0  0  0  0
  4 21  1  0  0  0  0
  5 22  1  0  0  0  0
  5 23  1  0  0  0  0
  6 24  1  0  0  0  0
  6 25  1  0  0  0  0
 10 26  1  0  0  0  0
 14 27  1  0  0  0  0
M  END
> <id>
EN300-28279164

> <smiles>
OC(=O)C1(CCC2(CO1)NC(=O)C(F)(F)F)C2

> <IUPAC Name>
4-(2,2,2-trifluoroacetamido)-2-oxabicyclo[2.2.1]heptane-1-carboxylic acid

> <CAS>
2680553-39-1

> <URL>
https://www.enaminestore.com/catalog/EN300-28279164

> <ROCS_ShapeQuery>
x0446_0A_x1080_0A_x0929_0A_x0812_0A_x0719_0A_x1140_0A_x0528_0A_x0310_0A

> <ROCS_TanimotoCombo>
0.412 

> <ROCS_ShapeTanimoto>
0.216 

> <ROCS_ColorTanimoto>
0.196 

> <ROCS_RefTversky>
0.198 

> <ROCS_RefColorTversky>
0.226 

> <ROCS_RefTverskyCombo>
0.424 

> <ROCS_FitTversky>
1.714 

> <ROCS_FitColorTversky>
0.596 

> <ROCS_FitTverskyCombo>
2.310 

> <ROCS_ColorScore>
-8.129

> <ROCS_Overlap>
2337.385

> <ROCS_Rank>
406                 

$$$$
untitled-dbase-476019_3
  -OEChem-02082415563D

 44 46  0     1  0  0  0  0  0999 V2000
   10.2795   14.1364   21.5355 C   0  0  0  0  0  0  0  0  0  0  0  0
    7.5867   10.0299   23.5019 C   0  0  0  0  0  0  0  0  0  0  0  0
    8.7149   11.0199   25.5122 C   0  0  0  0  0  0  0  0  0  0  0  0
    9.9561   10.8383   23.3400 C   0  0  0  0  0  0  0  0  0  0  0  0
    8.1128   12.0975   22.1820 C   0  0  0  0  0  0  0  0  0  0  0  0
    9.2451   13.0918   24.2014 C   0  0  0  0  0  0  0  0  0  0  0  0
    8.9214   10.1584   24.2551 C   0  0  0  0  0  0  0  0  0  0  0  0
    7.0721   11.4246   23.0961 C   0  0  2  0  0  0  0  0  0  0  0  0
    8.2046   12.4193   25.1163 C   0  0  1  0  0  0  0  0  0  0  0  0
    6.8737   12.2997   24.3495 C   0  0  0  0  0  0  0  0  0  0  0  0
    9.4586   12.2423   22.9280 C   0  0  0  0  0  0  0  0  0  0  0  0
   11.9772   15.7546   22.6953 C   0  0  0  0  0  0  0  0  0  0  0  0
   13.5657   15.3827   20.7855 C   0  0  0  0  0  0  0  0  0  0  0  0
   11.5365   16.8268   20.4613 C   0  0  0  0  0  0  0  0  0  0  0  0
   12.1074   15.6053   21.1802 C   0  0  0  0  0  0  0  0  0  0  0  0
   10.4357   12.8757   22.0684 N   0  0  0  0  0  0  0  0  0  0  0  0
    9.3170   14.8761   21.7113 O   0  0  0  0  0  0  0  0  0  0  0  0
    5.8659   11.7295   25.1780 O   0  0  0  0  0  0  0  0  0  0  0  0
   11.3684   14.4488   20.7712 O   0  0  0  0  0  0  0  0  0  0  0  0
    7.7209    9.4080   22.6080 H   0  0  0  0  0  0  0  0  0  0  0  0
    6.8485    9.5183   24.1311 H   0  0  0  0  0  0  0  0  0  0  0  0
    8.0025   10.5321   26.1882 H   0  0  0  0  0  0  0  0  0  0  0  0
    9.6597   11.1098   26.0627 H   0  0  0  0  0  0  0  0  0  0  0  0
   10.9172   10.9127   23.8651 H   0  0  0  0  0  0  0  0  0  0  0  0
   10.1242   10.2165   22.4510 H   0  0  0  0  0  0  0  0  0  0  0  0
    8.2422   11.4977   21.2718 H   0  0  0  0  0  0  0  0  0  0  0  0
    7.7430   13.0819   21.8669 H   0  0  0  0  0  0  0  0  0  0  0  0
    8.9028   14.1002   23.9350 H   0  0  0  0  0  0  0  0  0  0  0  0
   10.1907   13.2084   24.7468 H   0  0  0  0  0  0  0  0  0  0  0  0
    9.2808    9.1642   24.5430 H   0  0  0  0  0  0  0  0  0  0  0  0
    6.1193   11.3090   22.5664 H   0  0  0  0  0  0  0  0  0  0  0  0
    8.0614   13.0134   26.0263 H   0  0  0  0  0  0  0  0  0  0  0  0
    6.5201   13.2943   24.0516 H   0  0  0  0  0  0  0  0  0  0  0  0
   10.9318   15.9144   22.9828 H   0  0  0  0  0  0  0  0  0  0  0  0
   12.3511   14.8701   23.2214 H   0  0  0  0  0  0  0  0  0  0  0  0
   12.5329   16.6296   23.0512 H   0  0  0  0  0  0  0  0  0  0  0  0
   13.6638   15.2751   19.6992 H   0  0  0  0  0  0  0  0  0  0  0  0
   13.9515   14.4552   21.2236 H   0  0  0  0  0  0  0  0  0  0  0  0
   14.2032   16.2112   21.1107 H   0  0  0  0  0  0  0  0  0  0  0  0
   11.6297   16.7199   19.3745 H   0  0  0  0  0  0  0  0  0  0  0  0
   10.4800   16.9804   20.7041 H   0  0  0  0  0  0  0  0  0  0  0  0
   12.0912   17.7326   20.7317 H   0  0  0  0  0  0  0  0  0  0  0  0
   11.2820   12.3631   21.8461 H   0  0  0  0  0  0  0  0  0  0  0  0
    5.0544   11.6995   24.6472 H   0  0  0  0  0  0  0  0  0  0  0  0
  1 16  1  0  0  0  0
  1 17  2  0  0  0  0
  1 19  1  0  0  0  0
  2  7  1  0  0  0  0
  2  8  1  0  0  0  0
  3  7  1  0  0  0  0
  3  9  1  0  0  0  0
  4  7  1  0  0  0  0
  4 11  1  0  0  0  0
  5  8  1  0  0  0  0
  5 11  1  0  0  0  0
  6  9  1  0  0  0  0
  6 11  1  0  0  0  0
  8 10  1  0  0  0  0
  9 10  1  0  0  0  0
 10 18  1  0  0  0  0
 11 16  1  0  0  0  0
 12 15  1  0  0  0  0
 13 15  1  0  0  0  0
 14 15  1  0  0  0  0
 15 19  1  0  0  0  0
  2 20  1  0  0  0  0
  2 21  1  0  0  0  0
  3 22  1  0  0  0  0
  3 23  1  0  0  0  0
  4 24  1  0  0  0  0
  4 25  1  0  0  0  0
  5 26  1  0  0  0  0
  5 27  1  0  0  0  0
  6 28  1  0  0  0  0
  6 29  1  0  0  0  0
  7 30  1  0  0  0  0
  8 31  1  0  0  0  0
  9 32  1  0  0  0  0
 10 33  1  0  0  0  0
 12 34  1  0  0  0  0
 12 35  1  0  0  0  0
 12 36  1  0  0  0  0
 13 37  1  0  0  0  0
 13 38  1  0  0  0  0
 13 39  1  0  0  0  0
 14 40  1  0  0  0  0
 14 41  1  0  0  0  0
 14 42  1  0  0  0  0
 16 43  1  0  0  0  0
 18 44  1  0  0  0  0
M  END
> <id>
EN300-27718406

> <smiles>
CC(C)(C)OC(=O)NC1(CC2CC3C1)CC(C2)C3O

> <IUPAC Name>
tert-butyl N-(4-hydroxyadamantan-1-yl)carbamate

> <CAS>
2136254-89-0

> <URL>
https://www.enaminestore.com/catalog/EN300-27718406

> <ROCS_ShapeQuery>
x0446_0A_x1080_0A_x0929_0A_x0812_0A_x0719_0A_x1140_0A_x0528_0A_x0310_0A

> <ROCS_TanimotoCombo>
0.412 

> <ROCS_ShapeTanimoto>
0.232 

> <ROCS_ColorTanimoto>
0.180 

> <ROCS_RefTversky>
0.211 

> <ROCS_RefColorTversky>
0.207 

> <ROCS_RefTverskyCombo>
0.418 

> <ROCS_FitTversky>
1.741 

> <ROCS_FitColorTversky>
0.583 

> <ROCS_FitTverskyCombo>
2.324 

> <ROCS_ColorScore>
-7.427

> <ROCS_Overlap>
2489.768

> <ROCS_Rank>
407                 

$$$$
untitled-dbase-287869_4
  -OEChem-02082415563D

 46 50  0     1  0  0  0  0  0999 V2000
   13.6131   18.5840   20.9179 C   0  0  0  0  0  0  0  0  0  0  0  0
   14.7424   17.7536   21.0777 C   0  0  0  0  0  0  0  0  0  0  0  0
   12.3181   18.0669   21.0187 C   0  0  0  0  0  0  0  0  0  0  0  0
   14.6015   16.3880   21.3418 C   0  0  0  0  0  0  0  0  0  0  0  0
   12.2008   16.7186   21.2828 C   0  0  0  0  0  0  0  0  0  0  0  0
   13.3161   15.8985   21.4406 C   0  0  0  0  0  0  0  0  0  0  0  0
   11.0019   15.8880   21.4351 C   0  0  0  0  0  0  0  0  0  0  0  0
   12.8434   14.5340   21.6953 C   0  0  0  0  0  0  0  0  0  0  0  0
   10.3808   13.4555   23.3414 C   0  0  0  0  0  0  0  0  0  0  0  0
    7.9392   10.5798   25.4396 C   0  0  0  0  0  0  0  0  0  0  0  0
    8.1727   12.7682   24.2377 C   0  0  0  0  0  0  0  0  0  0  0  0
   10.1705   11.2740   24.5301 C   0  0  0  0  0  0  0  0  0  0  0  0
    6.9160   10.8797   23.1692 C   0  0  0  0  0  0  0  0  0  0  0  0
    8.9148    9.3847   23.4618 C   0  0  0  0  0  0  0  0  0  0  0  0
    9.1512   11.5770   22.2546 C   0  0  0  0  0  0  0  0  0  0  0  0
    7.2377   11.5766   24.5026 C   0  0  1  0  0  0  0  0  0  0  0  0
    9.2420   10.0777   24.7960 C   0  0  2  0  0  0  0  0  0  0  0  0
    9.4806   12.2784   23.5870 C   0  0  0  0  0  0  0  0  0  0  0  0
    8.2133   10.3705   22.4977 C   0  0  0  0  0  0  0  0  0  0  0  0
    7.8878    9.6757   21.1727 C   0  0  0  0  0  0  0  0  0  0  0  0
   11.4887   14.6496   21.7149 N   0  0  0  0  0  0  0  0  0  0  0  0
    9.8590   16.2893   21.3375 O   0  0  0  0  0  0  0  0  0  0  0  0
   13.5611   13.5673   21.8601 O   0  0  0  0  0  0  0  0  0  0  0  0
   10.7970   14.1945   24.2237 O   0  0  0  0  0  0  0  0  0  0  0  0
   10.6437   13.5565   22.0064 O   0  0  0  0  0  0  0  0  0  0  0  0
   13.7548   19.6418   20.7119 H   0  0  0  0  0  0  0  0  0  0  0  0
   15.7367   18.1846   20.9923 H   0  0  0  0  0  0  0  0  0  0  0  0
   11.4515   18.7052   20.8933 H   0  0  0  0  0  0  0  0  0  0  0  0
   15.4695   15.7507   21.4616 H   0  0  0  0  0  0  0  0  0  0  0  0
    8.1575   11.0599   26.4013 H   0  0  0  0  0  0  0  0  0  0  0  0
    7.2748    9.7327   25.6503 H   0  0  0  0  0  0  0  0  0  0  0  0
    7.6727   13.4989   23.5883 H   0  0  0  0  0  0  0  0  0  0  0  0
    8.3868   13.2915   25.1790 H   0  0  0  0  0  0  0  0  0  0  0  0
   10.4337   11.7582   25.4798 H   0  0  0  0  0  0  0  0  0  0  0  0
   11.1150   10.9258   24.0918 H   0  0  0  0  0  0  0  0  0  0  0  0
    6.2278   10.0434   23.3479 H   0  0  0  0  0  0  0  0  0  0  0  0
    6.3942   11.5800   22.5042 H   0  0  0  0  0  0  0  0  0  0  0  0
    9.8390    9.0038   23.0083 H   0  0  0  0  0  0  0  0  0  0  0  0
    8.2728    8.5139   23.6470 H   0  0  0  0  0  0  0  0  0  0  0  0
    8.6797   12.2864   21.5607 H   0  0  0  0  0  0  0  0  0  0  0  0
   10.0775   11.2454   21.7657 H   0  0  0  0  0  0  0  0  0  0  0  0
    6.3106   11.9306   24.9673 H   0  0  0  0  0  0  0  0  0  0  0  0
    9.7371    9.3684   25.4686 H   0  0  0  0  0  0  0  0  0  0  0  0
    8.8064    9.3222   20.7102 H   0  0  0  0  0  0  0  0  0  0  0  0
    7.3952   10.3773   20.5037 H   0  0  0  0  0  0  0  0  0  0  0  0
    7.2288    8.8301   21.3560 H   0  0  0  0  0  0  0  0  0  0  0  0
  1  2  1  0  0  0  0
  1  3  2  0  0  0  0
  2  4  2  0  0  0  0
  3  5  1  0  0  0  0
  4  6  1  0  0  0  0
  5  6  2  0  0  0  0
  5  7  1  0  0  0  0
  6  8  1  0  0  0  0
  7 21  1  0  0  0  0
  7 22  2  0  0  0  0
  8 21  1  0  0  0  0
  8 23  2  0  0  0  0
  9 18  1  0  0  0  0
  9 24  2  0  0  0  0
  9 25  1  0  0  0  0
 10 16  1  0  0  0  0
 10 17  1  0  0  0  0
 11 16  1  0  0  0  0
 11 18  1  0  0  0  0
 12 17  1  0  0  0  0
 12 18  1  0  0  0  0
 13 16  1  0  0  0  0
 13 19  1  0  0  0  0
 14 17  1  0  0  0  0
 14 19  1  0  0  0  0
 15 18  1  0  0  0  0
 15 19  1  0  0  0  0
 19 20  1  0  0  0  0
 21 25  1  0  0  0  0
  1 26  1  0  0  0  0
  2 27  1  0  0  0  0
  3 28  1  0  0  0  0
  4 29  1  0  0  0  0
 10 30  1  0  0  0  0
 10 31  1  0  0  0  0
 11 32  1  0  0  0  0
 11 33  1  0  0  0  0
 12 34  1  0  0  0  0
 12 35  1  0  0  0  0
 13 36  1  0  0  0  0
 13 37  1  0  0  0  0
 14 38  1  0  0  0  0
 14 39  1  0  0  0  0
 15 40  1  0  0  0  0
 15 41  1  0  0  0  0
 16 42  1  0  0  0  0
 17 43  1  0  0  0  0
 20 44  1  0  0  0  0
 20 45  1  0  0  0  0
 20 46  1  0  0  0  0
M  END
> <id>
EN300-6518444

> <smiles>
CC1(CC2CC3C1)CC(C2)(C3)C(=O)ON4C(=O)C=5C=CC=CC5C4=O

> <IUPAC Name>
1,3-dioxo-2,3-dihydro-1H-isoindol-2-yl 3-methyladamantane-1-carboxylate

> <CAS>
2248280-06-8

> <URL>
https://www.enaminestore.com/catalog/EN300-6518444

> <ROCS_ShapeQuery>
x0446_0A_x1080_0A_x0929_0A_x0812_0A_x0719_0A_x1140_0A_x0528_0A_x0310_0A

> <ROCS_TanimotoCombo>
0.412 

> <ROCS_ShapeTanimoto>
0.239 

> <ROCS_ColorTanimoto>
0.173 

> <ROCS_RefTversky>
0.221 

> <ROCS_RefColorTversky>
0.200 

> <ROCS_RefTverskyCombo>
0.421 

> <ROCS_FitTversky>
1.499 

> <ROCS_FitColorTversky>
0.563 

> <ROCS_FitTverskyCombo>
2.062 

> <ROCS_ColorScore>
-7.187

> <ROCS_Overlap>
2613.263

> <ROCS_Rank>
408                 

$$$$
untitled-dbase-589610_4
  -OEChem-02082415563D

 50 52  0     1  0  0  0  0  0999 V2000
    6.5210   11.0563   25.1157 C   0  0  0  0  0  0  0  0  0  0  0  0
    7.3450   10.4042   24.2006 C   0  0  0  0  0  0  0  0  0  0  0  0
    6.4388   12.4421   25.1047 C   0  0  0  0  0  0  0  0  0  0  0  0
    8.1143   11.1294   23.2729 C   0  0  0  0  0  0  0  0  0  0  0  0
    7.1762   13.1766   24.1758 C   0  0  0  0  0  0  0  0  0  0  0  0
    8.0151   12.5345   23.2487 C   0  0  0  0  0  0  0  0  0  0  0  0
   10.8017    9.1086   22.6805 C   0  0  0  0  0  0  0  0  0  0  0  0
    9.4729    9.0846   22.5485 C   0  0  0  0  0  0  0  0  0  0  0  0
   11.0489   13.2845   22.9738 C   0  0  0  0  0  0  0  0  0  0  0  0
    8.3635   14.5367   21.8181 C   0  0  0  0  0  0  0  0  0  0  0  0
   11.3482   10.4787   22.4684 C   0  0  0  0  0  0  0  0  0  0  0  0
    8.9038   10.4295   22.1952 C   0  0  2  0  0  0  0  0  0  0  0  0
   10.1106   12.7275   21.9382 C   0  0  1  0  0  0  0  0  0  0  0  0
   10.1720   11.2019   21.7814 C   0  0  1  0  0  0  0  0  0  0  0  0
    7.6421   15.0524   25.7679 C   0  0  0  0  0  0  0  0  0  0  0  0
    7.0368   16.1509   19.8558 C   0  0  0  0  0  0  0  0  0  0  0  0
    4.9487   15.7250   21.1854 C   0  0  0  0  0  0  0  0  0  0  0  0
    6.8706   16.9552   22.2348 C   0  0  0  0  0  0  0  0  0  0  0  0
    7.1364   14.6566   24.3862 C   0  0  0  0  0  0  0  0  0  0  0  0
    6.4684   15.8631   21.2446 C   0  0  0  0  0  0  0  0  0  0  0  0
    8.7927   13.2817   22.3001 N   0  0  0  0  0  0  0  0  0  0  0  0
   10.7573   13.5021   24.1404 O   0  0  0  0  0  0  0  0  0  0  0  0
    9.0982   15.4835   21.5432 O   0  0  0  0  0  0  0  0  0  0  0  0
   12.2711   13.5180   22.4363 O   0  0  0  0  0  0  0  0  0  0  0  0
    6.9977   14.6138   21.7038 O   0  0  0  0  0  0  0  0  0  0  0  0
    5.9504   10.4806   25.8405 H   0  0  0  0  0  0  0  0  0  0  0  0
    7.3763    9.3181   24.2120 H   0  0  0  0  0  0  0  0  0  0  0  0
    5.8171   12.9408   25.8429 H   0  0  0  0  0  0  0  0  0  0  0  0
   11.4104    8.2401   22.8882 H   0  0  0  0  0  0  0  0  0  0  0  0
    8.8834    8.1738   22.6322 H   0  0  0  0  0  0  0  0  0  0  0  0
   11.6448   10.9552   23.4063 H   0  0  0  0  0  0  0  0  0  0  0  0
   12.2214   10.4306   21.8098 H   0  0  0  0  0  0  0  0  0  0  0  0
    8.2631   10.3202   21.3202 H   0  0  0  0  0  0  0  0  0  0  0  0
   10.4572   13.1559   20.9879 H   0  0  0  0  0  0  0  0  0  0  0  0
   10.2972   11.0290   20.6508 H   0  0  0  0  0  0  0  0  0  0  0  0
    7.0608   14.5629   26.5567 H   0  0  0  0  0  0  0  0  0  0  0  0
    7.5616   16.1347   25.9095 H   0  0  0  0  0  0  0  0  0  0  0  0
    8.6922   14.7702   25.9001 H   0  0  0  0  0  0  0  0  0  0  0  0
    8.1274   16.2507   19.8940 H   0  0  0  0  0  0  0  0  0  0  0  0
    6.7850   15.3574   19.1446 H   0  0  0  0  0  0  0  0  0  0  0  0
    6.6530   17.1003   19.4652 H   0  0  0  0  0  0  0  0  0  0  0  0
    4.5367   15.5185   22.1798 H   0  0  0  0  0  0  0  0  0  0  0  0
    4.6580   14.8811   20.5494 H   0  0  0  0  0  0  0  0  0  0  0  0
    4.4755   16.6320   20.7955 H   0  0  0  0  0  0  0  0  0  0  0  0
    6.4630   16.7490   23.2312 H   0  0  0  0  0  0  0  0  0  0  0  0
    7.9586   17.0434   22.3180 H   0  0  0  0  0  0  0  0  0  0  0  0
    6.4647   17.9265   21.9297 H   0  0  0  0  0  0  0  0  0  0  0  0
    7.7383   15.1627   23.6182 H   0  0  0  0  0  0  0  0  0  0  0  0
    6.1106   15.0285   24.2524 H   0  0  0  0  0  0  0  0  0  0  0  0
   12.8978   13.8839   23.0964 H   0  0  0  0  0  0  0  0  0  0  0  0
  1  2  1  0  0  0  0
  1  3  2  0  0  0  0
  2  4  2  0  0  0  0
  3  5  1  0  0  0  0
  4  6  1  0  0  0  0
  4 12  1  0  0  0  0
  5  6  2  0  0  0  0
  5 19  1  0  0  0  0
  6 21  1  0  0  0  0
  7  8  2  0  0  0  0
  7 11  1  0  0  0  0
  8 12  1  6  0  0  0
  9 13  1  6  0  0  0
  9 22  2  0  0  0  0
  9 24  1  0  0  0  0
 10 21  1  0  0  0  0
 10 23  2  0  0  0  0
 10 25  1  0  0  0  0
 11 14  1  6  0  0  0
 12 14  1  0  0  0  0
 13 14  1  0  0  0  0
 13 21  1  0  0  0  0
 15 19  1  0  0  0  0
 16 20  1  0  0  0  0
 17 20  1  0  0  0  0
 18 20  1  0  0  0  0
 20 25  1  0  0  0  0
  1 26  1  0  0  0  0
  2 27  1  0  0  0  0
  3 28  1  0  0  0  0
  7 29  1  0  0  0  0
  8 30  1  0  0  0  0
 11 31  1  0  0  0  0
 11 32  1  0  0  0  0
 12 33  1  0  0  0  0
 13 34  1  0  0  0  0
 14 35  1  0  0  0  0
 15 36  1  0  0  0  0
 15 37  1  0  0  0  0
 15 38  1  0  0  0  0
 16 39  1  0  0  0  0
 16 40  1  0  0  0  0
 16 41  1  0  0  0  0
 17 42  1  0  0  0  0
 17 43  1  0  0  0  0
 17 44  1  0  0  0  0
 18 45  1  0  0  0  0
 18 46  1  0  0  0  0
 18 47  1  0  0  0  0
 19 48  1  0  0  0  0
 19 49  1  0  0  0  0
 24 50  1  0  0  0  0
M  END
> <id>
EN300-37102247

> <smiles>
CCC=1C=CC=C2[C@@H]3C=CC[C@@H]3[C@@H](N(C(=O)OC(C)(C)C)C12)C(=O)O |&1:7,11,12,r|

> <IUPAC Name>
rac-(3aR,4S,9bS)-5-[(tert-butoxy)carbonyl]-6-ethyl-3H,3aH,4H,5H,9bH-cyclopenta[c]quinoline-4-carboxylic acid

> <URL>
https://www.enaminestore.com/catalog/EN300-37102247

> <ROCS_ShapeQuery>
x0446_0A_x1080_0A_x0929_0A_x0812_0A_x0719_0A_x1140_0A_x0528_0A_x0310_0A

> <ROCS_TanimotoCombo>
0.412 

> <ROCS_ShapeTanimoto>
0.262 

> <ROCS_ColorTanimoto>
0.149 

> <ROCS_RefTversky>
0.238 

> <ROCS_RefColorTversky>
0.168 

> <ROCS_RefTverskyCombo>
0.406 

> <ROCS_FitTversky>
1.652 

> <ROCS_FitColorTversky>
0.575 

> <ROCS_FitTverskyCombo>
2.227 

> <ROCS_ColorScore>
-6.008

> <ROCS_Overlap>
2810.927

> <ROCS_Rank>
409                 

$$$$
untitled-dbase-486015_5
  -OEChem-02082415563D

 36 38  0     0  0  0  0  0  0999 V2000
    9.1622   13.6554   23.0468 C   0  0  0  0  0  0  0  0  0  0  0  0
    7.7299   12.3268   25.6213 C   0  0  0  0  0  0  0  0  0  0  0  0
    6.4940   11.8824   23.4736 C   0  0  0  0  0  0  0  0  0  0  0  0
    9.2662   11.0776   22.3022 C   0  0  0  0  0  0  0  0  0  0  0  0
   10.2867   11.4439   24.0749 C   0  0  0  0  0  0  0  0  0  0  0  0
    6.4696   11.8714   26.3509 C   0  0  0  0  0  0  0  0  0  0  0  0
    5.3093   11.4536   24.3342 C   0  0  0  0  0  0  0  0  0  0  0  0
    9.0527   12.1826   23.4146 C   0  0  0  0  0  0  0  0  0  0  0  0
    7.8154   11.6979   24.2268 C   0  0  0  0  0  0  0  0  0  0  0  0
    9.4096   10.2180   23.6153 C   0  0  0  0  0  0  0  0  0  0  0  0
    8.2243   15.3200   21.6564 C   0  0  0  0  0  0  0  0  0  0  0  0
    9.9766    8.8313   23.5753 C   0  0  0  0  0  0  0  0  0  0  0  0
   11.0818    8.7577   22.6646 N   0  0  0  0  0  0  0  0  0  0  0  0
    9.9704   14.4276   23.5445 O   0  0  0  0  0  0  0  0  0  0  0  0
    5.3061   12.1534   25.5765 O   0  0  0  0  0  0  0  0  0  0  0  0
    8.1407   10.2961   24.3296 O   0  0  0  0  0  0  0  0  0  0  0  0
    8.2327   13.9582   22.0964 O   0  0  0  0  0  0  0  0  0  0  0  0
    7.7050   13.4187   25.5250 H   0  0  0  0  0  0  0  0  0  0  0  0
    8.5947   12.0683   26.2403 H   0  0  0  0  0  0  0  0  0  0  0  0
    6.4682   11.3034   22.5455 H   0  0  0  0  0  0  0  0  0  0  0  0
    6.3723   12.9396   23.2091 H   0  0  0  0  0  0  0  0  0  0  0  0
    8.4151   10.8332   21.6626 H   0  0  0  0  0  0  0  0  0  0  0  0
   10.1564   11.1759   21.6695 H   0  0  0  0  0  0  0  0  0  0  0  0
   11.2605   11.5724   23.5872 H   0  0  0  0  0  0  0  0  0  0  0  0
   10.4241   11.5552   25.1528 H   0  0  0  0  0  0  0  0  0  0  0  0
    6.5050   10.8006   26.5828 H   0  0  0  0  0  0  0  0  0  0  0  0
    6.3765   12.4098   27.2997 H   0  0  0  0  0  0  0  0  0  0  0  0
    4.3730   11.6878   23.8179 H   0  0  0  0  0  0  0  0  0  0  0  0
    5.3195   10.3733   24.5219 H   0  0  0  0  0  0  0  0  0  0  0  0
    7.4475   15.4545   20.8997 H   0  0  0  0  0  0  0  0  0  0  0  0
    9.2019   15.5752   21.2396 H   0  0  0  0  0  0  0  0  0  0  0  0
    8.0140   15.9682   22.5104 H   0  0  0  0  0  0  0  0  0  0  0  0
   10.3163    8.5617   24.5834 H   0  0  0  0  0  0  0  0  0  0  0  0
    9.1894    8.1393   23.2499 H   0  0  0  0  0  0  0  0  0  0  0  0
   10.8829    8.0891   21.9466 H   0  0  0  0  0  0  0  0  0  0  0  0
   11.2346    9.6550   22.2478 H   0  0  0  0  0  0  0  0  0  0  0  0
  1  8  1  0  0  0  0
  1 14  2  0  0  0  0
  1 17  1  0  0  0  0
  2  6  1  0  0  0  0
  2  9  1  0  0  0  0
  3  7  1  0  0  0  0
  3  9  1  0  0  0  0
  4  8  1  0  0  0  0
  4 10  1  0  0  0  0
  5  8  1  0  0  0  0
  5 10  1  0  0  0  0
  6 15  1  0  0  0  0
  7 15  1  0  0  0  0
  8  9  1  0  0  0  0
  9 16  1  0  0  0  0
 10 12  1  0  0  0  0
 10 16  1  0  0  0  0
 11 17  1  0  0  0  0
 12 13  1  0  0  0  0
  2 18  1  0  0  0  0
  2 19  1  0  0  0  0
  3 20  1  0  0  0  0
  3 21  1  0  0  0  0
  4 22  1  0  0  0  0
  4 23  1  0  0  0  0
  5 24  1  0  0  0  0
  5 25  1  0  0  0  0
  6 26  1  0  0  0  0
  6 27  1  0  0  0  0
  7 28  1  0  0  0  0
  7 29  1  0  0  0  0
 11 30  1  0  0  0  0
 11 31  1  0  0  0  0
 11 32  1  0  0  0  0
 12 33  1  0  0  0  0
 12 34  1  0  0  0  0
 13 35  1  0  0  0  0
 13 36  1  0  0  0  0
M  END
> <id>
EN300-27727208

> <smiles>
COC(=O)C1(CC2(CN)C1)C3(CCOCC3)O2

> <IUPAC Name>
methyl 4-(aminomethyl)-3-oxaspiro[bicyclo[2.1.1]hexane-2,4'-oxane]-1-carboxylate

> <CAS>
2639421-46-6

> <URL>
https://www.enaminestore.com/catalog/EN300-27727208

> <ROCS_ShapeQuery>
x0446_0A_x1080_0A_x0929_0A_x0812_0A_x0719_0A_x1140_0A_x0528_0A_x0310_0A

> <ROCS_TanimotoCombo>
0.412 

> <ROCS_ShapeTanimoto>
0.221 

> <ROCS_ColorTanimoto>
0.190 

> <ROCS_RefTversky>
0.202 

> <ROCS_RefColorTversky>
0.222 

> <ROCS_RefTverskyCombo>
0.424 

> <ROCS_FitTversky>
1.773 

> <ROCS_FitColorTversky>
0.571 

> <ROCS_FitTverskyCombo>
2.345 

> <ROCS_ColorScore>
-7.987

> <ROCS_Overlap>
2383.457

> <ROCS_Rank>
410                 

$$$$
untitled-dbase-339627_0
  -OEChem-02082415563D

 38 40  0     0  0  0  0  0  0999 V2000
   10.3318   14.6261   21.7891 C   0  0  0  0  0  0  0  0  0  0  0  0
    6.5466   13.9017   25.2041 C   0  0  0  0  0  0  0  0  0  0  0  0
    9.9194    9.9646   24.2254 C   0  0  0  0  0  0  0  0  0  0  0  0
   10.6315   12.2908   23.6175 C   0  0  0  0  0  0  0  0  0  0  0  0
    8.7881   11.9380   25.2806 C   0  0  0  0  0  0  0  0  0  0  0  0
    9.3968   10.8753   21.9484 C   0  0  0  0  0  0  0  0  0  0  0  0
    7.5531   10.5225   23.6116 C   0  0  0  0  0  0  0  0  0  0  0  0
    8.2614   12.8551   23.0007 C   0  0  0  0  0  0  0  0  0  0  0  0
   10.1267   11.3912   24.7577 C   0  0  0  0  0  0  0  0  0  0  0  0
    8.8892    9.9729   23.0852 C   0  0  0  0  0  0  0  0  0  0  0  0
    9.6081   12.3193   22.4590 C   0  0  0  0  0  0  0  0  0  0  0  0
    7.7353   11.9610   24.1486 C   0  0  0  0  0  0  0  0  0  0  0  0
   10.1166   13.2133   21.3245 C   0  0  0  0  0  0  0  0  0  0  0  0
    6.4031   12.5027   24.6746 C   0  0  0  0  0  0  0  0  0  0  0  0
   11.3612   15.0919   22.2541 O   0  0  0  0  0  0  0  0  0  0  0  0
    6.8235   14.2229   26.3499 O   0  0  0  0  0  0  0  0  0  0  0  0
    9.1903   15.3409   21.6170 O   0  0  0  0  0  0  0  0  0  0  0  0
    6.3201   14.7924   24.2045 O   0  0  0  0  0  0  0  0  0  0  0  0
   10.8722    9.5562   23.8667 H   0  0  0  0  0  0  0  0  0  0  0  0
    9.5769    9.3085   25.0352 H   0  0  0  0  0  0  0  0  0  0  0  0
   10.8034   13.3062   23.9976 H   0  0  0  0  0  0  0  0  0  0  0  0
   11.6007   11.9212   23.2586 H   0  0  0  0  0  0  0  0  0  0  0  0
    8.4362   11.3156   26.1134 H   0  0  0  0  0  0  0  0  0  0  0  0
    8.9348   12.9485   25.6835 H   0  0  0  0  0  0  0  0  0  0  0  0
   10.3369   10.4723   21.5503 H   0  0  0  0  0  0  0  0  0  0  0  0
    8.6755   10.8667   21.1210 H   0  0  0  0  0  0  0  0  0  0  0  0
    6.8063   10.5090   22.8072 H   0  0  0  0  0  0  0  0  0  0  0  0
    7.1724    9.8668   24.4052 H   0  0  0  0  0  0  0  0  0  0  0  0
    8.3866   13.8862   23.3582 H   0  0  0  0  0  0  0  0  0  0  0  0
    7.5220   12.8945   22.1896 H   0  0  0  0  0  0  0  0  0  0  0  0
   10.8621   11.3785   25.5702 H   0  0  0  0  0  0  0  0  0  0  0  0
    8.7459    8.9534   22.7102 H   0  0  0  0  0  0  0  0  0  0  0  0
   11.0622   12.8109   20.9587 H   0  0  0  0  0  0  0  0  0  0  0  0
    9.3794   13.2117   20.5204 H   0  0  0  0  0  0  0  0  0  0  0  0
    5.6788   12.5033   23.8589 H   0  0  0  0  0  0  0  0  0  0  0  0
    6.0535   11.8525   25.4778 H   0  0  0  0  0  0  0  0  0  0  0  0
    9.2937   16.2714   21.9102 H   0  0  0  0  0  0  0  0  0  0  0  0
    6.4057   15.7192   24.5142 H   0  0  0  0  0  0  0  0  0  0  0  0
  1 13  1  0  0  0  0
  1 15  2  0  0  0  0
  1 17  1  0  0  0  0
  2 14  1  0  0  0  0
  2 16  2  0  0  0  0
  2 18  1  0  0  0  0
  3  9  1  0  0  0  0
  3 10  1  0  0  0  0
  4  9  1  0  0  0  0
  4 11  1  0  0  0  0
  5  9  1  0  0  0  0
  5 12  1  0  0  0  0
  6 10  1  0  0  0  0
  6 11  1  0  0  0  0
  7 10  1  0  0  0  0
  7 12  1  0  0  0  0
  8 11  1  0  0  0  0
  8 12  1  0  0  0  0
 11 13  1  0  0  0  0
 12 14  1  0  0  0  0
  3 19  1  0  0  0  0
  3 20  1  0  0  0  0
  4 21  1  0  0  0  0
  4 22  1  0  0  0  0
  5 23  1  0  0  0  0
  5 24  1  0  0  0  0
  6 25  1  0  0  0  0
  6 26  1  0  0  0  0
  7 27  1  0  0  0  0
  7 28  1  0  0  0  0
  8 29  1  0  0  0  0
  8 30  1  0  0  0  0
  9 31  1  0  0  0  0
 10 32  1  0  0  0  0
 13 33  1  0  0  0  0
 13 34  1  0  0  0  0
 14 35  1  0  0  0  0
 14 36  1  0  0  0  0
 17 37  1  0  0  0  0
 18 38  1  0  0  0  0
M  END
> <id>
EN300-00148

> <smiles>
OC(=O)CC1(CC2CC3C1)CC(CC(=O)O)(C2)C3

> <IUPAC Name>
2-[3-(carboxymethyl)adamantan-1-yl]acetic acid

> <URL>
https://www.enaminestore.com/catalog/EN300-00148

> <MP>
234-237

> <ROCS_ShapeQuery>
x0446_0A_x1080_0A_x0929_0A_x0812_0A_x0719_0A_x1140_0A_x0528_0A_x0310_0A

> <ROCS_TanimotoCombo>
0.412 

> <ROCS_ShapeTanimoto>
0.241 

> <ROCS_ColorTanimoto>
0.171 

> <ROCS_RefTversky>
0.217 

> <ROCS_RefColorTversky>
0.202 

> <ROCS_RefTverskyCombo>
0.418 

> <ROCS_FitTversky>
1.851 

> <ROCS_FitColorTversky>
0.528 

> <ROCS_FitTverskyCombo>
2.380 

> <ROCS_ColorScore>
-7.248

> <ROCS_Overlap>
2560.282

> <ROCS_Rank>
411                 

$$$$
untitled-dbase-328854_1
  -OEChem-02082415563D

 39 41  0     1  0  0  0  0  0999 V2000
   13.1222   16.0883   22.1958 C   0  0  0  0  0  0  0  0  0  0  0  0
   11.8135   16.5632   22.2824 C   0  0  0  0  0  0  0  0  0  0  0  0
   13.3606   14.7197   22.0694 C   0  0  0  0  0  0  0  0  0  0  0  0
   10.7433   15.6695   22.2427 C   0  0  0  0  0  0  0  0  0  0  0  0
   12.2903   13.8261   22.0297 C   0  0  0  0  0  0  0  0  0  0  0  0
   10.9817   14.3010   22.1163 C   0  0  0  0  0  0  0  0  0  0  0  0
    7.0611   13.3641   23.4202 C   0  0  0  0  0  0  0  0  0  0  0  0
    8.2140   11.7110   24.9364 C   0  0  0  0  0  0  0  0  0  0  0  0
   10.3505   11.7990   23.8948 C   0  0  0  0  0  0  0  0  0  0  0  0
    7.8842   11.0456   22.6987 C   0  0  0  0  0  0  0  0  0  0  0  0
    9.3489   10.8030   24.5052 C   0  0  2  0  0  0  0  0  0  0  0  0
    8.1006   12.3067   23.5416 C   0  0  1  0  0  0  0  0  0  0  0  0
    5.0964   14.2187   20.4539 C   0  0  0  0  0  0  0  0  0  0  0  0
    9.8301   13.3385   22.0737 C   0  0  0  0  0  0  0  0  0  0  0  0
    5.5448   14.3424   21.8945 C   0  0  0  0  0  0  0  0  0  0  0  0
    8.7115   10.0415   23.4046 N   0  0  0  0  0  0  0  0  0  0  0  0
    9.4596   12.8738   23.4016 N   0  0  2  0  0  0  0  0  0  0  0  0
    6.7257   14.1035   24.3355 O   0  0  0  0  0  0  0  0  0  0  0  0
    6.5607   13.3678   22.1519 O   0  0  0  0  0  0  0  0  0  0  0  0
   13.9554   16.7844   22.2254 H   0  0  0  0  0  0  0  0  0  0  0  0
   11.6276   17.6288   22.3798 H   0  0  0  0  0  0  0  0  0  0  0  0
   14.3793   14.3498   22.0008 H   0  0  0  0  0  0  0  0  0  0  0  0
    9.7269   16.0485   22.3111 H   0  0  0  0  0  0  0  0  0  0  0  0
   12.4857   12.7615   21.9311 H   0  0  0  0  0  0  0  0  0  0  0  0
    7.3131   11.1790   25.2655 H   0  0  0  0  0  0  0  0  0  0  0  0
    8.4966   12.4335   25.7120 H   0  0  0  0  0  0  0  0  0  0  0  0
   11.0119   12.2093   24.6653 H   0  0  0  0  0  0  0  0  0  0  0  0
   10.9650   11.3305   23.1165 H   0  0  0  0  0  0  0  0  0  0  0  0
    6.8322   10.7354   22.7071 H   0  0  0  0  0  0  0  0  0  0  0  0
    8.1881   11.1469   21.6534 H   0  0  0  0  0  0  0  0  0  0  0  0
    9.7697   10.1624   25.2829 H   0  0  0  0  0  0  0  0  0  0  0  0
    5.9305   14.3949   19.7691 H   0  0  0  0  0  0  0  0  0  0  0  0
    4.6857   13.2221   20.2617 H   0  0  0  0  0  0  0  0  0  0  0  0
    4.3009   14.9385   20.2343 H   0  0  0  0  0  0  0  0  0  0  0  0
    8.9496   13.8096   21.6233 H   0  0  0  0  0  0  0  0  0  0  0  0
   10.0746   12.4598   21.4677 H   0  0  0  0  0  0  0  0  0  0  0  0
    4.7060   14.1650   22.5741 H   0  0  0  0  0  0  0  0  0  0  0  0
    5.9557   15.3384   22.0846 H   0  0  0  0  0  0  0  0  0  0  0  0
    8.0938    9.3354   23.8065 H   0  0  0  0  0  0  0  0  0  0  0  0
  1  2  1  0  0  0  0
  1  3  2  0  0  0  0
  2  4  2  0  0  0  0
  3  5  1  0  0  0  0
  4  6  1  0  0  0  0
  5  6  2  0  0  0  0
  6 14  1  0  0  0  0
  7 12  1  0  0  0  0
  7 18  2  0  0  0  0
  7 19  1  0  0  0  0
  8 11  1  0  0  0  0
  8 12  1  0  0  0  0
  9 11  1  0  0  0  0
  9 17  1  0  0  0  0
 10 12  1  0  0  0  0
 10 16  1  0  0  0  0
 11 16  1  0  0  0  0
 12 17  1  0  0  0  0
 13 15  1  0  0  0  0
 14 17  1  0  0  0  0
 15 19  1  0  0  0  0
  1 20  1  0  0  0  0
  2 21  1  0  0  0  0
  3 22  1  0  0  0  0
  4 23  1  0  0  0  0
  5 24  1  0  0  0  0
  8 25  1  0  0  0  0
  8 26  1  0  0  0  0
  9 27  1  0  0  0  0
  9 28  1  0  0  0  0
 10 29  1  0  0  0  0
 10 30  1  0  0  0  0
 11 31  1  0  0  0  0
 13 32  1  0  0  0  0
 13 33  1  0  0  0  0
 13 34  1  0  0  0  0
 14 35  1  0  0  0  0
 14 36  1  0  0  0  0
 15 37  1  0  0  0  0
 15 38  1  0  0  0  0
 16 39  1  0  0  0  0
M  END
> <id>
EN300-37101994

> <smiles>
CCOC(=O)C1(CNC2CN1CC=3C=CC=CC3)C2

> <IUPAC Name>
ethyl 2-benzyl-2,5-diazabicyclo[2.2.1]heptane-1-carboxylate

> <CAS>
2757900-32-4

> <URL>
https://www.enaminestore.com/catalog/EN300-37101994

> <ROCS_ShapeQuery>
x0446_0A_x1080_0A_x0929_0A_x0812_0A_x0719_0A_x1140_0A_x0528_0A_x0310_0A

> <ROCS_TanimotoCombo>
0.412 

> <ROCS_ShapeTanimoto>
0.234 

> <ROCS_ColorTanimoto>
0.178 

> <ROCS_RefTversky>
0.213 

> <ROCS_RefColorTversky>
0.204 

> <ROCS_RefTverskyCombo>
0.417 

> <ROCS_FitTversky>
1.744 

> <ROCS_FitColorTversky>
0.580 

> <ROCS_FitTverskyCombo>
2.324 

> <ROCS_ColorScore>
-7.339

> <ROCS_Overlap>
2509.229

> <ROCS_Rank>
412                 

$$$$
untitled-dbase-5677_6
  -OEChem-02082415563D

 39 41  0     0  0  0  0  0  0999 V2000
    9.5908   14.2434   21.1885 C   0  0  0  0  0  0  0  0  0  0  0  0
   12.7321   15.2070   22.3768 C   0  0  0  0  0  0  0  0  0  0  0  0
    7.1828   10.8800   24.4936 C   0  0  0  0  0  0  0  0  0  0  0  0
    9.1824   12.1281   25.3489 C   0  0  0  0  0  0  0  0  0  0  0  0
    9.4779    9.9067   24.2240 C   0  0  0  0  0  0  0  0  0  0  0  0
    7.9354   12.9795   23.3465 C   0  0  0  0  0  0  0  0  0  0  0  0
    8.2315   10.7531   22.2190 C   0  0  0  0  0  0  0  0  0  0  0  0
   10.2357   12.0037   23.0762 C   0  0  0  0  0  0  0  0  0  0  0  0
    7.7927   12.2753   24.7071 C   0  0  0  0  0  0  0  0  0  0  0  0
    8.0898   10.0428   23.5766 C   0  0  0  0  0  0  0  0  0  0  0  0
   10.0994   11.2971   24.4363 C   0  0  0  0  0  0  0  0  0  0  0  0
    8.8497   12.1588   22.4063 C   0  0  0  0  0  0  0  0  0  0  0  0
    8.9892   12.8622   21.0537 C   0  0  0  0  0  0  0  0  0  0  0  0
   11.8132   15.3678   21.2046 C   0  0  0  0  0  0  0  0  0  0  0  0
   10.9750   14.1945   21.1101 N   0  0  0  0  0  0  0  0  0  0  0  0
    8.9245   15.2632   21.3439 O   0  0  0  0  0  0  0  0  0  0  0  0
   13.1796   14.1557   22.8098 O   0  0  0  0  0  0  0  0  0  0  0  0
   13.0138   16.4221   22.9143 O   0  0  0  0  0  0  0  0  0  0  0  0
    7.0575   10.3744   25.4590 H   0  0  0  0  0  0  0  0  0  0  0  0
    6.1836   10.9715   24.0502 H   0  0  0  0  0  0  0  0  0  0  0  0
    9.6223   13.1181   25.5212 H   0  0  0  0  0  0  0  0  0  0  0  0
    9.0925   11.6448   26.3296 H   0  0  0  0  0  0  0  0  0  0  0  0
    9.3931    9.3838   25.1847 H   0  0  0  0  0  0  0  0  0  0  0  0
   10.1308    9.2977   23.5867 H   0  0  0  0  0  0  0  0  0  0  0  0
    6.9440   13.1095   22.8934 H   0  0  0  0  0  0  0  0  0  0  0  0
    8.3483   13.9858   23.4941 H   0  0  0  0  0  0  0  0  0  0  0  0
    8.8586   10.1487   21.5509 H   0  0  0  0  0  0  0  0  0  0  0  0
    7.2469   10.8322   21.7402 H   0  0  0  0  0  0  0  0  0  0  0  0
   10.7012   12.9878   23.2174 H   0  0  0  0  0  0  0  0  0  0  0  0
   10.9081   11.4276   22.4277 H   0  0  0  0  0  0  0  0  0  0  0  0
    7.1434   12.8663   25.3626 H   0  0  0  0  0  0  0  0  0  0  0  0
    7.6513    9.0494   23.4297 H   0  0  0  0  0  0  0  0  0  0  0  0
   11.0870   11.1940   24.8996 H   0  0  0  0  0  0  0  0  0  0  0  0
    8.0020   12.9470   20.5952 H   0  0  0  0  0  0  0  0  0  0  0  0
    9.6250   12.2578   20.4042 H   0  0  0  0  0  0  0  0  0  0  0  0
   11.1793   16.2461   21.3523 H   0  0  0  0  0  0  0  0  0  0  0  0
   12.3967   15.4654   20.2854 H   0  0  0  0  0  0  0  0  0  0  0  0
   11.4205   13.2909   20.9800 H   0  0  0  0  0  0  0  0  0  0  0  0
   13.6154   16.3500   23.6858 H   0  0  0  0  0  0  0  0  0  0  0  0
  1 13  1  0  0  0  0
  1 15  1  0  0  0  0
  1 16  2  0  0  0  0
  2 14  1  0  0  0  0
  2 17  2  0  0  0  0
  2 18  1  0  0  0  0
  3  9  1  0  0  0  0
  3 10  1  0  0  0  0
  4  9  1  0  0  0  0
  4 11  1  0  0  0  0
  5 10  1  0  0  0  0
  5 11  1  0  0  0  0
  6  9  1  0  0  0  0
  6 12  1  0  0  0  0
  7 10  1  0  0  0  0
  7 12  1  0  0  0  0
  8 11  1  0  0  0  0
  8 12  1  0  0  0  0
 12 13  1  0  0  0  0
 14 15  1  0  0  0  0
  3 19  1  0  0  0  0
  3 20  1  0  0  0  0
  4 21  1  0  0  0  0
  4 22  1  0  0  0  0
  5 23  1  0  0  0  0
  5 24  1  0  0  0  0
  6 25  1  0  0  0  0
  6 26  1  0  0  0  0
  7 27  1  0  0  0  0
  7 28  1  0  0  0  0
  8 29  1  0  0  0  0
  8 30  1  0  0  0  0
  9 31  1  0  0  0  0
 10 32  1  0  0  0  0
 11 33  1  0  0  0  0
 13 34  1  0  0  0  0
 13 35  1  0  0  0  0
 14 36  1  0  0  0  0
 14 37  1  0  0  0  0
 15 38  1  0  0  0  0
 18 39  1  0  0  0  0
M  END
> <id>
EN300-07880

> <smiles>
OC(=O)CNC(=O)CC1(CC2CC3CC(C2)C1)C3

> <MDLNUMBER>
MFCD04213423

> <IUPAC Name>
2-[2-(adamantan-1-yl)acetamido]acetic acid

> <CAS>
237400-99-6

> <Purity>
95

> <URL>
https://www.enaminestore.com/catalog/EN300-07880

> <ROCS_ShapeQuery>
x0446_0A_x1080_0A_x0929_0A_x0812_0A_x0719_0A_x1140_0A_x0528_0A_x0310_0A

> <ROCS_TanimotoCombo>
0.412 

> <ROCS_ShapeTanimoto>
0.222 

> <ROCS_ColorTanimoto>
0.190 

> <ROCS_RefTversky>
0.203 

> <ROCS_RefColorTversky>
0.216 

> <ROCS_RefTverskyCombo>
0.419 

> <ROCS_FitTversky>
1.738 

> <ROCS_FitColorTversky>
0.608 

> <ROCS_FitTverskyCombo>
2.346 

> <ROCS_ColorScore>
-7.762

> <ROCS_Overlap>
2394.832

> <ROCS_Rank>
413                 

$$$$
untitled-dbase-283545_9
  -OEChem-02082415563D

 23 24  0     0  0  0  0  0  0999 V2000
    9.4649   10.5635   23.4746 C   0  0  0  0  0  0  0  0  0  0  0  0
    9.4089   11.9390   23.5733 C   0  0  0  0  0  0  0  0  0  0  0  0
    7.5964   10.9821   24.3776 C   0  0  0  0  0  0  0  0  0  0  0  0
    6.2973   10.9525   24.9891 C   0  0  0  0  0  0  0  0  0  0  0  0
    6.3362   13.2509   25.0921 C   0  0  0  0  0  0  0  0  0  0  0  0
    7.5532   13.3590   24.5236 C   0  0  0  0  0  0  0  0  0  0  0  0
    8.7543   14.0490   21.4908 C   0  0  0  0  0  0  0  0  0  0  0  0
   10.1307   13.4649   21.7261 C   0  0  0  0  0  0  0  0  0  0  0  0
   10.3662   12.9856   23.1752 C   0  0  0  0  0  0  0  0  0  0  0  0
    8.3288    9.9712   23.9791 N   0  0  0  0  0  0  0  0  0  0  0  0
    5.6806   12.0498   25.3379 N   0  0  0  0  0  0  0  0  0  0  0  0
    8.2005   12.1938   24.1566 N   0  0  0  0  0  0  0  0  0  0  0  0
    7.7606   13.4196   21.1562 O   0  0  0  0  0  0  0  0  0  0  0  0
    8.7449   15.3921   21.6987 O   0  0  0  0  0  0  0  0  0  0  0  0
   10.3176   14.1043   23.9808 F   0  0  0  0  0  0  0  0  0  0  0  0
   11.6823   12.5803   23.2548 F   0  0  0  0  0  0  0  0  0  0  0  0
   10.2673    9.9662   23.0652 H   0  0  0  0  0  0  0  0  0  0  0  0
    5.8131    9.9793   25.1680 H   0  0  0  0  0  0  0  0  0  0  0  0
    5.7986   14.1437   25.3935 H   0  0  0  0  0  0  0  0  0  0  0  0
    8.0428   14.3074   24.3438 H   0  0  0  0  0  0  0  0  0  0  0  0
   10.8651   14.2403   21.4785 H   0  0  0  0  0  0  0  0  0  0  0  0
   10.2509   12.6171   21.0414 H   0  0  0  0  0  0  0  0  0  0  0  0
    7.8760   15.8264   21.5602 H   0  0  0  0  0  0  0  0  0  0  0  0
  1  2  2  0  0  0  0
  1 10  1  0  0  0  0
  2  9  1  0  0  0  0
  2 12  1  0  0  0  0
  3  4  1  0  0  0  0
  3 10  2  0  0  0  0
  3 12  1  0  0  0  0
  4 11  2  0  0  0  0
  5  6  2  0  0  0  0
  5 11  1  0  0  0  0
  6 12  1  0  0  0  0
  7  8  1  0  0  0  0
  7 13  2  0  0  0  0
  7 14  1  0  0  0  0
  8  9  1  0  0  0  0
  9 15  1  0  0  0  0
  9 16  1  0  0  0  0
  1 17  1  0  0  0  0
  4 18  1  0  0  0  0
  5 19  1  0  0  0  0
  6 20  1  0  0  0  0
  8 21  1  0  0  0  0
  8 22  1  0  0  0  0
 14 23  1  0  0  0  0
M  END
> <id>
EN300-1971953

> <smiles>
OC(=O)CC(F)(F)C1=CN=C2C=NC=CN12

> <IUPAC Name>
3,3-difluoro-3-{imidazo[1,2-a]pyrazin-3-yl}propanoic acid

> <CAS>
2228693-43-2

> <URL>
https://www.enaminestore.com/catalog/EN300-1971953

> <ROCS_ShapeQuery>
x0446_0A_x1080_0A_x0929_0A_x0812_0A_x0719_0A_x1140_0A_x0528_0A_x0310_0A

> <ROCS_TanimotoCombo>
0.412 

> <ROCS_ShapeTanimoto>
0.233 

> <ROCS_ColorTanimoto>
0.179 

> <ROCS_RefTversky>
0.210 

> <ROCS_RefColorTversky>
0.192 

> <ROCS_RefTverskyCombo>
0.402 

> <ROCS_FitTversky>
1.866 

> <ROCS_FitColorTversky>
0.724 

> <ROCS_FitTverskyCombo>
2.589 

> <ROCS_ColorScore>
-6.868

> <ROCS_Overlap>
2478.006

> <ROCS_Rank>
414                 

$$$$
untitled-dbase-507973_8
  -OEChem-02082415563D

 45 48  0     0  0  0  0  0  0999 V2000
    6.6204   13.8259   20.1993 C   0  0  0  0  0  0  0  0  0  0  0  0
    5.5829   13.2130   25.1450 C   0  0  0  0  0  0  0  0  0  0  0  0
    5.2636   11.8652   24.9928 C   0  0  0  0  0  0  0  0  0  0  0  0
    7.6030   13.4110   19.3005 C   0  0  0  0  0  0  0  0  0  0  0  0
    6.9436   14.7146   21.2248 C   0  0  0  0  0  0  0  0  0  0  0  0
    6.8824   13.6564   24.8979 C   0  0  0  0  0  0  0  0  0  0  0  0
    6.2424   10.9550   24.5929 C   0  0  0  0  0  0  0  0  0  0  0  0
    8.9089   13.8846   19.4272 C   0  0  0  0  0  0  0  0  0  0  0  0
    8.2495   15.1882   21.3515 C   0  0  0  0  0  0  0  0  0  0  0  0
   12.5549   11.7846   23.1650 C   0  0  0  0  0  0  0  0  0  0  0  0
   12.2355   10.4367   23.0127 C   0  0  0  0  0  0  0  0  0  0  0  0
    7.8677   12.7464   24.4963 C   0  0  0  0  0  0  0  0  0  0  0  0
    7.5477   11.3957   24.3438 C   0  0  0  0  0  0  0  0  0  0  0  0
   10.2707   12.2541   23.8139 C   0  0  0  0  0  0  0  0  0  0  0  0
    9.9507   10.9034   23.6613 C   0  0  0  0  0  0  0  0  0  0  0  0
    9.2321   14.7732   20.4527 C   0  0  0  0  0  0  0  0  0  0  0  0
   11.5761   12.6948   23.5649 C   0  0  0  0  0  0  0  0  0  0  0  0
   10.9360    9.9934   23.2597 C   0  0  0  0  0  0  0  0  0  0  0  0
    9.2409   13.2250   24.2369 C   0  0  0  0  0  0  0  0  0  0  0  0
    8.5775   10.4249   23.9207 C   0  0  0  0  0  0  0  0  0  0  0  0
   11.8978   14.9466   22.5873 C   0  0  0  0  0  0  0  0  0  0  0  0
   12.5025   14.5623   24.9857 C   0  0  0  0  0  0  0  0  0  0  0  0
   10.6367   15.2829   20.5897 C   0  0  0  0  0  0  0  0  0  0  0  0
   11.9761   14.0289   23.6941 N   0  0  0  0  0  0  0  0  0  0  0  0
    9.4844   14.4165   24.3808 O   0  0  0  0  0  0  0  0  0  0  0  0
    8.2310    9.2573   23.8062 O   0  0  0  0  0  0  0  0  0  0  0  0
   12.2336   16.1274   22.6401 O   0  0  0  0  0  0  0  0  0  0  0  0
   11.3743   14.3981   21.4420 O   0  0  0  0  0  0  0  0  0  0  0  0
   10.7152    8.1155   22.9914 Br  0  0  0  0  0  0  0  0  0  0  0  0
    5.6033   13.4581   20.0997 H   0  0  0  0  0  0  0  0  0  0  0  0
    4.8194   13.9198   25.4571 H   0  0  0  0  0  0  0  0  0  0  0  0
    4.2509   11.5226   25.1851 H   0  0  0  0  0  0  0  0  0  0  0  0
    7.3513   12.7200   18.5013 H   0  0  0  0  0  0  0  0  0  0  0  0
    6.1786   15.0387   21.9241 H   0  0  0  0  0  0  0  0  0  0  0  0
    7.1035   14.7126   25.0265 H   0  0  0  0  0  0  0  0  0  0  0  0
    5.9635    9.9106   24.4829 H   0  0  0  0  0  0  0  0  0  0  0  0
    9.6680   13.5557   18.7224 H   0  0  0  0  0  0  0  0  0  0  0  0
    8.4921   15.8801   22.1536 H   0  0  0  0  0  0  0  0  0  0  0  0
   13.5727   12.1128   22.9673 H   0  0  0  0  0  0  0  0  0  0  0  0
   13.0206    9.7528   22.6984 H   0  0  0  0  0  0  0  0  0  0  0  0
   13.5944   14.4325   25.0188 H   0  0  0  0  0  0  0  0  0  0  0  0
   12.2579   15.6316   25.0676 H   0  0  0  0  0  0  0  0  0  0  0  0
   12.0429   14.0159   25.8224 H   0  0  0  0  0  0  0  0  0  0  0  0
   11.1318   15.3342   19.6140 H   0  0  0  0  0  0  0  0  0  0  0  0
   10.6437   16.2885   21.0238 H   0  0  0  0  0  0  0  0  0  0  0  0
  1  4  1  0  0  0  0
  1  5  2  0  0  0  0
  2  3  1  0  0  0  0
  2  6  2  0  0  0  0
  3  7  2  0  0  0  0
  4  8  2  0  0  0  0
  5  9  1  0  0  0  0
  6 12  1  0  0  0  0
  7 13  1  0  0  0  0
  8 16  1  0  0  0  0
  9 16  2  0  0  0  0
 10 11  2  0  0  0  0
 10 17  1  0  0  0  0
 11 18  1  0  0  0  0
 12 13  2  0  0  0  0
 12 19  1  0  0  0  0
 13 20  1  0  0  0  0
 14 15  1  0  0  0  0
 14 17  2  0  0  0  0
 14 19  1  0  0  0  0
 15 18  2  0  0  0  0
 15 20  1  0  0  0  0
 16 23  1  0  0  0  0
 17 24  1  0  0  0  0
 18 29  1  0  0  0  0
 19 25  2  0  0  0  0
 20 26  2  0  0  0  0
 21 24  1  0  0  0  0
 21 27  2  0  0  0  0
 21 28  1  0  0  0  0
 22 24  1  0  0  0  0
 23 28  1  0  0  0  0
  1 30  1  0  0  0  0
  2 31  1  0  0  0  0
  3 32  1  0  0  0  0
  4 33  1  0  0  0  0
  5 34  1  0  0  0  0
  6 35  1  0  0  0  0
  7 36  1  0  0  0  0
  8 37  1  0  0  0  0
  9 38  1  0  0  0  0
 10 39  1  0  0  0  0
 11 40  1  0  0  0  0
 22 41  1  0  0  0  0
 22 42  1  0  0  0  0
 22 43  1  0  0  0  0
 23 44  1  0  0  0  0
 23 45  1  0  0  0  0
M  END
> <id>
EN300-28304421

> <smiles>
CN(C(=O)OCC=1C=CC=CC1)C=2C=CC(Br)=C3C(=O)C=4C=CC=CC4C(=O)C23

> <IUPAC Name>
benzyl N-(4-bromo-9,10-dioxo-9,10-dihydroanthracen-1-yl)-N-methylcarbamate

> <CAS>
2680665-27-2

> <URL>
https://www.enaminestore.com/catalog/EN300-28304421

> <ROCS_ShapeQuery>
x0446_0A_x1080_0A_x0929_0A_x0812_0A_x0719_0A_x1140_0A_x0528_0A_x0310_0A

> <ROCS_TanimotoCombo>
0.412 

> <ROCS_ShapeTanimoto>
0.281 

> <ROCS_ColorTanimoto>
0.131 

> <ROCS_RefTversky>
0.254 

> <ROCS_RefColorTversky>
0.146 

> <ROCS_RefTverskyCombo>
0.401 

> <ROCS_FitTversky>
1.591 

> <ROCS_FitColorTversky>
0.552 

> <ROCS_FitTverskyCombo>
2.144 

> <ROCS_ColorScore>
-5.228

> <ROCS_Overlap>
3008.275

> <ROCS_Rank>
415                 

$$$$
untitled-dbase-372162_9
  -OEChem-02082415563D

 41 44  0     0  0  0  0  0  0999 V2000
   12.4003    8.2680   21.4456 C   0  0  0  0  0  0  0  0  0  0  0  0
   11.7569    9.2949   20.7550 C   0  0  0  0  0  0  0  0  0  0  0  0
   12.0236    7.9645   22.7540 C   0  0  0  0  0  0  0  0  0  0  0  0
   10.7368   10.0184   21.3726 C   0  0  0  0  0  0  0  0  0  0  0  0
   11.0034    8.6880   23.3716 C   0  0  0  0  0  0  0  0  0  0  0  0
   12.5065   14.1568   21.7628 C   0  0  0  0  0  0  0  0  0  0  0  0
   13.6625   14.9162   21.6200 C   0  0  0  0  0  0  0  0  0  0  0  0
   10.3600    9.7150   22.6809 C   0  0  0  0  0  0  0  0  0  0  0  0
   11.3558   14.7427   22.2784 C   0  0  0  0  0  0  0  0  0  0  0  0
    9.3131   10.4576   23.3152 C   0  0  0  0  0  0  0  0  0  0  0  0
   13.6161   16.2466   22.0044 C   0  0  0  0  0  0  0  0  0  0  0  0
   11.4127   16.0807   22.6336 C   0  0  0  0  0  0  0  0  0  0  0  0
    9.3216   11.8134   23.5399 C   0  0  0  0  0  0  0  0  0  0  0  0
    7.4538   10.8749   24.2897 C   0  0  0  0  0  0  0  0  0  0  0  0
    6.4248   13.3238   25.2022 C   0  0  0  0  0  0  0  0  0  0  0  0
    5.6845   12.0817   25.3531 C   0  0  0  0  0  0  0  0  0  0  0  0
    7.6290   13.2994   24.6129 C   0  0  0  0  0  0  0  0  0  0  0  0
    6.1591   10.8884   24.9213 C   0  0  0  0  0  0  0  0  0  0  0  0
   10.1372   13.9284   22.4255 C   0  0  0  0  0  0  0  0  0  0  0  0
    5.3345    9.6421   25.1128 C   0  0  0  0  0  0  0  0  0  0  0  0
    8.1581    9.8832   23.7799 N   0  0  0  0  0  0  0  0  0  0  0  0
   12.5170   16.8506   22.5093 N   0  0  0  0  0  0  0  0  0  0  0  0
    8.1312   12.0843   24.1642 N   0  0  0  0  0  0  0  0  0  0  0  0
   10.2590   12.7699   23.2457 N   0  0  0  0  0  0  0  0  0  0  0  0
    9.0996   14.2312   21.8401 O   0  0  0  0  0  0  0  0  0  0  0  0
   14.9934   17.2596   21.8634 Cl  0  0  0  0  0  0  0  0  0  0  0  0
   10.0580   16.9217   23.2810 Cl  0  0  0  0  0  0  0  0  0  0  0  0
   13.1939    7.7038   20.9645 H   0  0  0  0  0  0  0  0  0  0  0  0
   12.0492    9.5305   19.7359 H   0  0  0  0  0  0  0  0  0  0  0  0
   12.5238    7.1641   23.2910 H   0  0  0  0  0  0  0  0  0  0  0  0
   10.2448   10.8161   20.8209 H   0  0  0  0  0  0  0  0  0  0  0  0
   10.7214    8.4391   24.3920 H   0  0  0  0  0  0  0  0  0  0  0  0
   12.5153   13.1102   21.4699 H   0  0  0  0  0  0  0  0  0  0  0  0
   14.5653   14.4683   21.2184 H   0  0  0  0  0  0  0  0  0  0  0  0
    5.9868   14.2437   25.5700 H   0  0  0  0  0  0  0  0  0  0  0  0
    4.7155   12.1588   25.8374 H   0  0  0  0  0  0  0  0  0  0  0  0
    8.2264   14.1919   24.4728 H   0  0  0  0  0  0  0  0  0  0  0  0
    5.5828    9.1943   26.0699 H   0  0  0  0  0  0  0  0  0  0  0  0
    5.5517    8.9438   24.3103 H   0  0  0  0  0  0  0  0  0  0  0  0
    4.2812    9.9045   25.0892 H   0  0  0  0  0  0  0  0  0  0  0  0
   11.1891   12.6300   23.6824 H   0  0  0  0  0  0  0  0  0  0  0  0
  1  2  1  0  0  0  0
  1  3  2  0  0  0  0
  2  4  2  0  0  0  0
  3  5  1  0  0  0  0
  4  8  1  0  0  0  0
  5  8  2  0  0  0  0
  6  7  2  0  0  0  0
  6  9  1  0  0  0  0
  7 11  1  0  0  0  0
  8 10  1  0  0  0  0
  9 12  2  0  0  0  0
  9 19  1  0  0  0  0
 10 13  2  0  0  0  0
 10 21  1  0  0  0  0
 11 22  2  0  0  0  0
 11 26  1  0  0  0  0
 12 22  1  0  0  0  0
 12 27  1  0  0  0  0
 13 23  1  0  0  0  0
 13 24  1  0  0  0  0
 14 18  1  0  0  0  0
 14 21  2  0  0  0  0
 14 23  1  0  0  0  0
 15 16  1  0  0  0  0
 15 17  2  0  0  0  0
 16 18  2  0  0  0  0
 17 23  1  0  0  0  0
 18 20  1  0  0  0  0
 19 24  1  0  0  0  0
 19 25  2  0  0  0  0
  1 28  1  0  0  0  0
  2 29  1  0  0  0  0
  3 30  1  0  0  0  0
  4 31  1  0  0  0  0
  5 32  1  0  0  0  0
  6 33  1  0  0  0  0
  7 34  1  0  0  0  0
 15 35  1  0  0  0  0
 16 36  1  0  0  0  0
 17 37  1  0  0  0  0
 20 38  1  0  0  0  0
 20 39  1  0  0  0  0
 20 40  1  0  0  0  0
 24 41  1  0  0  0  0
M  END
> <id>
EN300-26616560

> <smiles>
CC1=CC=CN2C(NC(=O)C=3C=CC(Cl)=NC3Cl)=C(N=C12)C=4C=CC=CC4

> <IUPAC Name>
2,6-dichloro-N-{8-methyl-2-phenylimidazo[1,2-a]pyridin-3-yl}pyridine-3-carboxamide

> <CAS>
1223222-29-4

> <URL>
https://www.enaminestore.com/catalog/EN300-26616560

> <ROCS_ShapeQuery>
x0446_0A_x1080_0A_x0929_0A_x0812_0A_x0719_0A_x1140_0A_x0528_0A_x0310_0A

> <ROCS_TanimotoCombo>
0.412 

> <ROCS_ShapeTanimoto>
0.262 

> <ROCS_ColorTanimoto>
0.150 

> <ROCS_RefTversky>
0.239 

> <ROCS_RefColorTversky>
0.168 

> <ROCS_RefTverskyCombo>
0.407 

> <ROCS_FitTversky>
1.565 

> <ROCS_FitColorTversky>
0.577 

> <ROCS_FitTverskyCombo>
2.142 

> <ROCS_ColorScore>
-6.019

> <ROCS_Overlap>
2829.622

> <ROCS_Rank>
416                 

$$$$
untitled-dbase-498354_3
  -OEChem-02082415563D

 29 30  0     1  0  0  0  0  0999 V2000
   12.3863   16.0253   21.2948 C   0  0  0  0  0  0  0  0  0  0  0  0
   12.6378   14.7120   21.3295 C   0  0  0  0  0  0  0  0  0  0  0  0
    7.4812   13.4276   22.9522 C   0  0  0  0  0  0  0  0  0  0  0  0
   10.5546   13.2239   23.1373 C   0  0  0  0  0  0  0  0  0  0  0  0
    7.6822   10.9373   22.9348 C   0  0  0  0  0  0  0  0  0  0  0  0
   10.0348   10.7592   23.1121 C   0  0  0  0  0  0  0  0  0  0  0  0
    8.1807   11.9598   24.9660 C   0  0  0  0  0  0  0  0  0  0  0  0
    8.7437   10.1306   23.6528 C   0  0  1  0  0  0  0  0  0  0  0  0
    8.2412   12.2544   23.4731 C   0  0  2  0  0  0  0  0  0  0  0  0
   12.7592   13.9193   22.5884 C   0  0  0  0  0  0  0  0  0  0  0  0
    9.6509   12.1737   23.0732 N   0  0  0  0  0  0  0  0  0  0  0  0
    7.3644   13.7201   21.7715 O   0  0  0  0  0  0  0  0  0  0  0  0
   10.3074   14.3268   23.6188 O   0  0  0  0  0  0  0  0  0  0  0  0
    8.5834   10.5593   25.0346 O   0  0  0  0  0  0  0  0  0  0  0  0
    6.9345   14.1346   23.9713 O   0  0  0  0  0  0  0  0  0  0  0  0
   11.7624   12.8913   22.5829 O   0  0  0  0  0  0  0  0  0  0  0  0
   12.3061   16.5631   20.3567 H   0  0  0  0  0  0  0  0  0  0  0  0
   12.2563   16.5841   22.2152 H   0  0  0  0  0  0  0  0  0  0  0  0
   12.7720   14.1823   20.3899 H   0  0  0  0  0  0  0  0  0  0  0  0
    7.7134   10.8502   21.8431 H   0  0  0  0  0  0  0  0  0  0  0  0
    6.6659   10.7327   23.2908 H   0  0  0  0  0  0  0  0  0  0  0  0
   10.8896   10.6169   23.7796 H   0  0  0  0  0  0  0  0  0  0  0  0
   10.2735   10.4364   22.0944 H   0  0  0  0  0  0  0  0  0  0  0  0
    8.8651   12.5662   25.5677 H   0  0  0  0  0  0  0  0  0  0  0  0
    7.1709   12.0484   25.3808 H   0  0  0  0  0  0  0  0  0  0  0  0
    8.6825    9.0449   23.5628 H   0  0  0  0  0  0  0  0  0  0  0  0
   12.6185   14.5370   23.4810 H   0  0  0  0  0  0  0  0  0  0  0  0
   13.7461   13.4487   22.6363 H   0  0  0  0  0  0  0  0  0  0  0  0
    6.4313   14.9125   23.6490 H   0  0  0  0  0  0  0  0  0  0  0  0
  1  2  2  0  0  0  0
  2 10  1  0  0  0  0
  3  9  1  0  0  0  0
  3 12  2  0  0  0  0
  3 15  1  0  0  0  0
  4 11  1  0  0  0  0
  4 13  2  0  0  0  0
  4 16  1  0  0  0  0
  5  8  1  0  0  0  0
  5  9  1  0  0  0  0
  6  8  1  0  0  0  0
  6 11  1  0  0  0  0
  7  9  1  0  0  0  0
  7 14  1  0  0  0  0
  8 14  1  0  0  0  0
  9 11  1  0  0  0  0
 10 16  1  0  0  0  0
  1 17  1  0  0  0  0
  1 18  1  0  0  0  0
  2 19  1  0  0  0  0
  5 20  1  0  0  0  0
  5 21  1  0  0  0  0
  6 22  1  0  0  0  0
  6 23  1  0  0  0  0
  7 24  1  0  0  0  0
  7 25  1  0  0  0  0
  8 26  1  0  0  0  0
 10 27  1  0  0  0  0
 10 28  1  0  0  0  0
 15 29  1  0  0  0  0
M  END
> <id>
EN300-28274853

> <smiles>
OC(=O)C1(COC2CN1C(=O)OCC=C)C2

> <IUPAC Name>
5-[(prop-2-en-1-yloxy)carbonyl]-2-oxa-5-azabicyclo[2.2.1]heptane-4-carboxylic acid

> <CAS>
2680545-37-1

> <URL>
https://www.enaminestore.com/catalog/EN300-28274853

> <ROCS_ShapeQuery>
x0446_0A_x1080_0A_x0929_0A_x0812_0A_x0719_0A_x1140_0A_x0528_0A_x0310_0A

> <ROCS_TanimotoCombo>
0.412 

> <ROCS_ShapeTanimoto>
0.232 

> <ROCS_ColorTanimoto>
0.180 

> <ROCS_RefTversky>
0.209 

> <ROCS_RefColorTversky>
0.211 

> <ROCS_RefTverskyCombo>
0.419 

> <ROCS_FitTversky>
1.883 

> <ROCS_FitColorTversky>
0.554 

> <ROCS_FitTverskyCombo>
2.436 

> <ROCS_ColorScore>
-7.574

> <ROCS_Overlap>
2464.159

> <ROCS_Rank>
417                 

$$$$
untitled-dbase-125564_2
  -OEChem-02082415563D

 26 27  0     0  0  0  0  0  0999 V2000
    5.7224   16.2991   24.4329 C   0  0  0  0  0  0  0  0  0  0  0  0
    6.2870   15.9594   25.6623 C   0  0  0  0  0  0  0  0  0  0  0  0
    6.3109   15.8550   23.2487 C   0  0  0  0  0  0  0  0  0  0  0  0
    7.4400   15.1758   25.7076 C   0  0  0  0  0  0  0  0  0  0  0  0
    8.2700   11.1700   24.8341 C   0  0  0  0  0  0  0  0  0  0  0  0
    7.4640   15.0714   23.2940 C   0  0  0  0  0  0  0  0  0  0  0  0
    8.0285   14.7318   24.5234 C   0  0  0  0  0  0  0  0  0  0  0  0
    9.0651   12.0992   24.1369 C   0  0  0  0  0  0  0  0  0  0  0  0
    9.4464   11.4368   22.9957 C   0  0  0  0  0  0  0  0  0  0  0  0
    8.1522   10.0060   24.1897 N   0  0  0  0  0  0  0  0  0  0  0  0
    8.8784   10.1994   23.0756 N   0  0  0  0  0  0  0  0  0  0  0  0
   10.2036   11.7755   21.9344 N   0  0  0  0  0  0  0  0  0  0  0  0
    8.0403   14.6343   22.0690 N   0  3  0  0  0  0  0  0  0  0  0  0
    8.9028   15.3552   21.5144 O   0  5  0  0  0  0  0  0  0  0  0  0
    7.6680   13.5414   21.5808 O   0  0  0  0  0  0  0  0  0  0  0  0
   10.4043   14.2915   23.6497 O   0  0  0  0  0  0  0  0  0  0  0  0
    9.8708   13.6431   26.0259 O   0  0  0  0  0  0  0  0  0  0  0  0
    9.4758   13.7498   24.6294 S   0  0  0  0  0  0  0  0  0  0  0  0
    4.8245   16.9091   24.3978 H   0  0  0  0  0  0  0  0  0  0  0  0
    5.8286   16.3047   26.5844 H   0  0  0  0  0  0  0  0  0  0  0  0
    5.8588   16.1294   22.2985 H   0  0  0  0  0  0  0  0  0  0  0  0
    7.8697   14.9179   26.6722 H   0  0  0  0  0  0  0  0  0  0  0  0
    7.7702   11.2899   25.7850 H   0  0  0  0  0  0  0  0  0  0  0  0
    8.9450    9.4413   22.4081 H   0  0  0  0  0  0  0  0  0  0  0  0
   10.6069   12.7193   21.8237 H   0  0  0  0  0  0  0  0  0  0  0  0
   10.3424   11.1413   21.1317 H   0  0  0  0  0  0  0  0  0  0  0  0
  1  2  1  0  0  0  0
  1  3  2  0  0  0  0
  2  4  2  0  0  0  0
  3  6  1  0  0  0  0
  4  7  1  0  0  0  0
  5  8  1  0  0  0  0
  5 10  2  0  0  0  0
  6  7  2  0  0  0  0
  6 13  1  0  0  0  0
  7 18  1  0  0  0  0
  8  9  2  0  0  0  0
  8 18  1  0  0  0  0
  9 11  1  0  0  0  0
  9 12  1  0  0  0  0
 10 11  1  0  0  0  0
 13 14  1  0  0  0  0
 13 15  2  0  0  0  0
 16 18  2  0  0  0  0
 17 18  2  0  0  0  0
  1 19  1  0  0  0  0
  2 20  1  0  0  0  0
  3 21  1  0  0  0  0
  4 22  1  0  0  0  0
  5 23  1  0  0  0  0
 11 24  1  0  0  0  0
 12 25  1  0  0  0  0
 12 26  1  0  0  0  0
M  CHG  2  13   1  14  -1
M  END
> <id>
EN300-1144171

> <smiles>
NC=1NN=CC1S(=O)(=O)C=2C=CC=CC2[N+](=O)[O-]

> <MDLNUMBER>
MFCD24801823

> <IUPAC Name>
4-(2-nitrobenzenesulfonyl)-1H-pyrazol-5-amine

> <URL>
https://www.enaminestore.com/catalog/EN300-1144171

> <ROCS_ShapeQuery>
x0446_0A_x1080_0A_x0929_0A_x0812_0A_x0719_0A_x1140_0A_x0528_0A_x0310_0A

> <ROCS_TanimotoCombo>
0.412 

> <ROCS_ShapeTanimoto>
0.195 

> <ROCS_ColorTanimoto>
0.216 

> <ROCS_RefTversky>
0.183 

> <ROCS_RefColorTversky>
0.234 

> <ROCS_RefTverskyCombo>
0.417 

> <ROCS_FitTversky>
1.555 

> <ROCS_FitColorTversky>
0.737 

> <ROCS_FitTverskyCombo>
2.292 

> <ROCS_ColorScore>
-8.396

> <ROCS_Overlap>
2155.275

> <ROCS_Rank>
418                 

$$$$
untitled-dbase-287042_7
  -OEChem-02082415563D

 49 53  0     1  0  0  0  0  0999 V2000
    5.4811   19.5420   20.8917 C   0  0  0  0  0  0  0  0  0  0  0  0
    6.8776   19.7028   20.7711 C   0  0  0  0  0  0  0  0  0  0  0  0
    4.9202   18.2900   21.1606 C   0  0  0  0  0  0  0  0  0  0  0  0
    7.7437   18.6152   20.9169 C   0  0  0  0  0  0  0  0  0  0  0  0
    5.7916   17.2310   21.3040 C   0  0  0  0  0  0  0  0  0  0  0  0
    7.1707   17.3898   21.1849 C   0  0  0  0  0  0  0  0  0  0  0  0
    5.5198   15.8158   21.5754 C   0  0  0  0  0  0  0  0  0  0  0  0
    7.7967   16.0779   21.3784 C   0  0  0  0  0  0  0  0  0  0  0  0
    7.0763   13.6896   23.3057 C   0  0  0  0  0  0  0  0  0  0  0  0
    8.1125   12.2609   25.0644 C   0  0  0  0  0  0  0  0  0  0  0  0
    8.3427    9.7948   24.6764 C   0  0  0  0  0  0  0  0  0  0  0  0
   10.3792   11.2589   24.6829 C   0  0  0  0  0  0  0  0  0  0  0  0
    7.2988   11.2511   22.9140 C   0  0  0  0  0  0  0  0  0  0  0  0
    9.3386   12.7164   22.9203 C   0  0  0  0  0  0  0  0  0  0  0  0
    9.5700   10.2448   22.5302 C   0  0  0  0  0  0  0  0  0  0  0  0
    8.9972   11.0302   25.3162 C   0  0  0  0  0  0  0  0  0  0  0  0
    7.9508   12.4928   23.5509 C   0  0  0  0  0  0  0  0  0  0  0  0
    8.1753    9.9999   23.1532 C   0  0  1  0  0  0  0  0  0  0  0  0
   10.2444   11.4866   23.1600 C   0  0  2  0  0  0  0  0  0  0  0  0
    7.5221    8.7671   22.5217 C   0  0  0  0  0  0  0  0  0  0  0  0
   11.6236   11.7147   22.5346 C   0  0  0  0  0  0  0  0  0  0  0  0
    6.7530   15.2470   21.6417 N   0  0  0  0  0  0  0  0  0  0  0  0
    4.4134   15.3331   21.7161 O   0  0  0  0  0  0  0  0  0  0  0  0
    8.9908   15.8602   21.3197 O   0  0  0  0  0  0  0  0  0  0  0  0
    6.5768   14.3659   24.1951 O   0  0  0  0  0  0  0  0  0  0  0  0
    6.9377   13.8843   21.9624 O   0  0  0  0  0  0  0  0  0  0  0  0
    4.8332   20.4066   20.7718 H   0  0  0  0  0  0  0  0  0  0  0  0
    7.2839   20.6887   20.5602 H   0  0  0  0  0  0  0  0  0  0  0  0
    3.8473   18.1673   21.2505 H   0  0  0  0  0  0  0  0  0  0  0  0
    8.8158   18.7393   20.8213 H   0  0  0  0  0  0  0  0  0  0  0  0
    7.1322   12.1175   25.5379 H   0  0  0  0  0  0  0  0  0  0  0  0
    8.5559   13.1453   25.5407 H   0  0  0  0  0  0  0  0  0  0  0  0
    8.9578    8.9076   24.8746 H   0  0  0  0  0  0  0  0  0  0  0  0
    7.3666    9.6115   25.1439 H   0  0  0  0  0  0  0  0  0  0  0  0
   10.8617   12.1247   25.1547 H   0  0  0  0  0  0  0  0  0  0  0  0
   11.0236   10.3928   24.8817 H   0  0  0  0  0  0  0  0  0  0  0  0
    6.2952   11.0961   23.3336 H   0  0  0  0  0  0  0  0  0  0  0  0
    7.1544   11.4122   21.8367 H   0  0  0  0  0  0  0  0  0  0  0  0
    9.2380   12.9060   21.8427 H   0  0  0  0  0  0  0  0  0  0  0  0
    9.8024   13.6177   23.3441 H   0  0  0  0  0  0  0  0  0  0  0  0
   10.2048    9.3607   22.6773 H   0  0  0  0  0  0  0  0  0  0  0  0
    9.4748   10.3822   21.4446 H   0  0  0  0  0  0  0  0  0  0  0  0
    9.1084   10.8708   26.3946 H   0  0  0  0  0  0  0  0  0  0  0  0
    7.4092    8.9218   21.4513 H   0  0  0  0  0  0  0  0  0  0  0  0
    6.5436    8.6042   22.9670 H   0  0  0  0  0  0  0  0  0  0  0  0
    8.1466    7.8940   22.6953 H   0  0  0  0  0  0  0  0  0  0  0  0
   11.5173   11.8737   21.4642 H   0  0  0  0  0  0  0  0  0  0  0  0
   12.2516   10.8442   22.7085 H   0  0  0  0  0  0  0  0  0  0  0  0
   12.0880   12.5893   22.9841 H   0  0  0  0  0  0  0  0  0  0  0  0
  1  2  1  0  0  0  0
  1  3  2  0  0  0  0
  2  4  2  0  0  0  0
  3  5  1  0  0  0  0
  4  6  1  0  0  0  0
  5  6  2  0  0  0  0
  5  7  1  0  0  0  0
  6  8  1  0  0  0  0
  7 22  1  0  0  0  0
  7 23  2  0  0  0  0
  8 22  1  0  0  0  0
  8 24  2  0  0  0  0
  9 17  1  0  0  0  0
  9 25  2  0  0  0  0
  9 26  1  0  0  0  0
 10 16  1  0  0  0  0
 10 17  1  0  0  0  0
 11 16  1  0  0  0  0
 11 18  1  0  0  0  0
 12 16  1  0  0  0  0
 12 19  1  0  0  0  0
 13 17  1  0  0  0  0
 13 18  1  0  0  0  0
 14 17  1  0  0  0  0
 14 19  1  0  0  0  0
 15 18  1  0  0  0  0
 15 19  1  0  0  0  0
 18 20  1  0  0  0  0
 19 21  1  0  0  0  0
 22 26  1  0  0  0  0
  1 27  1  0  0  0  0
  2 28  1  0  0  0  0
  3 29  1  0  0  0  0
  4 30  1  0  0  0  0
 10 31  1  0  0  0  0
 10 32  1  0  0  0  0
 11 33  1  0  0  0  0
 11 34  1  0  0  0  0
 12 35  1  0  0  0  0
 12 36  1  0  0  0  0
 13 37  1  0  0  0  0
 13 38  1  0  0  0  0
 14 39  1  0  0  0  0
 14 40  1  0  0  0  0
 15 41  1  0  0  0  0
 15 42  1  0  0  0  0
 16 43  1  0  0  0  0
 20 44  1  0  0  0  0
 20 45  1  0  0  0  0
 20 46  1  0  0  0  0
 21 47  1  0  0  0  0
 21 48  1  0  0  0  0
 21 49  1  0  0  0  0
M  END
> <id>
EN300-6519214

> <smiles>
CC1(CC2CC3(C)C1)CC(C2)(C3)C(=O)ON4C(=O)C=5C=CC=CC5C4=O

> <IUPAC Name>
1,3-dioxo-2,3-dihydro-1H-isoindol-2-yl 3,5-dimethyladamantane-1-carboxylate

> <CAS>
2237960-07-3

> <URL>
https://www.enaminestore.com/catalog/EN300-6519214

> <ROCS_ShapeQuery>
x0446_0A_x1080_0A_x0929_0A_x0812_0A_x0719_0A_x1140_0A_x0528_0A_x0310_0A

> <ROCS_TanimotoCombo>
0.411 

> <ROCS_ShapeTanimoto>
0.227 

> <ROCS_ColorTanimoto>
0.184 

> <ROCS_RefTversky>
0.213 

> <ROCS_RefColorTversky>
0.211 

> <ROCS_RefTverskyCombo>
0.424 

> <ROCS_FitTversky>
1.412 

> <ROCS_FitColorTversky>
0.593 

> <ROCS_FitTverskyCombo>
2.005 

> <ROCS_ColorScore>
-7.562

> <ROCS_Overlap>
2520.701

> <ROCS_Rank>
419                 

$$$$
untitled-dbase-160565_0
  -OEChem-02082415563D

 31 34  0     0  0  0  0  0  0999 V2000
    9.5304   14.2088   22.6621 C   0  0  0  0  0  0  0  0  0  0  0  0
    8.6603    9.9507   22.6678 C   0  0  0  0  0  0  0  0  0  0  0  0
    6.9609   11.0380   24.1560 C   0  0  0  0  0  0  0  0  0  0  0  0
    9.2700   10.5794   25.0162 C   0  0  0  0  0  0  0  0  0  0  0  0
    7.9420   12.3120   22.2341 C   0  0  0  0  0  0  0  0  0  0  0  0
   10.2530   11.8427   23.0847 C   0  0  0  0  0  0  0  0  0  0  0  0
    8.5379   12.9401   24.5867 C   0  0  0  0  0  0  0  0  0  0  0  0
    7.4759   10.9264   22.7141 C   0  0  0  0  0  0  0  0  0  0  0  0
    9.7898   10.4593   23.5743 C   0  0  0  0  0  0  0  0  0  0  0  0
    8.0810   11.5527   25.0708 C   0  0  0  0  0  0  0  0  0  0  0  0
    9.0867   12.8737   23.1309 C   0  0  0  0  0  0  0  0  0  0  0  0
    8.9860   14.8370   21.5815 N   0  0  0  0  0  0  0  0  0  0  0  0
   10.5005   14.9017   23.2638 N   0  0  0  0  0  0  0  0  0  0  0  0
    9.6277   15.9934   21.4693 N   0  0  0  0  0  0  0  0  0  0  0  0
   10.5093   15.9882   22.4788 N   0  0  0  0  0  0  0  0  0  0  0  0
    8.3379    8.9538   22.9927 H   0  0  0  0  0  0  0  0  0  0  0  0
    9.0226    9.8480   21.6375 H   0  0  0  0  0  0  0  0  0  0  0  0
    6.1007   11.7174   24.1965 H   0  0  0  0  0  0  0  0  0  0  0  0
    6.6101   10.0593   24.5058 H   0  0  0  0  0  0  0  0  0  0  0  0
    8.9628    9.5932   25.3858 H   0  0  0  0  0  0  0  0  0  0  0  0
   10.0727   10.9302   25.6764 H   0  0  0  0  0  0  0  0  0  0  0  0
    8.2808   12.2453   21.1911 H   0  0  0  0  0  0  0  0  0  0  0  0
    7.0909   13.0066   22.2332 H   0  0  0  0  0  0  0  0  0  0  0  0
   11.0866   12.1929   23.7084 H   0  0  0  0  0  0  0  0  0  0  0  0
   10.6466   11.7615   22.0625 H   0  0  0  0  0  0  0  0  0  0  0  0
    7.6993   13.6472   24.6436 H   0  0  0  0  0  0  0  0  0  0  0  0
    9.3132   13.3275   25.2614 H   0  0  0  0  0  0  0  0  0  0  0  0
    6.6731   10.5629   22.0630 H   0  0  0  0  0  0  0  0  0  0  0  0
   10.6314    9.7580   23.5435 H   0  0  0  0  0  0  0  0  0  0  0  0
    7.7122   11.6257   26.1000 H   0  0  0  0  0  0  0  0  0  0  0  0
   11.1471   16.7605   22.6392 H   0  0  0  0  0  0  0  0  0  0  0  0
  1 11  1  0  0  0  0
  1 12  1  0  0  0  0
  1 13  2  0  0  0  0
  2  8  1  0  0  0  0
  2  9  1  0  0  0  0
  3  8  1  0  0  0  0
  3 10  1  0  0  0  0
  4  9  1  0  0  0  0
  4 10  1  0  0  0  0
  5  8  1  0  0  0  0
  5 11  1  0  0  0  0
  6  9  1  0  0  0  0
  6 11  1  0  0  0  0
  7 10  1  0  0  0  0
  7 11  1  0  0  0  0
 12 14  2  0  0  0  0
 13 15  1  0  0  0  0
 14 15  1  0  0  0  0
  2 16  1  0  0  0  0
  2 17  1  0  0  0  0
  3 18  1  0  0  0  0
  3 19  1  0  0  0  0
  4 20  1  0  0  0  0
  4 21  1  0  0  0  0
  5 22  1  0  0  0  0
  5 23  1  0  0  0  0
  6 24  1  0  0  0  0
  6 25  1  0  0  0  0
  7 26  1  0  0  0  0
  7 27  1  0  0  0  0
  8 28  1  0  0  0  0
  9 29  1  0  0  0  0
 10 30  1  0  0  0  0
 15 31  1  0  0  0  0
M  END
> <id>
EN300-229315

> <smiles>
C1C2CC3CC1CC(C2)(C3)C=4N=NNN4

> <MDLNUMBER>
MFCD04045732

> <IUPAC Name>
5-(adamantan-1-yl)-2H-1,2,3,4-tetrazole

> <CAS>
60798-89-2

> <URL>
https://www.enaminestore.com/catalog/EN300-229315

> <ROCS_ShapeQuery>
x0446_0A_x1080_0A_x0929_0A_x0812_0A_x0719_0A_x1140_0A_x0528_0A_x0310_0A

> <ROCS_TanimotoCombo>
0.411 

> <ROCS_ShapeTanimoto>
0.207 

> <ROCS_ColorTanimoto>
0.205 

> <ROCS_RefTversky>
0.190 

> <ROCS_RefColorTversky>
0.236 

> <ROCS_RefTverskyCombo>
0.426 

> <ROCS_FitTversky>
1.741 

> <ROCS_FitColorTversky>
0.605 

> <ROCS_FitTverskyCombo>
2.346 

> <ROCS_ColorScore>
-8.494

> <ROCS_Overlap>
2241.722

> <ROCS_Rank>
420                 

$$$$
untitled-dbase-503895_0
  -OEChem-02082415563D

 36 38  0     1  0  0  0  0  0999 V2000
    6.2049   10.6727   25.2760 C   0  0  0  0  0  0  0  0  0  0  0  0
   10.2713   14.6216   21.6585 C   0  0  0  0  0  0  0  0  0  0  0  0
   10.3657   11.0510   24.2448 C   0  0  0  0  0  0  0  0  0  0  0  0
    9.1055   10.7511   22.0957 C   0  0  0  0  0  0  0  0  0  0  0  0
    8.2283    9.7388   24.2151 C   0  0  0  0  0  0  0  0  0  0  0  0
    8.3083   11.9903   25.3239 C   0  0  0  0  0  0  0  0  0  0  0  0
    7.0439   11.6868   23.1709 C   0  0  0  0  0  0  0  0  0  0  0  0
    9.5025   10.0791   23.4217 C   0  0  0  0  0  0  0  0  0  0  0  0
    9.5823   12.3479   24.5328 C   0  0  2  0  0  0  0  0  0  0  0  0
    8.3124   12.0451   22.3700 C   0  0  1  0  0  0  0  0  0  0  0  0
    9.1612   13.0265   23.2096 C   0  0  0  0  0  0  0  0  0  0  0  0
    7.4431   11.0263   24.4998 C   0  0  0  0  0  0  0  0  0  0  0  0
   11.5707   14.9314   20.9924 C   0  0  0  0  0  0  0  0  0  0  0  0
   10.3072   13.5034   22.4699 N   0  0  0  0  0  0  0  0  0  0  0  0
    5.8890    9.5425   25.6168 O   0  0  0  0  0  0  0  0  0  0  0  0
    9.3015   15.3428   21.4562 O   0  0  0  0  0  0  0  0  0  0  0  0
    5.4771   11.7834   25.5482 O   0  0  0  0  0  0  0  0  0  0  0  0
   10.6596   10.5780   25.1901 H   0  0  0  0  0  0  0  0  0  0  0  0
   11.2939   11.2767   23.7062 H   0  0  0  0  0  0  0  0  0  0  0  0
   10.0017   10.9700   21.5031 H   0  0  0  0  0  0  0  0  0  0  0  0
    8.4956   10.0624   21.4978 H   0  0  0  0  0  0  0  0  0  0  0  0
    7.6134    9.0271   23.6486 H   0  0  0  0  0  0  0  0  0  0  0  0
    8.4959    9.2341   25.1528 H   0  0  0  0  0  0  0  0  0  0  0  0
    8.5834   11.5377   26.2858 H   0  0  0  0  0  0  0  0  0  0  0  0
    7.7469   12.9027   25.5641 H   0  0  0  0  0  0  0  0  0  0  0  0
    6.4483   12.5908   23.3544 H   0  0  0  0  0  0  0  0  0  0  0  0
    6.4077   11.0151   22.5796 H   0  0  0  0  0  0  0  0  0  0  0  0
   10.0671    9.1624   23.2185 H   0  0  0  0  0  0  0  0  0  0  0  0
   10.1978   13.0302   25.1310 H   0  0  0  0  0  0  0  0  0  0  0  0
    8.0195   12.5110   21.4216 H   0  0  0  0  0  0  0  0  0  0  0  0
    8.5679   13.9220   23.4324 H   0  0  0  0  0  0  0  0  0  0  0  0
   11.6701   14.4359   20.0133 H   0  0  0  0  0  0  0  0  0  0  0  0
   11.6923   16.0073   20.7879 H   0  0  0  0  0  0  0  0  0  0  0  0
   12.4710   14.6405   21.5570 H   0  0  0  0  0  0  0  0  0  0  0  0
   11.1812   12.9921   22.5501 H   0  0  0  0  0  0  0  0  0  0  0  0
    4.6628   11.5732   26.0533 H   0  0  0  0  0  0  0  0  0  0  0  0
  1 12  1  0  0  0  0
  1 15  2  0  0  0  0
  1 17  1  0  0  0  0
  2 13  1  0  0  0  0
  2 14  1  0  0  0  0
  2 16  2  0  0  0  0
  3  8  1  0  0  0  0
  3  9  1  0  0  0  0
  4  8  1  0  0  0  0
  4 10  1  0  0  0  0
  5  8  1  0  0  0  0
  5 12  1  0  0  0  0
  6  9  1  0  0  0  0
  6 12  1  0  0  0  0
  7 10  1  0  0  0  0
  7 12  1  0  0  0  0
  9 11  1  0  0  0  0
 10 11  1  0  0  0  0
 11 14  1  0  0  0  0
  3 18  1  0  0  0  0
  3 19  1  0  0  0  0
  4 20  1  0  0  0  0
  4 21  1  0  0  0  0
  5 22  1  0  0  0  0
  5 23  1  0  0  0  0
  6 24  1  0  0  0  0
  6 25  1  0  0  0  0
  7 26  1  0  0  0  0
  7 27  1  0  0  0  0
  8 28  1  0  0  0  0
  9 29  1  0  0  0  0
 10 30  1  0  0  0  0
 11 31  1  0  0  0  0
 13 32  1  0  0  0  0
 13 33  1  0  0  0  0
 13 34  1  0  0  0  0
 14 35  1  0  0  0  0
 17 36  1  0  0  0  0
M  END
> <id>
EN300-28276441

> <smiles>
CC(=O)NC1C2CC3CC1CC(C3)(C2)C(=O)O

> <IUPAC Name>
4-acetamidoadamantane-1-carboxylic acid

> <CAS>
2680692-75-3

> <URL>
https://www.enaminestore.com/catalog/EN300-28276441

> <ROCS_ShapeQuery>
x0446_0A_x1080_0A_x0929_0A_x0812_0A_x0719_0A_x1140_0A_x0528_0A_x0310_0A

> <ROCS_TanimotoCombo>
0.411 

> <ROCS_ShapeTanimoto>
0.221 

> <ROCS_ColorTanimoto>
0.190 

> <ROCS_RefTversky>
0.202 

> <ROCS_RefColorTversky>
0.217 

> <ROCS_RefTverskyCombo>
0.418 

> <ROCS_FitTversky>
1.766 

> <ROCS_FitColorTversky>
0.610 

> <ROCS_FitTverskyCombo>
2.376 

> <ROCS_ColorScore>
-7.784

> <ROCS_Overlap>
2378.867

> <ROCS_Rank>
421                 

$$$$
untitled-dbase-348767_2
  -OEChem-02082415563D

 45 47  0     0  0  0  0  0  0999 V2000
    5.7259   14.4289   26.0987 C   0  0  0  0  0  0  0  0  0  0  0  0
    6.5655   13.3434   25.8492 C   0  0  0  0  0  0  0  0  0  0  0  0
    5.2601   15.2082   25.0398 C   0  0  0  0  0  0  0  0  0  0  0  0
    6.4736   13.8165   23.4818 C   0  0  0  0  0  0  0  0  0  0  0  0
    7.6407   10.5777   24.5551 C   0  0  0  0  0  0  0  0  0  0  0  0
    6.9394   13.0372   24.5408 C   0  0  0  0  0  0  0  0  0  0  0  0
    5.6340   14.9021   23.7313 C   0  0  0  0  0  0  0  0  0  0  0  0
    7.8074   11.9142   24.2824 C   0  0  0  0  0  0  0  0  0  0  0  0
    9.5498   10.7293   23.6092 C   0  0  0  0  0  0  0  0  0  0  0  0
   10.8203   10.5837   23.0151 C   0  0  0  0  0  0  0  0  0  0  0  0
   11.4566   11.6642   22.5514 C   0  0  0  0  0  0  0  0  0  0  0  0
   10.7917   13.0056   22.6809 C   0  0  0  0  0  0  0  0  0  0  0  0
   10.9030   15.2243   21.6518 C   0  0  0  0  0  0  0  0  0  0  0  0
   10.4562   18.0517   21.7264 C   0  0  0  0  0  0  0  0  0  0  0  0
   12.4879   18.2265   20.2598 C   0  0  0  0  0  0  0  0  0  0  0  0
   10.4562   16.9980   19.4407 C   0  0  0  0  0  0  0  0  0  0  0  0
   12.9610   13.9667   22.2229 C   0  0  0  0  0  0  0  0  0  0  0  0
   11.3019   17.3529   20.6628 C   0  0  0  0  0  0  0  0  0  0  0  0
    8.7233    9.8487   24.1358 N   0  0  0  0  0  0  0  0  0  0  0  0
    9.6096   13.1554   23.2319 N   0  0  0  0  0  0  0  0  0  0  0  0
    9.0327   12.0075   23.6761 N   0  0  0  0  0  0  0  0  0  0  0  0
   11.4990   14.0629   22.1865 N   0  0  0  0  0  0  0  0  0  0  0  0
    9.6898   15.4120   21.5715 O   0  0  0  0  0  0  0  0  0  0  0  0
    5.1793   15.6628   22.6984 O   0  0  0  0  0  0  0  0  0  0  0  0
   11.8272   16.1428   21.2208 O   0  0  0  0  0  0  0  0  0  0  0  0
    5.4345   14.6678   27.1174 H   0  0  0  0  0  0  0  0  0  0  0  0
    6.9207   12.7454   26.6851 H   0  0  0  0  0  0  0  0  0  0  0  0
    4.6064   16.0528   25.2407 H   0  0  0  0  0  0  0  0  0  0  0  0
    6.7598   13.5866   22.4574 H   0  0  0  0  0  0  0  0  0  0  0  0
    6.7974   10.0985   25.0319 H   0  0  0  0  0  0  0  0  0  0  0  0
   11.2685    9.5995   22.9395 H   0  0  0  0  0  0  0  0  0  0  0  0
   12.4334   11.5984   22.0875 H   0  0  0  0  0  0  0  0  0  0  0  0
    9.6038   17.4278   22.0183 H   0  0  0  0  0  0  0  0  0  0  0  0
   11.0427   18.2803   22.6221 H   0  0  0  0  0  0  0  0  0  0  0  0
   10.0363   18.9873   21.3395 H   0  0  0  0  0  0  0  0  0  0  0  0
   13.0975   17.7290   19.4969 H   0  0  0  0  0  0  0  0  0  0  0  0
   13.1494   18.4053   21.1152 H   0  0  0  0  0  0  0  0  0  0  0  0
   12.1614   19.1944   19.8659 H   0  0  0  0  0  0  0  0  0  0  0  0
   11.0626   16.4968   18.6776 H   0  0  0  0  0  0  0  0  0  0  0  0
    9.6212   16.3411   19.7050 H   0  0  0  0  0  0  0  0  0  0  0  0
   10.0526   17.9020   18.9703 H   0  0  0  0  0  0  0  0  0  0  0  0
   13.3220   13.5064   21.2914 H   0  0  0  0  0  0  0  0  0  0  0  0
   13.3921   14.9736   22.3252 H   0  0  0  0  0  0  0  0  0  0  0  0
   13.2665   13.3483   23.0798 H   0  0  0  0  0  0  0  0  0  0  0  0
    5.5240   15.3267   21.8558 H   0  0  0  0  0  0  0  0  0  0  0  0
  1  2  2  0  0  0  0
  1  3  1  0  0  0  0
  2  6  1  0  0  0  0
  3  7  2  0  0  0  0
  4  6  2  0  0  0  0
  4  7  1  0  0  0  0
  5  8  2  0  0  0  0
  5 19  1  0  0  0  0
  6  8  1  0  0  0  0
  7 24  1  0  0  0  0
  8 21  1  0  0  0  0
  9 10  1  0  0  0  0
  9 19  2  0  0  0  0
  9 21  1  0  0  0  0
 10 11  2  0  0  0  0
 11 12  1  0  0  0  0
 12 20  2  0  0  0  0
 12 22  1  0  0  0  0
 13 22  1  0  0  0  0
 13 23  2  0  0  0  0
 13 25  1  0  0  0  0
 14 18  1  0  0  0  0
 15 18  1  0  0  0  0
 16 18  1  0  0  0  0
 17 22  1  0  0  0  0
 18 25  1  0  0  0  0
 20 21  1  0  0  0  0
  1 26  1  0  0  0  0
  2 27  1  0  0  0  0
  3 28  1  0  0  0  0
  4 29  1  0  0  0  0
  5 30  1  0  0  0  0
 10 31  1  0  0  0  0
 11 32  1  0  0  0  0
 14 33  1  0  0  0  0
 14 34  1  0  0  0  0
 14 35  1  0  0  0  0
 15 36  1  0  0  0  0
 15 37  1  0  0  0  0
 15 38  1  0  0  0  0
 16 39  1  0  0  0  0
 16 40  1  0  0  0  0
 16 41  1  0  0  0  0
 17 42  1  0  0  0  0
 17 43  1  0  0  0  0
 17 44  1  0  0  0  0
 24 45  1  0  0  0  0
M  END
> <id>
EN300-26664910

> <smiles>
CN(C(=O)OC(C)(C)C)C=1C=CC2=NC=C(C=3C=CC=C(O)C3)N2N1

> <IUPAC Name>
tert-butyl N-[3-(3-hydroxyphenyl)imidazo[1,2-b]pyridazin-6-yl]-N-methylcarbamate

> <CAS>
2413876-70-5

> <URL>
https://www.enaminestore.com/catalog/EN300-26664910

> <ROCS_ShapeQuery>
x0446_0A_x1080_0A_x0929_0A_x0812_0A_x0719_0A_x1140_0A_x0528_0A_x0310_0A

> <ROCS_TanimotoCombo>
0.411 

> <ROCS_ShapeTanimoto>
0.262 

> <ROCS_ColorTanimoto>
0.149 

> <ROCS_RefTversky>
0.238 

> <ROCS_RefColorTversky>
0.171 

> <ROCS_RefTverskyCombo>
0.409 

> <ROCS_FitTversky>
1.632 

> <ROCS_FitColorTversky>
0.537 

> <ROCS_FitTverskyCombo>
2.169 

> <ROCS_ColorScore>
-6.117

> <ROCS_Overlap>
2815.890

> <ROCS_Rank>
422                 

$$$$
untitled-dbase-512736_0
  -OEChem-02082415563D

 37 39  0     0  0  0  0  0  0999 V2000
    7.2266   13.3525   22.8992 C   0  0  0  0  0  0  0  0  0  0  0  0
   12.7531   15.3529   22.3559 C   0  0  0  0  0  0  0  0  0  0  0  0
   10.2643   12.7337   21.9949 C   0  0  0  0  0  0  0  0  0  0  0  0
   10.1130   13.8549   24.2568 C   0  0  0  0  0  0  0  0  0  0  0  0
    8.0620   10.8048   23.0566 C   0  0  0  0  0  0  0  0  0  0  0  0
    7.9380   11.7255   24.9146 C   0  0  0  0  0  0  0  0  0  0  0  0
   11.7616   13.0448   21.9740 C   0  0  0  0  0  0  0  0  0  0  0  0
   11.6133   14.1370   24.1810 C   0  0  0  0  0  0  0  0  0  0  0  0
    8.1935   12.3264   23.4725 C   0  0  0  0  0  0  0  0  0  0  0  0
    9.7225   12.6244   23.4269 C   0  0  0  0  0  0  0  0  0  0  0  0
    8.9774   10.6927   24.3345 C   0  0  0  0  0  0  0  0  0  0  0  0
    9.2141    9.3727   25.0036 C   0  0  0  0  0  0  0  0  0  0  0  0
   13.7819   15.1412   21.2739 C   0  0  0  0  0  0  0  0  0  0  0  0
   12.0634   14.2222   22.7928 N   0  0  0  0  0  0  0  0  0  0  0  0
    7.0893   13.6000   21.7104 O   0  0  0  0  0  0  0  0  0  0  0  0
   12.5680   16.4903   22.7966 O   0  0  0  0  0  0  0  0  0  0  0  0
   10.2098   11.4210   24.0560 O   0  0  0  0  0  0  0  0  0  0  0  0
    6.5332   13.9633   23.8909 O   0  0  0  0  0  0  0  0  0  0  0  0
   13.8382   13.8440   20.9234 F   0  0  0  0  0  0  0  0  0  0  0  0
   13.4742   15.8609   20.1802 F   0  0  0  0  0  0  0  0  0  0  0  0
   15.0021   15.5174   21.6967 F   0  0  0  0  0  0  0  0  0  0  0  0
    9.7287   13.5185   21.4474 H   0  0  0  0  0  0  0  0  0  0  0  0
   10.1158   11.8006   21.4416 H   0  0  0  0  0  0  0  0  0  0  0  0
    9.8572   13.7206   25.3129 H   0  0  0  0  0  0  0  0  0  0  0  0
    9.5644   14.7372   23.9051 H   0  0  0  0  0  0  0  0  0  0  0  0
    7.0620   10.3586   23.1175 H   0  0  0  0  0  0  0  0  0  0  0  0
    8.5184   10.4957   22.1137 H   0  0  0  0  0  0  0  0  0  0  0  0
    8.2746   12.3093   25.7740 H   0  0  0  0  0  0  0  0  0  0  0  0
    6.9281   11.3535   25.1251 H   0  0  0  0  0  0  0  0  0  0  0  0
   12.3321   12.2067   22.3919 H   0  0  0  0  0  0  0  0  0  0  0  0
   12.0886   13.1694   20.9402 H   0  0  0  0  0  0  0  0  0  0  0  0
   11.8415   15.0602   24.7233 H   0  0  0  0  0  0  0  0  0  0  0  0
   12.1814   13.3307   24.6601 H   0  0  0  0  0  0  0  0  0  0  0  0
    9.8741    9.4814   25.8753 H   0  0  0  0  0  0  0  0  0  0  0  0
    9.6854    8.6571   24.3158 H   0  0  0  0  0  0  0  0  0  0  0  0
    8.2714    8.9289   25.3523 H   0  0  0  0  0  0  0  0  0  0  0  0
    5.9049   14.6307   23.5414 H   0  0  0  0  0  0  0  0  0  0  0  0
  1  9  1  0  0  0  0
  1 15  2  0  0  0  0
  1 18  1  0  0  0  0
  2 13  1  0  0  0  0
  2 14  1  0  0  0  0
  2 16  2  0  0  0  0
  3  7  1  0  0  0  0
  3 10  1  0  0  0  0
  4  8  1  0  0  0  0
  4 10  1  0  0  0  0
  5  9  1  0  0  0  0
  5 11  1  0  0  0  0
  6  9  1  0  0  0  0
  6 11  1  0  0  0  0
  7 14  1  0  0  0  0
  8 14  1  0  0  0  0
  9 10  1  0  0  0  0
 10 17  1  0  0  0  0
 11 12  1  0  0  0  0
 11 17  1  0  0  0  0
 13 19  1  0  0  0  0
 13 20  1  0  0  0  0
 13 21  1  0  0  0  0
  3 22  1  0  0  0  0
  3 23  1  0  0  0  0
  4 24  1  0  0  0  0
  4 25  1  0  0  0  0
  5 26  1  0  0  0  0
  5 27  1  0  0  0  0
  6 28  1  0  0  0  0
  6 29  1  0  0  0  0
  7 30  1  0  0  0  0
  7 31  1  0  0  0  0
  8 32  1  0  0  0  0
  8 33  1  0  0  0  0
 12 34  1  0  0  0  0
 12 35  1  0  0  0  0
 12 36  1  0  0  0  0
 18 37  1  0  0  0  0
M  END
> <id>
EN300-28291615

> <smiles>
CC1(CC2(C1)C(=O)O)OC32CCN(CC3)C(=O)C(F)(F)F

> <IUPAC Name>
4-methyl-1'-(2,2,2-trifluoroacetyl)-3-oxaspiro[bicyclo[2.1.1]hexane-2,4'-piperidine]-1-carboxylic acid

> <CAS>
2680829-52-9

> <URL>
https://www.enaminestore.com/catalog/EN300-28291615

> <ROCS_ShapeQuery>
x0446_0A_x1080_0A_x0929_0A_x0812_0A_x0719_0A_x1140_0A_x0528_0A_x0310_0A

> <ROCS_TanimotoCombo>
0.411 

> <ROCS_ShapeTanimoto>
0.230 

> <ROCS_ColorTanimoto>
0.182 

> <ROCS_RefTversky>
0.211 

> <ROCS_RefColorTversky>
0.213 

> <ROCS_RefTverskyCombo>
0.424 

> <ROCS_FitTversky>
1.623 

> <ROCS_FitColorTversky>
0.549 

> <ROCS_FitTverskyCombo>
2.172 

> <ROCS_ColorScore>
-7.676

> <ROCS_Overlap>
2492.426

> <ROCS_Rank>
423                 

$$$$
untitled-dbase-511303_5
  -OEChem-02082415563D

 44 46  0     0  0  0  0  0  0999 V2000
    5.3694   12.1005   24.8176 C   0  0  0  0  0  0  0  0  0  0  0  0
    5.7670   13.4348   24.8751 C   0  0  0  0  0  0  0  0  0  0  0  0
   12.2683   10.1197   23.0712 C   0  0  0  0  0  0  0  0  0  0  0  0
    6.2969   11.1068   24.5034 C   0  0  0  0  0  0  0  0  0  0  0  0
    7.0939   13.7811   24.6186 C   0  0  0  0  0  0  0  0  0  0  0  0
   10.9414    9.7733   23.3277 C   0  0  0  0  0  0  0  0  0  0  0  0
   12.6660   11.4540   23.1287 C   0  0  0  0  0  0  0  0  0  0  0  0
    7.6295   11.4500   24.2454 C   0  0  0  0  0  0  0  0  0  0  0  0
    8.0280   12.7872   24.3030 C   0  0  0  0  0  0  0  0  0  0  0  0
   10.0073   10.7673   23.6434 C   0  0  0  0  0  0  0  0  0  0  0  0
   10.4059   12.1044   23.7011 C   0  0  0  0  0  0  0  0  0  0  0  0
   11.7385   12.4476   23.4430 C   0  0  0  0  0  0  0  0  0  0  0  0
    8.6046   10.3912   23.9135 C   0  0  0  0  0  0  0  0  0  0  0  0
    9.4307   13.1632   24.0329 C   0  0  0  0  0  0  0  0  0  0  0  0
   11.6819   14.7800   22.6145 C   0  0  0  0  0  0  0  0  0  0  0  0
   11.1552   15.8800   20.0167 C   0  0  0  0  0  0  0  0  0  0  0  0
    8.9819   14.6259   20.1295 C   0  0  0  0  0  0  0  0  0  0  0  0
    9.4718   16.4323   21.8044 C   0  0  0  0  0  0  0  0  0  0  0  0
   13.3029   14.1683   24.4210 C   0  0  0  0  0  0  0  0  0  0  0  0
   10.0717   15.3244   20.9398 C   0  0  0  0  0  0  0  0  0  0  0  0
   12.2165   13.7618   23.4807 N   0  0  0  0  0  0  0  0  0  0  0  0
    8.2551    9.2184   23.8630 O   0  0  0  0  0  0  0  0  0  0  0  0
    9.7433   14.3458   24.0923 O   0  0  0  0  0  0  0  0  0  0  0  0
   12.0604   15.9490   22.6018 O   0  0  0  0  0  0  0  0  0  0  0  0
   10.6647   14.3444   21.8007 O   0  0  0  0  0  0  0  0  0  0  0  0
    4.3357   11.8336   25.0174 H   0  0  0  0  0  0  0  0  0  0  0  0
    5.0427   14.2065   25.1197 H   0  0  0  0  0  0  0  0  0  0  0  0
   12.9922    9.3479   22.8259 H   0  0  0  0  0  0  0  0  0  0  0  0
    5.9618   10.0739   24.4653 H   0  0  0  0  0  0  0  0  0  0  0  0
    7.3759   14.8293   24.6701 H   0  0  0  0  0  0  0  0  0  0  0  0
   10.6565    8.7258   23.2766 H   0  0  0  0  0  0  0  0  0  0  0  0
   13.7041   11.7057   22.9253 H   0  0  0  0  0  0  0  0  0  0  0  0
   11.9394   16.3822   20.5945 H   0  0  0  0  0  0  0  0  0  0  0  0
   11.6177   15.0899   19.4163 H   0  0  0  0  0  0  0  0  0  0  0  0
   10.7413   16.6337   19.3372 H   0  0  0  0  0  0  0  0  0  0  0  0
    8.2023   14.2256   20.7878 H   0  0  0  0  0  0  0  0  0  0  0  0
    9.3915   13.7702   19.5806 H   0  0  0  0  0  0  0  0  0  0  0  0
    8.5134   15.3065   19.4114 H   0  0  0  0  0  0  0  0  0  0  0  0
    8.6945   16.0340   22.4665 H   0  0  0  0  0  0  0  0  0  0  0  0
   10.2338   16.9204   22.4205 H   0  0  0  0  0  0  0  0  0  0  0  0
    8.9874   17.1932   21.1818 H   0  0  0  0  0  0  0  0  0  0  0  0
   14.2799   14.0306   23.9348 H   0  0  0  0  0  0  0  0  0  0  0  0
   13.1749   15.2263   24.6936 H   0  0  0  0  0  0  0  0  0  0  0  0
   13.2540   13.5476   25.3279 H   0  0  0  0  0  0  0  0  0  0  0  0
  1  2  1  0  0  0  0
  1  4  2  0  0  0  0
  2  5  2  0  0  0  0
  3  6  1  0  0  0  0
  3  7  2  0  0  0  0
  4  8  1  0  0  0  0
  5  9  1  0  0  0  0
  6 10  2  0  0  0  0
  7 12  1  0  0  0  0
  8  9  2  0  0  0  0
  8 13  1  0  0  0  0
  9 14  1  0  0  0  0
 10 11  1  0  0  0  0
 10 13  1  0  0  0  0
 11 12  2  0  0  0  0
 11 14  1  0  0  0  0
 12 21  1  0  0  0  0
 13 22  2  0  0  0  0
 14 23  2  0  0  0  0
 15 21  1  0  0  0  0
 15 24  2  0  0  0  0
 15 25  1  0  0  0  0
 16 20  1  0  0  0  0
 17 20  1  0  0  0  0
 18 20  1  0  0  0  0
 19 21  1  0  0  0  0
 20 25  1  0  0  0  0
  1 26  1  0  0  0  0
  2 27  1  0  0  0  0
  3 28  1  0  0  0  0
  4 29  1  0  0  0  0
  5 30  1  0  0  0  0
  6 31  1  0  0  0  0
  7 32  1  0  0  0  0
 16 33  1  0  0  0  0
 16 34  1  0  0  0  0
 16 35  1  0  0  0  0
 17 36  1  0  0  0  0
 17 37  1  0  0  0  0
 17 38  1  0  0  0  0
 18 39  1  0  0  0  0
 18 40  1  0  0  0  0
 18 41  1  0  0  0  0
 19 42  1  0  0  0  0
 19 43  1  0  0  0  0
 19 44  1  0  0  0  0
M  END
> <id>
EN300-28296610

> <smiles>
CN(C(=O)OC(C)(C)C)C=1C=CC=C2C(=O)C=3C=CC=CC3C(=O)C12

> <IUPAC Name>
tert-butyl N-(9,10-dioxo-9,10-dihydroanthracen-1-yl)-N-methylcarbamate

> <CAS>
2680780-53-2

> <URL>
https://www.enaminestore.com/catalog/EN300-28296610

> <ROCS_ShapeQuery>
x0446_0A_x1080_0A_x0929_0A_x0812_0A_x0719_0A_x1140_0A_x0528_0A_x0310_0A

> <ROCS_TanimotoCombo>
0.411 

> <ROCS_ShapeTanimoto>
0.276 

> <ROCS_ColorTanimoto>
0.135 

> <ROCS_RefTversky>
0.248 

> <ROCS_RefColorTversky>
0.147 

> <ROCS_RefTverskyCombo>
0.395 

> <ROCS_FitTversky>
1.706 

> <ROCS_FitColorTversky>
0.617 

> <ROCS_FitTverskyCombo>
2.323 

> <ROCS_ColorScore>
-5.252

> <ROCS_Overlap>
2931.239

> <ROCS_Rank>
424                 

$$$$
untitled-dbase-563537_8
  -OEChem-02082415563D

 48 51  0     1  0  0  0  0  0999 V2000
   10.1146    8.4907   22.5036 C   0  0  0  0  0  0  0  0  0  0  0  0
    5.7179   11.4695   25.2568 C   0  0  0  0  0  0  0  0  0  0  0  0
   11.2386    9.3287   22.4161 C   0  0  0  0  0  0  0  0  0  0  0  0
    6.1817   12.7549   25.5823 C   0  0  0  0  0  0  0  0  0  0  0  0
    8.9331    8.9347   23.1043 C   0  0  0  0  0  0  0  0  0  0  0  0
    6.5443   10.5531   24.6001 C   0  0  0  0  0  0  0  0  0  0  0  0
   11.2026   10.6278   22.9260 C   0  0  0  0  0  0  0  0  0  0  0  0
    7.4805   13.1497   25.2564 C   0  0  0  0  0  0  0  0  0  0  0  0
    8.8968   10.2239   23.6104 C   0  0  0  0  0  0  0  0  0  0  0  0
    7.8333   10.9445   24.2762 C   0  0  0  0  0  0  0  0  0  0  0  0
   10.0279   11.0658   23.5155 C   0  0  0  0  0  0  0  0  0  0  0  0
    8.2944   12.2403   24.6007 C   0  0  0  0  0  0  0  0  0  0  0  0
    8.5597   14.5246   21.4697 C   0  0  0  0  0  0  0  0  0  0  0  0
    5.3061   15.8491   20.9002 C   0  0  0  0  0  0  0  0  0  0  0  0
    5.0057   13.3397   20.8493 C   0  0  0  0  0  0  0  0  0  0  0  0
    6.6333   15.4818   20.2374 C   0  0  0  0  0  0  0  0  0  0  0  0
    9.7373   12.4184   24.1501 C   0  0  0  0  0  0  0  0  0  0  0  0
    4.5916   14.6442   21.5245 C   0  0  2  0  0  0  0  0  0  0  0  0
    6.5191   13.1029   20.9940 C   0  0  1  0  0  0  0  0  0  0  0  0
    7.0064   12.1028   19.9450 C   0  0  0  0  0  0  0  0  0  0  0  0
    9.9082   13.5675   23.1795 C   0  0  0  0  0  0  0  0  0  0  0  0
    7.2812   14.3670   20.9223 N   0  0  0  0  0  0  0  0  0  0  0  0
    9.2127   15.5653   21.4219 O   0  0  0  0  0  0  0  0  0  0  0  0
    3.1827   14.8042   21.4106 O   0  0  0  0  0  0  0  0  0  0  0  0
    9.0145   13.3828   22.0759 O   0  0  0  0  0  0  0  0  0  0  0  0
   10.1663    7.4826   22.1003 H   0  0  0  0  0  0  0  0  0  0  0  0
    4.7028   11.1841   25.5204 H   0  0  0  0  0  0  0  0  0  0  0  0
   12.1465    8.9583   21.9474 H   0  0  0  0  0  0  0  0  0  0  0  0
    5.5201   13.4479   26.0953 H   0  0  0  0  0  0  0  0  0  0  0  0
    8.0736    8.2753   23.1659 H   0  0  0  0  0  0  0  0  0  0  0  0
    6.1726    9.5632   24.3569 H   0  0  0  0  0  0  0  0  0  0  0  0
   12.0742   11.2697   22.8603 H   0  0  0  0  0  0  0  0  0  0  0  0
    7.8359   14.1413   25.5142 H   0  0  0  0  0  0  0  0  0  0  0  0
    5.4828   16.5912   21.6891 H   0  0  0  0  0  0  0  0  0  0  0  0
    4.6624   16.3466   20.1640 H   0  0  0  0  0  0  0  0  0  0  0  0
    4.4528   12.4982   21.2849 H   0  0  0  0  0  0  0  0  0  0  0  0
    4.7081   13.3685   19.7923 H   0  0  0  0  0  0  0  0  0  0  0  0
    6.4628   15.1658   19.2011 H   0  0  0  0  0  0  0  0  0  0  0  0
    7.2867   16.3593   20.1984 H   0  0  0  0  0  0  0  0  0  0  0  0
   10.3758   12.5458   25.0323 H   0  0  0  0  0  0  0  0  0  0  0  0
    4.8308   14.5898   22.5936 H   0  0  0  0  0  0  0  0  0  0  0  0
    6.7017   12.6720   21.9861 H   0  0  0  0  0  0  0  0  0  0  0  0
    6.8375   12.5047   18.9479 H   0  0  0  0  0  0  0  0  0  0  0  0
    6.4629   11.1660   20.0502 H   0  0  0  0  0  0  0  0  0  0  0  0
    8.0700   11.9170   20.0808 H   0  0  0  0  0  0  0  0  0  0  0  0
   10.9341   13.6003   22.8005 H   0  0  0  0  0  0  0  0  0  0  0  0
    9.6753   14.5192   23.6662 H   0  0  0  0  0  0  0  0  0  0  0  0
    2.9556   15.6200   21.8847 H   0  0  0  0  0  0  0  0  0  0  0  0
  1  3  1  0  0  0  0
  1  5  2  0  0  0  0
  2  4  1  0  0  0  0
  2  6  2  0  0  0  0
  3  7  2  0  0  0  0
  4  8  2  0  0  0  0
  5  9  1  0  0  0  0
  6 10  1  0  0  0  0
  7 11  1  0  0  0  0
  8 12  1  0  0  0  0
  9 10  1  0  0  0  0
  9 11  2  0  0  0  0
 10 12  2  0  0  0  0
 11 17  1  0  0  0  0
 12 17  1  0  0  0  0
 13 22  1  0  0  0  0
 13 23  2  0  0  0  0
 13 25  1  0  0  0  0
 14 16  1  0  0  0  0
 14 18  1  0  0  0  0
 15 18  1  0  0  0  0
 15 19  1  0  0  0  0
 16 22  1  0  0  0  0
 17 21  1  0  0  0  0
 18 24  1  6  0  0  0
 19 20  1  6  0  0  0
 19 22  1  0  0  0  0
 21 25  1  0  0  0  0
  1 26  1  0  0  0  0
  2 27  1  0  0  0  0
  3 28  1  0  0  0  0
  4 29  1  0  0  0  0
  5 30  1  0  0  0  0
  6 31  1  0  0  0  0
  7 32  1  0  0  0  0
  8 33  1  0  0  0  0
 14 34  1  0  0  0  0
 14 35  1  0  0  0  0
 15 36  1  0  0  0  0
 15 37  1  0  0  0  0
 16 38  1  0  0  0  0
 16 39  1  0  0  0  0
 17 40  1  0  0  0  0
 18 41  1  0  0  0  0
 19 42  1  0  0  0  0
 20 43  1  0  0  0  0
 20 44  1  0  0  0  0
 20 45  1  0  0  0  0
 21 46  1  0  0  0  0
 21 47  1  0  0  0  0
 24 48  1  0  0  0  0
M  END
> <id>
EN300-7171310

> <smiles>
C[C@@H]1C[C@H](O)CCN1C(=O)OCC2C=3C=CC=CC3C=4C=CC=CC24 |&1:1,3,r|

> <IUPAC Name>
rac-(9H-fluoren-9-yl)methyl (2R,4R)-4-hydroxy-2-methylpiperidine-1-carboxylate

> <CAS>
2153086-85-0

> <URL>
https://www.enaminestore.com/catalog/EN300-7171310

> <ROCS_ShapeQuery>
x0446_0A_x1080_0A_x0929_0A_x0812_0A_x0719_0A_x1140_0A_x0528_0A_x0310_0A

> <ROCS_TanimotoCombo>
0.411 

> <ROCS_ShapeTanimoto>
0.249 

> <ROCS_ColorTanimoto>
0.162 

> <ROCS_RefTversky>
0.228 

> <ROCS_RefColorTversky>
0.172 

> <ROCS_RefTverskyCombo>
0.401 

> <ROCS_FitTversky>
1.587 

> <ROCS_FitColorTversky>
0.721 

> <ROCS_FitTverskyCombo>
2.307 

> <ROCS_ColorScore>
-6.155

> <ROCS_Overlap>
2699.577

> <ROCS_Rank>
425                 

$$$$
untitled-dbase-22868_1
  -OEChem-02082415563D

 35 37  0     0  0  0  0  0  0999 V2000
    9.6800   14.9807   22.5409 C   0  0  0  0  0  0  0  0  0  0  0  0
    7.6931   15.1455   24.1365 C   0  0  0  0  0  0  0  0  0  0  0  0
    9.0897   10.4239   22.2601 C   0  0  0  0  0  0  0  0  0  0  0  0
    7.1251   10.5702   23.8115 C   0  0  0  0  0  0  0  0  0  0  0  0
    9.4331   10.2506   24.7380 C   0  0  0  0  0  0  0  0  0  0  0  0
    7.9006   12.6096   22.5749 C   0  0  0  0  0  0  0  0  0  0  0  0
   10.2140   12.2893   23.5034 C   0  0  0  0  0  0  0  0  0  0  0  0
    8.2452   12.4358   25.0584 C   0  0  0  0  0  0  0  0  0  0  0  0
    7.7199   11.0839   22.4898 C   0  0  0  0  0  0  0  0  0  0  0  0
   10.0395   10.7628   23.4209 C   0  0  0  0  0  0  0  0  0  0  0  0
    8.0651   10.9097   24.9801 C   0  0  0  0  0  0  0  0  0  0  0  0
    8.8488   12.9773   23.7408 C   0  0  0  0  0  0  0  0  0  0  0  0
    9.0263   14.4958   23.8224 C   0  0  0  0  0  0  0  0  0  0  0  0
    9.0845   15.3417   21.5348 O   0  0  0  0  0  0  0  0  0  0  0  0
    6.6276   14.5680   24.2932 O   0  0  0  0  0  0  0  0  0  0  0  0
   11.0373   14.9620   22.6208 O   0  0  0  0  0  0  0  0  0  0  0  0
    7.8227   16.4968   24.2038 O   0  0  0  0  0  0  0  0  0  0  0  0
    8.9722    9.3363   22.1779 H   0  0  0  0  0  0  0  0  0  0  0  0
    9.5184   10.7702   21.3117 H   0  0  0  0  0  0  0  0  0  0  0  0
    6.1397   11.0219   23.9796 H   0  0  0  0  0  0  0  0  0  0  0  0
    6.9726    9.4852   23.7567 H   0  0  0  0  0  0  0  0  0  0  0  0
    9.3217    9.1600   24.6995 H   0  0  0  0  0  0  0  0  0  0  0  0
   10.1089   10.4723   25.5731 H   0  0  0  0  0  0  0  0  0  0  0  0
    8.3027   12.9863   21.6256 H   0  0  0  0  0  0  0  0  0  0  0  0
    6.9232   13.0889   22.7151 H   0  0  0  0  0  0  0  0  0  0  0  0
   10.9100   12.5371   24.3152 H   0  0  0  0  0  0  0  0  0  0  0  0
   10.6688   12.6587   22.5752 H   0  0  0  0  0  0  0  0  0  0  0  0
    7.2756   12.9115   25.2553 H   0  0  0  0  0  0  0  0  0  0  0  0
    8.8966   12.6867   25.9054 H   0  0  0  0  0  0  0  0  0  0  0  0
    7.0471   10.8373   21.6609 H   0  0  0  0  0  0  0  0  0  0  0  0
   11.0129   10.2884   23.2530 H   0  0  0  0  0  0  0  0  0  0  0  0
    7.6371   10.5396   25.9184 H   0  0  0  0  0  0  0  0  0  0  0  0
    9.6976   14.7616   24.6473 H   0  0  0  0  0  0  0  0  0  0  0  0
   11.5091   15.2589   21.8136 H   0  0  0  0  0  0  0  0  0  0  0  0
    6.9663   16.9372   24.3907 H   0  0  0  0  0  0  0  0  0  0  0  0
  1 13  1  0  0  0  0
  1 14  2  0  0  0  0
  1 16  1  0  0  0  0
  2 13  1  0  0  0  0
  2 15  2  0  0  0  0
  2 17  1  0  0  0  0
  3  9  1  0  0  0  0
  3 10  1  0  0  0  0
  4  9  1  0  0  0  0
  4 11  1  0  0  0  0
  5 10  1  0  0  0  0
  5 11  1  0  0  0  0
  6  9  1  0  0  0  0
  6 12  1  0  0  0  0
  7 10  1  0  0  0  0
  7 12  1  0  0  0  0
  8 11  1  0  0  0  0
  8 12  1  0  0  0  0
 12 13  1  0  0  0  0
  3 18  1  0  0  0  0
  3 19  1  0  0  0  0
  4 20  1  0  0  0  0
  4 21  1  0  0  0  0
  5 22  1  0  0  0  0
  5 23  1  0  0  0  0
  6 24  1  0  0  0  0
  6 25  1  0  0  0  0
  7 26  1  0  0  0  0
  7 27  1  0  0  0  0
  8 28  1  0  0  0  0
  8 29  1  0  0  0  0
  9 30  1  0  0  0  0
 10 31  1  0  0  0  0
 11 32  1  0  0  0  0
 13 33  1  0  0  0  0
 16 34  1  0  0  0  0
 17 35  1  0  0  0  0
M  END
> <id>
EN300-74659

> <smiles>
OC(=O)C(C(=O)O)C1(CC2CC3CC(C2)C1)C3

> <IUPAC Name>
2-(adamantan-1-yl)propanedioic acid

> <CAS>
24779-68-8

> <Purity>
95

> <URL>
https://www.enaminestore.com/catalog/EN300-74659

> <ROCS_ShapeQuery>
x0446_0A_x1080_0A_x0929_0A_x0812_0A_x0719_0A_x1140_0A_x0528_0A_x0310_0A

> <ROCS_TanimotoCombo>
0.411 

> <ROCS_ShapeTanimoto>
0.223 

> <ROCS_ColorTanimoto>
0.188 

> <ROCS_RefTversky>
0.203 

> <ROCS_RefColorTversky>
0.223 

> <ROCS_RefTverskyCombo>
0.426 

> <ROCS_FitTversky>
1.779 

> <ROCS_FitColorTversky>
0.544 

> <ROCS_FitTverskyCombo>
2.323 

> <ROCS_ColorScore>
-8.033

> <ROCS_Overlap>
2399.105

> <ROCS_Rank>
426                 

$$$$
untitled-dbase-111732_9
  -OEChem-02082415563D

 40 42  0     0  0  0  0  0  0999 V2000
    8.1143   14.6395   22.4463 C   0  0  0  0  0  0  0  0  0  0  0  0
    9.0262   13.6193   22.5503 C   0  0  0  0  0  0  0  0  0  0  0  0
    6.8174   14.7054   23.0441 C   0  0  0  0  0  0  0  0  0  0  0  0
    8.9998   11.0977   25.3345 C   0  0  0  0  0  0  0  0  0  0  0  0
    9.1582    9.9113   23.1394 C   0  0  0  0  0  0  0  0  0  0  0  0
    9.5768   12.3692   24.6954 C   0  0  0  0  0  0  0  0  0  0  0  0
    9.7342   11.1774   22.4886 C   0  0  0  0  0  0  0  0  0  0  0  0
    7.6343   11.7039   23.4847 C   0  0  0  0  0  0  0  0  0  0  0  0
    8.1898   10.4697   24.1916 C   0  0  0  0  0  0  0  0  0  0  0  0
    9.0223   12.3304   23.2460 C   0  0  0  0  0  0  0  0  0  0  0  0
    4.3356   16.1259   23.4897 C   0  0  0  0  0  0  0  0  0  0  0  0
    3.5517   15.0316   21.3691 C   0  0  0  0  0  0  0  0  0  0  0  0
    4.1467   13.6196   23.3590 C   0  0  0  0  0  0  0  0  0  0  0  0
    4.4633   14.8997   22.5871 C   0  0  0  0  0  0  0  0  0  0  0  0
    8.6261   15.6349   21.6609 N   0  0  0  0  0  0  0  0  0  0  0  0
    9.8393   15.2620   21.2682 N   0  0  0  0  0  0  0  0  0  0  0  0
   10.0772   14.0532   21.8024 N   0  0  0  0  0  0  0  0  0  0  0  0
    6.5829   14.6649   24.2736 O   0  0  0  0  0  0  0  0  0  0  0  0
    5.8112   14.8231   22.1107 O   0  0  0  0  0  0  0  0  0  0  0  0
    9.7848   10.4336   25.7096 H   0  0  0  0  0  0  0  0  0  0  0  0
    8.3471   11.3623   26.1741 H   0  0  0  0  0  0  0  0  0  0  0  0
    8.6199    9.3170   22.3922 H   0  0  0  0  0  0  0  0  0  0  0  0
    9.9397    9.2824   23.5773 H   0  0  0  0  0  0  0  0  0  0  0  0
    9.2263   13.2555   25.2385 H   0  0  0  0  0  0  0  0  0  0  0  0
   10.6723   12.3773   24.7208 H   0  0  0  0  0  0  0  0  0  0  0  0
   10.8241   11.2267   22.5877 H   0  0  0  0  0  0  0  0  0  0  0  0
    9.4980   11.1912   21.4175 H   0  0  0  0  0  0  0  0  0  0  0  0
    7.1000   11.4684   22.5567 H   0  0  0  0  0  0  0  0  0  0  0  0
    6.9871   12.3151   24.1241 H   0  0  0  0  0  0  0  0  0  0  0  0
    7.4463    9.7451   24.5290 H   0  0  0  0  0  0  0  0  0  0  0  0
    4.9885   16.0350   24.3652 H   0  0  0  0  0  0  0  0  0  0  0  0
    4.5939   17.0472   22.9575 H   0  0  0  0  0  0  0  0  0  0  0  0
    3.3141   16.2234   23.8747 H   0  0  0  0  0  0  0  0  0  0  0  0
    3.6401   14.1540   20.7186 H   0  0  0  0  0  0  0  0  0  0  0  0
    3.8368   15.8971   20.7600 H   0  0  0  0  0  0  0  0  0  0  0  0
    2.5022   15.1432   21.6601 H   0  0  0  0  0  0  0  0  0  0  0  0
    4.2383   12.7398   22.7118 H   0  0  0  0  0  0  0  0  0  0  0  0
    4.8158   13.4893   24.2158 H   0  0  0  0  0  0  0  0  0  0  0  0
    3.1129   13.6295   23.7229 H   0  0  0  0  0  0  0  0  0  0  0  0
   10.9624   13.5979   21.6145 H   0  0  0  0  0  0  0  0  0  0  0  0
  1  2  2  0  0  0  0
  1  3  1  0  0  0  0
  1 15  1  0  0  0  0
  2 10  1  0  0  0  0
  2 17  1  0  0  0  0
  3 18  2  0  0  0  0
  3 19  1  0  0  0  0
  4  6  1  0  0  0  0
  4  9  1  0  0  0  0
  5  7  1  0  0  0  0
  5  9  1  0  0  0  0
  6 10  1  0  0  0  0
  7 10  1  0  0  0  0
  8  9  1  0  0  0  0
  8 10  1  0  0  0  0
 11 14  1  0  0  0  0
 12 14  1  0  0  0  0
 13 14  1  0  0  0  0
 14 19  1  0  0  0  0
 15 16  2  0  0  0  0
 16 17  1  0  0  0  0
  4 20  1  0  0  0  0
  4 21  1  0  0  0  0
  5 22  1  0  0  0  0
  5 23  1  0  0  0  0
  6 24  1  0  0  0  0
  6 25  1  0  0  0  0
  7 26  1  0  0  0  0
  7 27  1  0  0  0  0
  8 28  1  0  0  0  0
  8 29  1  0  0  0  0
  9 30  1  0  0  0  0
 11 31  1  0  0  0  0
 11 32  1  0  0  0  0
 11 33  1  0  0  0  0
 12 34  1  0  0  0  0
 12 35  1  0  0  0  0
 12 36  1  0  0  0  0
 13 37  1  0  0  0  0
 13 38  1  0  0  0  0
 13 39  1  0  0  0  0
 17 40  1  0  0  0  0
M  END
> <id>
EN300-786636

> <smiles>
CC(C)(C)OC(=O)C=1N=NNC1C2(CCC3CC2)C3

> <IUPAC Name>
tert-butyl 5-{bicyclo[2.2.1]heptan-1-yl}-1H-1,2,3-triazole-4-carboxylate

> <CAS>
2137578-05-1

> <URL>
https://www.enaminestore.com/catalog/EN300-786636

> <ROCS_ShapeQuery>
x0446_0A_x1080_0A_x0929_0A_x0812_0A_x0719_0A_x1140_0A_x0528_0A_x0310_0A

> <ROCS_TanimotoCombo>
0.411 

> <ROCS_ShapeTanimoto>
0.211 

> <ROCS_ColorTanimoto>
0.200 

> <ROCS_RefTversky>
0.196 

> <ROCS_RefColorTversky>
0.231 

> <ROCS_RefTverskyCombo>
0.427 

> <ROCS_FitTversky>
1.598 

> <ROCS_FitColorTversky>
0.597 

> <ROCS_FitTverskyCombo>
2.196 

> <ROCS_ColorScore>
-8.298

> <ROCS_Overlap>
2312.615

> <ROCS_Rank>
427                 

$$$$
untitled-dbase-290459_8
  -OEChem-02082415563D

 43 47  0     0  0  0  0  0  0999 V2000
   13.8027   15.9558   20.6551 C   0  0  0  0  0  0  0  0  0  0  0  0
   14.3410   15.1774   21.7015 C   0  0  0  0  0  0  0  0  0  0  0  0
    5.1973   13.8661   25.5797 C   0  0  0  0  0  0  0  0  0  0  0  0
    5.2766   12.5659   26.0784 C   0  0  0  0  0  0  0  0  0  0  0  0
   12.4312   16.2175   20.5833 C   0  0  0  0  0  0  0  0  0  0  0  0
   13.5197   14.6437   22.6989 C   0  0  0  0  0  0  0  0  0  0  0  0
    6.0919   14.2923   24.5980 C   0  0  0  0  0  0  0  0  0  0  0  0
    6.2506   11.6919   25.5955 C   0  0  0  0  0  0  0  0  0  0  0  0
    9.1474    9.4041   23.5657 C   0  0  0  0  0  0  0  0  0  0  0  0
    7.9659    9.8759   24.0832 C   0  0  0  0  0  0  0  0  0  0  0  0
   11.6390   15.6848   21.5784 C   0  0  0  0  0  0  0  0  0  0  0  0
   12.1706   14.9160   22.6117 C   0  0  0  0  0  0  0  0  0  0  0  0
    7.0659   13.4184   24.1151 C   0  0  0  0  0  0  0  0  0  0  0  0
    7.1453   12.1181   24.6138 C   0  0  0  0  0  0  0  0  0  0  0  0
    9.9258   10.5583   23.3565 C   0  0  0  0  0  0  0  0  0  0  0  0
   10.1884   15.7694   21.7760 C   0  0  0  0  0  0  0  0  0  0  0  0
   11.0661   14.4998   23.4818 C   0  0  0  0  0  0  0  0  0  0  0  0
    7.9990   13.9099   23.0697 C   0  0  0  0  0  0  0  0  0  0  0  0
   11.6468   11.3722   21.5544 C   0  0  0  0  0  0  0  0  0  0  0  0
   11.5866    9.8807   21.4442 C   0  0  0  0  0  0  0  0  0  0  0  0
   11.3428   10.5425   22.7862 C   0  0  0  0  0  0  0  0  0  0  0  0
    9.2920   11.6791   23.7118 N   0  0  0  0  0  0  0  0  0  0  0  0
    8.1028   11.2313   24.1495 N   0  0  0  0  0  0  0  0  0  0  0  0
    9.9697   15.0856   22.9307 N   0  0  0  0  0  0  0  0  0  0  0  0
    9.4177   16.3534   21.0400 O   0  0  0  0  0  0  0  0  0  0  0  0
   11.1822   13.8009   24.4691 O   0  0  0  0  0  0  0  0  0  0  0  0
    8.0924   13.4003   21.9634 O   0  0  0  0  0  0  0  0  0  0  0  0
    8.7186   14.9922   23.5050 O   0  0  0  0  0  0  0  0  0  0  0  0
   14.4667   16.3561   19.8932 H   0  0  0  0  0  0  0  0  0  0  0  0
   15.4114   14.9901   21.7295 H   0  0  0  0  0  0  0  0  0  0  0  0
    4.4391   14.5469   25.9555 H   0  0  0  0  0  0  0  0  0  0  0  0
    4.5798   12.2341   26.8424 H   0  0  0  0  0  0  0  0  0  0  0  0
   12.0186   16.8134   19.7778 H   0  0  0  0  0  0  0  0  0  0  0  0
   13.9338   14.0438   23.5005 H   0  0  0  0  0  0  0  0  0  0  0  0
    6.0192   15.3079   24.2171 H   0  0  0  0  0  0  0  0  0  0  0  0
    6.2999   10.6813   25.9944 H   0  0  0  0  0  0  0  0  0  0  0  0
    9.4023    8.3728   23.3701 H   0  0  0  0  0  0  0  0  0  0  0  0
    7.0648    9.3676   24.3999 H   0  0  0  0  0  0  0  0  0  0  0  0
   12.6193   11.8450   21.4897 H   0  0  0  0  0  0  0  0  0  0  0  0
   10.8431   11.9429   21.1049 H   0  0  0  0  0  0  0  0  0  0  0  0
   10.7420    9.4473   20.9221 H   0  0  0  0  0  0  0  0  0  0  0  0
   12.5184    9.3458   21.3055 H   0  0  0  0  0  0  0  0  0  0  0  0
   12.1397   10.4564   23.5221 H   0  0  0  0  0  0  0  0  0  0  0  0
  1  2  1  0  0  0  0
  1  5  2  0  0  0  0
  2  6  2  0  0  0  0
  3  4  1  0  0  0  0
  3  7  2  0  0  0  0
  4  8  2  0  0  0  0
  5 11  1  0  0  0  0
  6 12  1  0  0  0  0
  7 13  1  0  0  0  0
  8 14  1  0  0  0  0
  9 10  2  0  0  0  0
  9 15  1  0  0  0  0
 10 23  1  0  0  0  0
 11 12  2  0  0  0  0
 11 16  1  0  0  0  0
 12 17  1  0  0  0  0
 13 14  2  0  0  0  0
 13 18  1  0  0  0  0
 14 23  1  0  0  0  0
 15 21  1  0  0  0  0
 15 22  2  0  0  0  0
 16 24  1  0  0  0  0
 16 25  2  0  0  0  0
 17 24  1  0  0  0  0
 17 26  2  0  0  0  0
 18 27  2  0  0  0  0
 18 28  1  0  0  0  0
 19 20  1  0  0  0  0
 19 21  1  0  0  0  0
 20 21  1  0  0  0  0
 22 23  1  0  0  0  0
 24 28  1  0  0  0  0
  1 29  1  0  0  0  0
  2 30  1  0  0  0  0
  3 31  1  0  0  0  0
  4 32  1  0  0  0  0
  5 33  1  0  0  0  0
  6 34  1  0  0  0  0
  7 35  1  0  0  0  0
  8 36  1  0  0  0  0
  9 37  1  0  0  0  0
 10 38  1  0  0  0  0
 19 39  1  0  0  0  0
 19 40  1  0  0  0  0
 20 41  1  0  0  0  0
 20 42  1  0  0  0  0
 21 43  1  0  0  0  0
M  END
> <id>
EN300-6523100

> <smiles>
O=C(ON1C(=O)C=2C=CC=CC2C1=O)C=3C=CC=CC3N4C=CC(=N4)C5CC5

> <IUPAC Name>
1,3-dioxo-2,3-dihydro-1H-isoindol-2-yl 2-(3-cyclopropyl-1H-pyrazol-1-yl)benzoate

> <CAS>
2248413-80-9

> <URL>
https://www.enaminestore.com/catalog/EN300-6523100

> <ROCS_ShapeQuery>
x0446_0A_x1080_0A_x0929_0A_x0812_0A_x0719_0A_x1140_0A_x0528_0A_x0310_0A

> <ROCS_TanimotoCombo>
0.411 

> <ROCS_ShapeTanimoto>
0.276 

> <ROCS_ColorTanimoto>
0.135 

> <ROCS_RefTversky>
0.251 

> <ROCS_RefColorTversky>
0.150 

> <ROCS_RefTverskyCombo>
0.401 

> <ROCS_FitTversky>
1.571 

> <ROCS_FitColorTversky>
0.566 

> <ROCS_FitTverskyCombo>
2.137 

> <ROCS_ColorScore>
-5.369

> <ROCS_Overlap>
2970.270

> <ROCS_Rank>
428                 

$$$$
untitled-dbase-339589_0
  -OEChem-02082415563D

 27 29  0     0  0  0  0  0  0999 V2000
    6.3921   12.4989   26.0558 C   0  0  0  0  0  0  0  0  0  0  0  0
    6.1033   11.1187   25.7602 C   0  0  0  0  0  0  0  0  0  0  0  0
    7.3950   13.1469   25.4485 C   0  0  0  0  0  0  0  0  0  0  0  0
    6.8132   10.4125   24.8719 C   0  0  0  0  0  0  0  0  0  0  0  0
   12.7304   15.2424   22.3502 C   0  0  0  0  0  0  0  0  0  0  0  0
   11.8441   15.5613   21.4000 C   0  0  0  0  0  0  0  0  0  0  0  0
    8.2318   12.4812   24.4666 C   0  0  0  0  0  0  0  0  0  0  0  0
    9.2649   13.0373   23.7969 C   0  0  0  0  0  0  0  0  0  0  0  0
    7.9519   11.0414   24.1408 C   0  0  0  0  0  0  0  0  0  0  0  0
   12.0002   14.7056   23.5153 C   0  0  0  0  0  0  0  0  0  0  0  0
   10.4890   15.2492   21.8951 C   0  0  0  0  0  0  0  0  0  0  0  0
    9.6704   10.9204   22.6165 C   0  0  0  0  0  0  0  0  0  0  0  0
    8.6210   10.3318   23.2868 N   0  0  0  0  0  0  0  0  0  0  0  0
    9.9538   12.2495   22.8952 N   0  0  0  0  0  0  0  0  0  0  0  0
   10.6910   14.7518   23.1459 N   0  0  0  0  0  0  0  0  0  0  0  0
    9.6723   14.3367   23.9567 N   0  0  0  0  0  0  0  0  0  0  0  0
   12.5226   14.3247   24.5471 O   0  0  0  0  0  0  0  0  0  0  0  0
    9.4620   15.4254   21.2653 O   0  0  0  0  0  0  0  0  0  0  0  0
   10.3456   10.3012   21.7931 O   0  0  0  0  0  0  0  0  0  0  0  0
    5.7705   13.0019   26.7886 H   0  0  0  0  0  0  0  0  0  0  0  0
    5.2762   10.6571   26.2894 H   0  0  0  0  0  0  0  0  0  0  0  0
    7.5778   14.1855   25.7005 H   0  0  0  0  0  0  0  0  0  0  0  0
    6.5804    9.3744   24.6630 H   0  0  0  0  0  0  0  0  0  0  0  0
   13.8012   15.3484   22.3016 H   0  0  0  0  0  0  0  0  0  0  0  0
   12.0543   15.9769   20.4288 H   0  0  0  0  0  0  0  0  0  0  0  0
   10.7266   12.6888   22.4036 H   0  0  0  0  0  0  0  0  0  0  0  0
    9.2039   14.9366   24.5949 H   0  0  0  0  0  0  0  0  0  0  0  0
  1  2  1  0  0  0  0
  1  3  2  0  0  0  0
  2  4  2  0  0  0  0
  3  7  1  0  0  0  0
  4  9  1  0  0  0  0
  5  6  2  0  0  0  0
  5 10  1  0  0  0  0
  6 11  1  0  0  0  0
  7  8  2  0  0  0  0
  7  9  1  0  0  0  0
  8 14  1  0  0  0  0
  8 16  1  0  0  0  0
  9 13  2  0  0  0  0
 10 15  1  0  0  0  0
 10 17  2  0  0  0  0
 11 15  1  0  0  0  0
 11 18  2  0  0  0  0
 12 13  1  0  0  0  0
 12 14  1  0  0  0  0
 12 19  2  0  0  0  0
 15 16  1  0  0  0  0
  1 20  1  0  0  0  0
  2 21  1  0  0  0  0
  3 22  1  0  0  0  0
  4 23  1  0  0  0  0
  5 24  1  0  0  0  0
  6 25  1  0  0  0  0
 14 26  1  0  0  0  0
 16 27  1  0  0  0  0
M  END
> <id>
EN300-26621354

> <smiles>
O=C1C=CC(=O)N1NC=2NC(=O)N=C3C=CC=CC23

> <IUPAC Name>
1-[(2-oxo-2,3-dihydroquinazolin-4-yl)amino]-2,5-dihydro-1H-pyrrole-2,5-dione

> <CAS>
940785-82-0

> <URL>
https://www.enaminestore.com/catalog/EN300-26621354

> <ROCS_ShapeQuery>
x0446_0A_x1080_0A_x0929_0A_x0812_0A_x0719_0A_x1140_0A_x0528_0A_x0310_0A

> <ROCS_TanimotoCombo>
0.411 

> <ROCS_ShapeTanimoto>
0.240 

> <ROCS_ColorTanimoto>
0.171 

> <ROCS_RefTversky>
0.218 

> <ROCS_RefColorTversky>
0.193 

> <ROCS_RefTverskyCombo>
0.410 

> <ROCS_FitTversky>
1.740 

> <ROCS_FitColorTversky>
0.607 

> <ROCS_FitTverskyCombo>
2.346 

> <ROCS_ColorScore>
-6.908

> <ROCS_Overlap>
2568.446

> <ROCS_Rank>
429                 

$$$$
untitled-dbase-217526_6
  -OEChem-02082415563D

 40 42  0     1  0  0  0  0  0999 V2000
   16.6904   11.3652   25.9530 C   0  0  0  0  0  0  0  0  0  0  0  0
   15.8658   12.4224   26.3378 C   0  0  0  0  0  0  0  0  0  0  0  0
   16.5516   10.7978   24.6863 C   0  0  0  0  0  0  0  0  0  0  0  0
   14.9024   12.9121   25.4560 C   0  0  0  0  0  0  0  0  0  0  0  0
   15.5881   11.2875   23.8045 C   0  0  0  0  0  0  0  0  0  0  0  0
   14.7635   12.3446   24.1894 C   0  0  0  0  0  0  0  0  0  0  0  0
    6.6141   12.6971   24.8917 C   0  0  0  0  0  0  0  0  0  0  0  0
   11.4184   12.9017   23.8092 C   0  0  0  0  0  0  0  0  0  0  0  0
    8.2991   10.7793   22.1740 C   0  0  0  0  0  0  0  0  0  0  0  0
    7.5976   12.0611   22.6625 C   0  0  0  0  0  0  0  0  0  0  0  0
   10.2549   10.6680   23.7874 C   0  0  0  0  0  0  0  0  0  0  0  0
    9.0827   12.7370   24.6082 C   0  0  0  0  0  0  0  0  0  0  0  0
    8.8629   10.1175   23.4441 C   0  0  1  0  0  0  0  0  0  0  0  0
    7.7716   12.0521   24.1937 C   0  0  1  0  0  0  0  0  0  0  0  0
    7.8562   10.5622   24.4908 C   0  0  0  0  0  0  0  0  0  0  0  0
   13.7271   12.8707   23.2404 C   0  0  0  0  0  0  0  0  0  0  0  0
   10.2660   12.1264   23.9893 N   0  0  0  0  0  0  0  0  0  0  0  0
    5.8859   12.1432   25.7019 O   0  0  0  0  0  0  0  0  0  0  0  0
   11.4643   14.1201   23.9688 O   0  0  0  0  0  0  0  0  0  0  0  0
    6.4779   13.9877   24.5005 O   0  0  0  0  0  0  0  0  0  0  0  0
   12.5040   12.1526   23.4388 O   0  0  0  0  0  0  0  0  0  0  0  0
    8.2475   10.2870   25.7460 F   0  0  0  0  0  0  0  0  0  0  0  0
    6.6670    9.9504   24.2857 F   0  0  0  0  0  0  0  0  0  0  0  0
   17.4414   10.9849   26.6393 H   0  0  0  0  0  0  0  0  0  0  0  0
   15.9745   12.8650   27.3237 H   0  0  0  0  0  0  0  0  0  0  0  0
   17.1941    9.9754   24.3860 H   0  0  0  0  0  0  0  0  0  0  0  0
   14.2642   13.7359   25.7645 H   0  0  0  0  0  0  0  0  0  0  0  0
   15.4870   10.8391   22.8197 H   0  0  0  0  0  0  0  0  0  0  0  0
    7.5610   10.1203   21.7015 H   0  0  0  0  0  0  0  0  0  0  0  0
    9.0732   10.9942   21.4301 H   0  0  0  0  0  0  0  0  0  0  0  0
    8.0343   12.9538   22.2007 H   0  0  0  0  0  0  0  0  0  0  0  0
    6.5397   12.0355   22.3732 H   0  0  0  0  0  0  0  0  0  0  0  0
   10.6202   10.2188   24.7186 H   0  0  0  0  0  0  0  0  0  0  0  0
   10.9631   10.3982   22.9968 H   0  0  0  0  0  0  0  0  0  0  0  0
    9.0542   13.8058   24.3634 H   0  0  0  0  0  0  0  0  0  0  0  0
    9.2256   12.6725   25.6947 H   0  0  0  0  0  0  0  0  0  0  0  0
    8.9008    9.0287   23.3416 H   0  0  0  0  0  0  0  0  0  0  0  0
   13.5463   13.9377   23.4098 H   0  0  0  0  0  0  0  0  0  0  0  0
   14.0529   12.7454   22.2021 H   0  0  0  0  0  0  0  0  0  0  0  0
    5.7227   14.4278   24.9458 H   0  0  0  0  0  0  0  0  0  0  0  0
  1  2  1  0  0  0  0
  1  3  2  0  0  0  0
  2  4  2  0  0  0  0
  3  5  1  0  0  0  0
  4  6  1  0  0  0  0
  5  6  2  0  0  0  0
  6 16  1  0  0  0  0
  7 14  1  0  0  0  0
  7 18  2  0  0  0  0
  7 20  1  0  0  0  0
  8 17  1  0  0  0  0
  8 19  2  0  0  0  0
  8 21  1  0  0  0  0
  9 10  1  0  0  0  0
  9 13  1  0  0  0  0
 10 14  1  0  0  0  0
 11 13  1  0  0  0  0
 11 17  1  0  0  0  0
 12 14  1  0  0  0  0
 12 17  1  0  0  0  0
 13 15  1  0  0  0  0
 14 15  1  0  0  0  0
 15 22  1  0  0  0  0
 15 23  1  0  0  0  0
 16 21  1  0  0  0  0
  1 24  1  0  0  0  0
  2 25  1  0  0  0  0
  3 26  1  0  0  0  0
  4 27  1  0  0  0  0
  5 28  1  0  0  0  0
  9 29  1  0  0  0  0
  9 30  1  0  0  0  0
 10 31  1  0  0  0  0
 10 32  1  0  0  0  0
 11 33  1  0  0  0  0
 11 34  1  0  0  0  0
 12 35  1  0  0  0  0
 12 36  1  0  0  0  0
 13 37  1  0  0  0  0
 16 38  1  0  0  0  0
 16 39  1  0  0  0  0
 20 40  1  0  0  0  0
M  END
> <id>
EN300-37419387

> <smiles>
OC(=O)C1(CCC2CN(C1)C(=O)OCC=3C=CC=CC3)C2(F)F

> <IUPAC Name>
3-[(benzyloxy)carbonyl]-8,8-difluoro-3-azabicyclo[3.2.1]octane-1-carboxylic acid

> <URL>
https://www.enaminestore.com/catalog/EN300-37419387

> <ROCS_ShapeQuery>
x0446_0A_x1080_0A_x0929_0A_x0812_0A_x0719_0A_x1140_0A_x0528_0A_x0310_0A

> <ROCS_TanimotoCombo>
0.411 

> <ROCS_ShapeTanimoto>
0.237 

> <ROCS_ColorTanimoto>
0.174 

> <ROCS_RefTversky>
0.218 

> <ROCS_RefColorTversky>
0.198 

> <ROCS_RefTverskyCombo>
0.416 

> <ROCS_FitTversky>
1.586 

> <ROCS_FitColorTversky>
0.585 

> <ROCS_FitTverskyCombo>
2.171 

> <ROCS_ColorScore>
-7.101

> <ROCS_Overlap>
2579.685

> <ROCS_Rank>
430                 

$$$$
untitled-dbase-509408_4
  -OEChem-02082415563D

 48 51  0     1  0  0  0  0  0999 V2000
    3.1503   11.2805   18.1900 C   0  0  0  0  0  0  0  0  0  0  0  0
    3.8188   12.4863   18.4012 C   0  0  0  0  0  0  0  0  0  0  0  0
    2.8885   10.4307   19.2648 C   0  0  0  0  0  0  0  0  0  0  0  0
    4.2258   12.8423   19.6870 C   0  0  0  0  0  0  0  0  0  0  0  0
    3.2955   10.7867   20.5506 C   0  0  0  0  0  0  0  0  0  0  0  0
   10.1295   15.2486   22.1029 C   0  0  0  0  0  0  0  0  0  0  0  0
   11.1263   16.2418   22.0636 C   0  0  0  0  0  0  0  0  0  0  0  0
    3.9641   11.9925   20.7617 C   0  0  0  0  0  0  0  0  0  0  0  0
   10.6778   14.2415   22.8590 C   0  0  0  0  0  0  0  0  0  0  0  0
    6.2639   12.1425   23.6007 C   0  0  0  0  0  0  0  0  0  0  0  0
    9.1615   10.3643   24.8166 C   0  0  0  0  0  0  0  0  0  0  0  0
    9.0964    9.9507   23.3337 C   0  0  0  0  0  0  0  0  0  0  0  0
    9.3385   12.9136   24.6438 C   0  0  0  0  0  0  0  0  0  0  0  0
    9.2457   12.2191   22.1580 C   0  0  0  0  0  0  0  0  0  0  0  0
    8.4151   11.7004   24.8837 C   0  0  1  0  0  0  0  0  0  0  0  0
    8.3239   11.0807   22.6466 C   0  0  2  0  0  0  0  0  0  0  0  0
   10.1149   12.8781   23.2828 C   0  0  0  0  0  0  0  0  0  0  0  0
   12.8926   13.9680   24.0142 C   0  0  0  0  0  0  0  0  0  0  0  0
    4.4018   12.3747   22.1451 C   0  0  0  0  0  0  0  0  0  0  0  0
   12.2247   15.8971   22.7410 N   0  0  0  0  0  0  0  0  0  0  0  0
   11.9211   14.6760   23.2131 N   0  0  0  0  0  0  0  0  0  0  0  0
    7.5351   11.6198   23.7331 N   0  0  0  0  0  0  0  0  0  0  0  0
    5.6821   12.7744   24.4794 O   0  0  0  0  0  0  0  0  0  0  0  0
   11.2679   12.0377   23.4643 O   0  0  0  0  0  0  0  0  0  0  0  0
    5.7231   11.8723   22.3728 O   0  0  0  0  0  0  0  0  0  0  0  0
    2.8323   11.0041   17.1890 H   0  0  0  0  0  0  0  0  0  0  0  0
    4.0217   13.1487   17.5647 H   0  0  0  0  0  0  0  0  0  0  0  0
    2.3671    9.4923   19.1009 H   0  0  0  0  0  0  0  0  0  0  0  0
    4.7463   13.7837   19.8420 H   0  0  0  0  0  0  0  0  0  0  0  0
    3.0874   10.1182   21.3818 H   0  0  0  0  0  0  0  0  0  0  0  0
    9.1509   15.2636   21.6456 H   0  0  0  0  0  0  0  0  0  0  0  0
   11.0980   17.2024   21.5696 H   0  0  0  0  0  0  0  0  0  0  0  0
    8.6431    9.6107   25.4216 H   0  0  0  0  0  0  0  0  0  0  0  0
   10.1906   10.4288   25.1828 H   0  0  0  0  0  0  0  0  0  0  0  0
   10.0907    9.7902   22.9061 H   0  0  0  0  0  0  0  0  0  0  0  0
    8.5435    9.0077   23.2480 H   0  0  0  0  0  0  0  0  0  0  0  0
    8.7190   13.8204   24.6872 H   0  0  0  0  0  0  0  0  0  0  0  0
   10.0549   12.9824   25.4731 H   0  0  0  0  0  0  0  0  0  0  0  0
    9.8965   11.8307   21.3640 H   0  0  0  0  0  0  0  0  0  0  0  0
    8.6101   12.9867   21.6945 H   0  0  0  0  0  0  0  0  0  0  0  0
    7.8631   11.8190   25.8207 H   0  0  0  0  0  0  0  0  0  0  0  0
    7.6943   10.7202   21.8271 H   0  0  0  0  0  0  0  0  0  0  0  0
   13.5148   13.3721   23.3413 H   0  0  0  0  0  0  0  0  0  0  0  0
   13.5051   14.6878   24.5642 H   0  0  0  0  0  0  0  0  0  0  0  0
   12.3718   13.3225   24.7270 H   0  0  0  0  0  0  0  0  0  0  0  0
    4.4075   13.4632   22.2675 H   0  0  0  0  0  0  0  0  0  0  0  0
    3.7236   11.9553   22.8961 H   0  0  0  0  0  0  0  0  0  0  0  0
   11.7241   12.0084   22.6094 H   0  0  0  0  0  0  0  0  0  0  0  0
  1  2  1  0  0  0  0
  1  3  2  0  0  0  0
  2  4  2  0  0  0  0
  3  5  1  0  0  0  0
  4  8  1  0  0  0  0
  5  8  2  0  0  0  0
  6  7  1  0  0  0  0
  6  9  2  0  0  0  0
  7 20  2  0  0  0  0
  8 19  1  0  0  0  0
  9 17  1  6  0  0  0
  9 21  1  0  0  0  0
 10 22  1  0  0  0  0
 10 23  2  0  0  0  0
 10 25  1  0  0  0  0
 11 12  1  0  0  0  0
 11 15  1  0  0  0  0
 12 16  1  0  0  0  0
 13 15  1  0  0  0  0
 13 17  1  0  0  0  0
 14 16  1  0  0  0  0
 14 17  1  0  0  0  0
 15 22  1  6  0  0  0
 16 22  1  6  0  0  0
 17 24  1  1  0  0  0
 18 21  1  0  0  0  0
 19 25  1  0  0  0  0
 20 21  1  0  0  0  0
  1 26  1  0  0  0  0
  2 27  1  0  0  0  0
  3 28  1  0  0  0  0
  4 29  1  0  0  0  0
  5 30  1  0  0  0  0
  6 31  1  0  0  0  0
  7 32  1  0  0  0  0
 11 33  1  0  0  0  0
 11 34  1  0  0  0  0
 12 35  1  0  0  0  0
 12 36  1  0  0  0  0
 13 37  1  0  0  0  0
 13 38  1  0  0  0  0
 14 39  1  0  0  0  0
 14 40  1  0  0  0  0
 15 41  1  0  0  0  0
 16 42  1  0  0  0  0
 18 43  1  0  0  0  0
 18 44  1  0  0  0  0
 18 45  1  0  0  0  0
 19 46  1  0  0  0  0
 19 47  1  0  0  0  0
 24 48  1  0  0  0  0
M  END
> <id>
EN300-28297260

> <smiles>
CN1N=CC=C1[C@@]2(O)C[C@@H]3CC[C@H](C2)N3C(=O)OCC=4C=CC=CC4

> <IUPAC Name>
benzyl (1R,3S,5S)-3-hydroxy-3-(1-methyl-1H-pyrazol-5-yl)-8-azabicyclo[3.2.1]octane-8-carboxylate

> <CAS>
2679943-52-1

> <URL>
https://www.enaminestore.com/catalog/EN300-28297260

> <ROCS_ShapeQuery>
x0446_0A_x1080_0A_x0929_0A_x0812_0A_x0719_0A_x1140_0A_x0528_0A_x0310_0A

> <ROCS_TanimotoCombo>
0.411 

> <ROCS_ShapeTanimoto>
0.245 

> <ROCS_ColorTanimoto>
0.166 

> <ROCS_RefTversky>
0.225 

> <ROCS_RefColorTversky>
0.194 

> <ROCS_RefTverskyCombo>
0.419 

> <ROCS_FitTversky>
1.555 

> <ROCS_FitColorTversky>
0.534 

> <ROCS_FitTverskyCombo>
2.088 

> <ROCS_ColorScore>
-6.973

> <ROCS_Overlap>
2663.268

> <ROCS_Rank>
431                 

$$$$
untitled-dbase-258312_2
  -OEChem-02082415563D

 48 51  0     0  0  0  0  0  0999 V2000
    8.9492   18.3527   21.0762 C   0  0  0  0  0  0  0  0  0  0  0  0
    9.7919   17.5418   20.3243 C   0  0  0  0  0  0  0  0  0  0  0  0
    8.1085   17.7817   22.0252 C   0  0  0  0  0  0  0  0  0  0  0  0
    9.7563   16.1765   20.5576 C   0  0  0  0  0  0  0  0  0  0  0  0
    8.1482   16.4056   22.1823 C   0  0  0  0  0  0  0  0  0  0  0  0
    6.2810   12.5430   24.4706 C   0  0  0  0  0  0  0  0  0  0  0  0
   10.2861   11.0280   25.0004 C   0  0  0  0  0  0  0  0  0  0  0  0
    9.2414    9.6730   23.1662 C   0  0  0  0  0  0  0  0  0  0  0  0
   10.1679   11.9502   22.6707 C   0  0  0  0  0  0  0  0  0  0  0  0
    7.8071   10.6484   24.9772 C   0  0  0  0  0  0  0  0  0  0  0  0
    8.7353   12.9294   24.4808 C   0  0  0  0  0  0  0  0  0  0  0  0
    7.6882   11.5726   22.6447 C   0  0  0  0  0  0  0  0  0  0  0  0
    9.1753   10.0180   24.6643 C   0  0  0  0  0  0  0  0  0  0  0  0
   10.1073   12.3081   24.1660 C   0  0  0  0  0  0  0  0  0  0  0  0
    9.0559   10.9457   22.3215 C   0  0  0  0  0  0  0  0  0  0  0  0
    7.6117   11.9296   24.1422 C   0  0  0  0  0  0  0  0  0  0  0  0
    4.6903   14.4167   24.0177 C   0  0  0  0  0  0  0  0  0  0  0  0
    7.2494   15.7516   23.2028 C   0  0  0  0  0  0  0  0  0  0  0  0
    6.8404   14.3330   22.8141 C   0  0  0  0  0  0  0  0  0  0  0  0
    8.9533   15.5854   21.4705 N   0  0  0  0  0  0  0  0  0  0  0  0
    5.9495   13.7179   23.7946 N   0  0  0  0  0  0  0  0  0  0  0  0
    5.5549   11.9951   25.3043 O   0  0  0  0  0  0  0  0  0  0  0  0
    8.9477   19.4277   20.9230 H   0  0  0  0  0  0  0  0  0  0  0  0
   10.4556   17.9651   19.5791 H   0  0  0  0  0  0  0  0  0  0  0  0
    7.4464   18.4033   22.6183 H   0  0  0  0  0  0  0  0  0  0  0  0
   10.3942   15.5006   19.9976 H   0  0  0  0  0  0  0  0  0  0  0  0
   10.2596   11.2714   26.0697 H   0  0  0  0  0  0  0  0  0  0  0  0
   11.2685   10.5842   24.7985 H   0  0  0  0  0  0  0  0  0  0  0  0
   10.2058    9.2057   22.9321 H   0  0  0  0  0  0  0  0  0  0  0  0
    8.4638    8.9411   22.9159 H   0  0  0  0  0  0  0  0  0  0  0  0
   10.0573   12.8572   22.0637 H   0  0  0  0  0  0  0  0  0  0  0  0
   11.1484   11.5227   22.4277 H   0  0  0  0  0  0  0  0  0  0  0  0
    7.0057    9.9286   24.7649 H   0  0  0  0  0  0  0  0  0  0  0  0
    7.7386   10.8759   26.0493 H   0  0  0  0  0  0  0  0  0  0  0  0
    8.6893   13.2132   25.5405 H   0  0  0  0  0  0  0  0  0  0  0  0
    8.6048   13.8578   23.9093 H   0  0  0  0  0  0  0  0  0  0  0  0
    7.5335   12.4686   22.0293 H   0  0  0  0  0  0  0  0  0  0  0  0
    6.8848   10.8737   22.3768 H   0  0  0  0  0  0  0  0  0  0  0  0
    9.3091    9.1084   25.2600 H   0  0  0  0  0  0  0  0  0  0  0  0
   10.9018   13.0223   24.4083 H   0  0  0  0  0  0  0  0  0  0  0  0
    9.1052   10.6939   21.2564 H   0  0  0  0  0  0  0  0  0  0  0  0
    4.8162   15.1511   24.8269 H   0  0  0  0  0  0  0  0  0  0  0  0
    4.3906   14.9356   23.0952 H   0  0  0  0  0  0  0  0  0  0  0  0
    3.9131   13.6909   24.2992 H   0  0  0  0  0  0  0  0  0  0  0  0
    6.3497   16.3689   23.3206 H   0  0  0  0  0  0  0  0  0  0  0  0
    7.7428   15.7472   24.1832 H   0  0  0  0  0  0  0  0  0  0  0  0
    6.2999   14.3482   21.8624 H   0  0  0  0  0  0  0  0  0  0  0  0
    7.7107   13.6780   22.7020 H   0  0  0  0  0  0  0  0  0  0  0  0
  1  2  1  0  0  0  0
  1  3  2  0  0  0  0
  2  4  2  0  0  0  0
  3  5  1  0  0  0  0
  4 20  1  0  0  0  0
  5 18  1  0  0  0  0
  5 20  2  0  0  0  0
  6 16  1  0  0  0  0
  6 21  1  0  0  0  0
  6 22  2  0  0  0  0
  7 13  1  0  0  0  0
  7 14  1  0  0  0  0
  8 13  1  0  0  0  0
  8 15  1  0  0  0  0
  9 14  1  0  0  0  0
  9 15  1  0  0  0  0
 10 13  1  0  0  0  0
 10 16  1  0  0  0  0
 11 14  1  0  0  0  0
 11 16  1  0  0  0  0
 12 15  1  0  0  0  0
 12 16  1  0  0  0  0
 17 21  1  0  0  0  0
 18 19  1  0  0  0  0
 19 21  1  0  0  0  0
  1 23  1  0  0  0  0
  2 24  1  0  0  0  0
  3 25  1  0  0  0  0
  4 26  1  0  0  0  0
  7 27  1  0  0  0  0
  7 28  1  0  0  0  0
  8 29  1  0  0  0  0
  8 30  1  0  0  0  0
  9 31  1  0  0  0  0
  9 32  1  0  0  0  0
 10 33  1  0  0  0  0
 10 34  1  0  0  0  0
 11 35  1  0  0  0  0
 11 36  1  0  0  0  0
 12 37  1  0  0  0  0
 12 38  1  0  0  0  0
 13 39  1  0  0  0  0
 14 40  1  0  0  0  0
 15 41  1  0  0  0  0
 17 42  1  0  0  0  0
 17 43  1  0  0  0  0
 17 44  1  0  0  0  0
 18 45  1  0  0  0  0
 18 46  1  0  0  0  0
 19 47  1  0  0  0  0
 19 48  1  0  0  0  0
M  END
> <id>
EN300-26868631

> <smiles>
CN(CCC=1C=CC=CN1)C(=O)C2(CC3CC4CC(C3)C2)C4

> <IUPAC Name>
N-methyl-N-[2-(pyridin-2-yl)ethyl]adamantane-1-carboxamide

> <CAS>
911056-92-3

> <URL>
https://www.enaminestore.com/catalog/EN300-26868631

> <ROCS_ShapeQuery>
x0446_0A_x1080_0A_x0929_0A_x0812_0A_x0719_0A_x1140_0A_x0528_0A_x0310_0A

> <ROCS_TanimotoCombo>
0.411 

> <ROCS_ShapeTanimoto>
0.225 

> <ROCS_ColorTanimoto>
0.186 

> <ROCS_RefTversky>
0.208 

> <ROCS_RefColorTversky>
0.204 

> <ROCS_RefTverskyCombo>
0.412 

> <ROCS_FitTversky>
1.570 

> <ROCS_FitColorTversky>
0.673 

> <ROCS_FitTverskyCombo>
2.243 

> <ROCS_ColorScore>
-7.309

> <ROCS_Overlap>
2459.506

> <ROCS_Rank>
432                 

$$$$
untitled-dbase-157061_5
  -OEChem-02082415563D

 42 43  0     0  0  0  0  0  0999 V2000
    8.5088   14.3327   21.8818 C   0  0  0  0  0  0  0  0  0  0  0  0
    6.6627   13.3277   24.0651 C   0  0  0  0  0  0  0  0  0  0  0  0
    9.7155   10.6629   25.1313 C   0  0  0  0  0  0  0  0  0  0  0  0
    8.9542   10.0435   22.8361 C   0  0  0  0  0  0  0  0  0  0  0  0
    9.9935   12.0977   24.6596 C   0  0  0  0  0  0  0  0  0  0  0  0
    9.2285   11.4746   22.3513 C   0  0  0  0  0  0  0  0  0  0  0  0
    7.3327   10.9643   24.4829 C   0  0  0  0  0  0  0  0  0  0  0  0
    8.5598   10.0593   24.3201 C   0  0  0  0  0  0  0  0  0  0  0  0
    9.0364   12.4940   23.5048 C   0  0  0  0  0  0  0  0  0  0  0  0
    4.5098   14.7583   22.8273 C   0  0  0  0  0  0  0  0  0  0  0  0
    3.0181   12.9835   23.7939 C   0  0  0  0  0  0  0  0  0  0  0  0
    4.3465   14.4694   25.3222 C   0  0  0  0  0  0  0  0  0  0  0  0
    9.4058   13.8950   23.0044 C   0  0  0  0  0  0  0  0  0  0  0  0
    4.3212   13.7603   23.9689 C   0  0  0  0  0  0  0  0  0  0  0  0
    7.6388   12.3255   24.0134 N   0  0  0  0  0  0  0  0  0  0  0  0
    7.5887   13.6955   21.3916 O   0  0  0  0  0  0  0  0  0  0  0  0
    6.8722   14.5282   24.2120 O   0  0  0  0  0  0  0  0  0  0  0  0
    8.8697   15.5753   21.4703 O   0  0  0  0  0  0  0  0  0  0  0  0
    5.3961   12.8143   23.9296 O   0  0  0  0  0  0  0  0  0  0  0  0
   10.6192   10.0520   25.0199 H   0  0  0  0  0  0  0  0  0  0  0  0
    9.4682   10.6662   26.1997 H   0  0  0  0  0  0  0  0  0  0  0  0
    8.1529    9.5968   22.2352 H   0  0  0  0  0  0  0  0  0  0  0  0
    9.8444    9.4214   22.6848 H   0  0  0  0  0  0  0  0  0  0  0  0
    9.8818   12.7914   25.5027 H   0  0  0  0  0  0  0  0  0  0  0  0
   11.0391   12.1729   24.3346 H   0  0  0  0  0  0  0  0  0  0  0  0
   10.2509   11.5304   21.9560 H   0  0  0  0  0  0  0  0  0  0  0  0
    8.5605   11.7151   21.5143 H   0  0  0  0  0  0  0  0  0  0  0  0
    6.4833   10.5829   23.9038 H   0  0  0  0  0  0  0  0  0  0  0  0
    7.0245   11.0235   25.5334 H   0  0  0  0  0  0  0  0  0  0  0  0
    8.3378    9.0449   24.6675 H   0  0  0  0  0  0  0  0  0  0  0  0
    5.4442   15.3179   22.9493 H   0  0  0  0  0  0  0  0  0  0  0  0
    4.5286   14.2583   21.8534 H   0  0  0  0  0  0  0  0  0  0  0  0
    3.7036   15.5007   22.8197 H   0  0  0  0  0  0  0  0  0  0  0  0
    2.8787   12.2663   24.6108 H   0  0  0  0  0  0  0  0  0  0  0  0
    3.0345   12.3974   22.8680 H   0  0  0  0  0  0  0  0  0  0  0  0
    2.1506   13.6508   23.7665 H   0  0  0  0  0  0  0  0  0  0  0  0
    4.2112   13.7538   26.1412 H   0  0  0  0  0  0  0  0  0  0  0  0
    5.2898   15.0020   25.4809 H   0  0  0  0  0  0  0  0  0  0  0  0
    3.5231   15.1885   25.4007 H   0  0  0  0  0  0  0  0  0  0  0  0
    9.3099   14.5975   23.8328 H   0  0  0  0  0  0  0  0  0  0  0  0
   10.4372   13.8781   22.6512 H   0  0  0  0  0  0  0  0  0  0  0  0
    8.3040   15.8960   20.7358 H   0  0  0  0  0  0  0  0  0  0  0  0
  1 13  1  0  0  0  0
  1 16  2  0  0  0  0
  1 18  1  0  0  0  0
  2 15  1  0  0  0  0
  2 17  2  0  0  0  0
  2 19  1  0  0  0  0
  3  5  1  0  0  0  0
  3  8  1  0  0  0  0
  4  6  1  0  0  0  0
  4  8  1  0  0  0  0
  5  9  1  0  0  0  0
  6  9  1  0  0  0  0
  7  8  1  0  0  0  0
  7 15  1  0  0  0  0
  9 13  1  0  0  0  0
  9 15  1  0  0  0  0
 10 14  1  0  0  0  0
 11 14  1  0  0  0  0
 12 14  1  0  0  0  0
 14 19  1  0  0  0  0
  3 20  1  0  0  0  0
  3 21  1  0  0  0  0
  4 22  1  0  0  0  0
  4 23  1  0  0  0  0
  5 24  1  0  0  0  0
  5 25  1  0  0  0  0
  6 26  1  0  0  0  0
  6 27  1  0  0  0  0
  7 28  1  0  0  0  0
  7 29  1  0  0  0  0
  8 30  1  0  0  0  0
 10 31  1  0  0  0  0
 10 32  1  0  0  0  0
 10 33  1  0  0  0  0
 11 34  1  0  0  0  0
 11 35  1  0  0  0  0
 11 36  1  0  0  0  0
 12 37  1  0  0  0  0
 12 38  1  0  0  0  0
 12 39  1  0  0  0  0
 13 40  1  0  0  0  0
 13 41  1  0  0  0  0
 18 42  1  0  0  0  0
M  END
> <id>
EN300-1629028

> <smiles>
CC(C)(C)OC(=O)N1CC2CCC1(CC(=O)O)CC2

> <IUPAC Name>
2-{2-[(tert-butoxy)carbonyl]-2-azabicyclo[2.2.2]octan-1-yl}acetic acid

> <CAS>
2172478-94-1

> <URL>
https://www.enaminestore.com/catalog/EN300-1629028

> <ROCS_ShapeQuery>
x0446_0A_x1080_0A_x0929_0A_x0812_0A_x0719_0A_x1140_0A_x0528_0A_x0310_0A

> <ROCS_TanimotoCombo>
0.411 

> <ROCS_ShapeTanimoto>
0.213 

> <ROCS_ColorTanimoto>
0.198 

> <ROCS_RefTversky>
0.196 

> <ROCS_RefColorTversky>
0.222 

> <ROCS_RefTverskyCombo>
0.419 

> <ROCS_FitTversky>
1.636 

> <ROCS_FitColorTversky>
0.646 

> <ROCS_FitTverskyCombo>
2.283 

> <ROCS_ColorScore>
-7.977

> <ROCS_Overlap>
2319.332

> <ROCS_Rank>
433                 

$$$$
untitled-dbase-281107_6
  -OEChem-02082415563D

 43 46  0     0  0  0  0  0  0999 V2000
    3.6010   13.2220   19.8285 C   0  0  0  0  0  0  0  0  0  0  0  0
    4.8858   13.1572   20.4188 C   0  0  0  0  0  0  0  0  0  0  0  0
    2.8444   14.0270   20.6479 C   0  0  0  0  0  0  0  0  0  0  0  0
    4.8227   13.9274   21.5567 C   0  0  0  0  0  0  0  0  0  0  0  0
    8.2784   14.4185   22.1503 C   0  0  0  0  0  0  0  0  0  0  0  0
    9.1941   10.2470   22.7644 C   0  0  0  0  0  0  0  0  0  0  0  0
    9.5365   11.3908   24.9703 C   0  0  0  0  0  0  0  0  0  0  0  0
    7.2231   10.7736   24.2239 C   0  0  0  0  0  0  0  0  0  0  0  0
    9.8906   12.6553   22.8340 C   0  0  0  0  0  0  0  0  0  0  0  0
    7.5733   12.0370   22.0864 C   0  0  0  0  0  0  0  0  0  0  0  0
    7.9167   13.1832   24.2948 C   0  0  0  0  0  0  0  0  0  0  0  0
   10.0400   11.2863   23.5201 C   0  0  0  0  0  0  0  0  0  0  0  0
    7.7136   10.6654   22.7695 C   0  0  0  0  0  0  0  0  0  0  0  0
    8.0579   11.8164   24.9877 C   0  0  0  0  0  0  0  0  0  0  0  0
    8.4115   13.0903   22.8380 C   0  0  0  0  0  0  0  0  0  0  0  0
    6.7221   16.2360   21.4285 C   0  0  0  0  0  0  0  0  0  0  0  0
    5.8250   14.2725   22.6198 C   0  0  0  0  0  0  0  0  0  0  0  0
    6.9930   14.9552   22.0690 N   0  0  0  0  0  0  0  0  0  0  0  0
    9.2874   14.9655   21.6972 O   0  0  0  0  0  0  0  0  0  0  0  0
    3.5817   14.4612   21.7035 O   0  0  0  0  0  0  0  0  0  0  0  0
    3.2681   12.7418   18.9198 H   0  0  0  0  0  0  0  0  0  0  0  0
    5.7481   12.6152   20.0574 H   0  0  0  0  0  0  0  0  0  0  0  0
    1.8204   14.3695   20.6203 H   0  0  0  0  0  0  0  0  0  0  0  0
    9.5525   10.1518   21.7320 H   0  0  0  0  0  0  0  0  0  0  0  0
    9.3058    9.2618   23.2331 H   0  0  0  0  0  0  0  0  0  0  0  0
    9.6540   10.4253   25.4776 H   0  0  0  0  0  0  0  0  0  0  0  0
   10.1418   12.1179   25.5253 H   0  0  0  0  0  0  0  0  0  0  0  0
    6.1634   11.0563   24.2418 H   0  0  0  0  0  0  0  0  0  0  0  0
    7.3002    9.7975   24.7184 H   0  0  0  0  0  0  0  0  0  0  0  0
   10.5093   13.4019   23.3490 H   0  0  0  0  0  0  0  0  0  0  0  0
   10.2705   12.5995   21.8052 H   0  0  0  0  0  0  0  0  0  0  0  0
    7.8961   11.9663   21.0393 H   0  0  0  0  0  0  0  0  0  0  0  0
    6.5173   12.3366   22.0617 H   0  0  0  0  0  0  0  0  0  0  0  0
    6.8687   13.5095   24.3229 H   0  0  0  0  0  0  0  0  0  0  0  0
    8.4891   13.9414   24.8453 H   0  0  0  0  0  0  0  0  0  0  0  0
   11.0924   10.9820   23.5145 H   0  0  0  0  0  0  0  0  0  0  0  0
    7.1163    9.9209   22.2317 H   0  0  0  0  0  0  0  0  0  0  0  0
    7.7051   11.8878   26.0223 H   0  0  0  0  0  0  0  0  0  0  0  0
    6.5092   16.0751   20.3614 H   0  0  0  0  0  0  0  0  0  0  0  0
    5.8527   16.7091   21.9084 H   0  0  0  0  0  0  0  0  0  0  0  0
    7.5998   16.8907   21.5326 H   0  0  0  0  0  0  0  0  0  0  0  0
    5.3768   14.9272   23.3752 H   0  0  0  0  0  0  0  0  0  0  0  0
    6.1758   13.3728   23.1361 H   0  0  0  0  0  0  0  0  0  0  0  0
  1  2  1  0  0  0  0
  1  3  2  0  0  0  0
  2  4  2  0  0  0  0
  3 20  1  0  0  0  0
  4 17  1  0  0  0  0
  4 20  1  0  0  0  0
  5 15  1  0  0  0  0
  5 18  1  0  0  0  0
  5 19  2  0  0  0  0
  6 12  1  0  0  0  0
  6 13  1  0  0  0  0
  7 12  1  0  0  0  0
  7 14  1  0  0  0  0
  8 13  1  0  0  0  0
  8 14  1  0  0  0  0
  9 12  1  0  0  0  0
  9 15  1  0  0  0  0
 10 13  1  0  0  0  0
 10 15  1  0  0  0  0
 11 14  1  0  0  0  0
 11 15  1  0  0  0  0
 16 18  1  0  0  0  0
 17 18  1  0  0  0  0
  1 21  1  0  0  0  0
  2 22  1  0  0  0  0
  3 23  1  0  0  0  0
  6 24  1  0  0  0  0
  6 25  1  0  0  0  0
  7 26  1  0  0  0  0
  7 27  1  0  0  0  0
  8 28  1  0  0  0  0
  8 29  1  0  0  0  0
  9 30  1  0  0  0  0
  9 31  1  0  0  0  0
 10 32  1  0  0  0  0
 10 33  1  0  0  0  0
 11 34  1  0  0  0  0
 11 35  1  0  0  0  0
 12 36  1  0  0  0  0
 13 37  1  0  0  0  0
 14 38  1  0  0  0  0
 16 39  1  0  0  0  0
 16 40  1  0  0  0  0
 16 41  1  0  0  0  0
 17 42  1  0  0  0  0
 17 43  1  0  0  0  0
M  END
> <id>
EN300-26763662

> <smiles>
CN(CC1=CC=CO1)C(=O)C2(CC3CC4CC(C3)C2)C4

> <IUPAC Name>
N-[(furan-2-yl)methyl]-N-methyladamantane-1-carboxamide

> <CAS>
911057-64-2

> <URL>
https://www.enaminestore.com/catalog/EN300-26763662

> <ROCS_ShapeQuery>
x0446_0A_x1080_0A_x0929_0A_x0812_0A_x0719_0A_x1140_0A_x0528_0A_x0310_0A

> <ROCS_TanimotoCombo>
0.411 

> <ROCS_ShapeTanimoto>
0.221 

> <ROCS_ColorTanimoto>
0.190 

> <ROCS_RefTversky>
0.204 

> <ROCS_RefColorTversky>
0.208 

> <ROCS_RefTverskyCombo>
0.412 

> <ROCS_FitTversky>
1.611 

> <ROCS_FitColorTversky>
0.686 

> <ROCS_FitTverskyCombo>
2.297 

> <ROCS_ColorScore>
-7.449

> <ROCS_Overlap>
2406.832

> <ROCS_Rank>
434                 

$$$$
untitled-dbase-295954_6
  -OEChem-02082415563D

 35 37  0     1  0  0  0  0  0999 V2000
    6.3716   13.1221   25.2107 C   0  0  0  0  0  0  0  0  0  0  0  0
    9.3830   10.5929   23.3481 C   0  0  0  0  0  0  0  0  0  0  0  0
    7.5297   10.8876   24.3590 C   0  0  0  0  0  0  0  0  0  0  0  0
    8.0821   12.1487   24.2018 C   0  0  0  0  0  0  0  0  0  0  0  0
    6.2982   10.8160   25.0023 C   0  0  0  0  0  0  0  0  0  0  0  0
    9.3540   14.9218   22.1300 C   0  0  1  0  0  0  0  0  0  0  0  0
    9.9541   13.5729   21.7805 C   0  0  2  0  0  0  0  0  0  0  0  0
   10.0851   15.2775   23.4130 C   0  0  1  0  0  0  0  0  0  0  0  0
   10.2379   12.9613   23.1536 C   0  0  2  0  0  0  0  0  0  0  0  0
    4.3987    9.4456   25.8623 C   0  0  0  0  0  0  0  0  0  0  0  0
    9.3367   16.2745   24.2795 C   0  0  0  0  0  0  0  0  0  0  0  0
    7.5616   13.3184   24.6022 N   0  0  0  0  0  0  0  0  0  0  0  0
    5.7132   11.9592   25.4342 N   0  0  0  0  0  0  0  0  0  0  0  0
    8.3507    9.9275   23.8228 N   0  0  0  0  0  0  0  0  0  0  0  0
    9.2665   11.9420   23.5540 N   0  0  0  0  0  0  0  0  0  0  0  0
    5.6651    9.5778   25.2049 N   0  0  0  0  0  0  0  0  0  0  0  0
   10.2339   14.0348   24.1189 O   0  0  0  0  0  0  0  0  0  0  0  0
    9.5378   15.8963   21.1257 O   0  0  0  0  0  0  0  0  0  0  0  0
   11.1820   13.7225   21.0698 O   0  0  0  0  0  0  0  0  0  0  0  0
   10.1001   16.5237   25.4468 O   0  0  0  0  0  0  0  0  0  0  0  0
    5.8742   14.0171   25.5693 H   0  0  0  0  0  0  0  0  0  0  0  0
   10.2380   10.1564   22.8501 H   0  0  0  0  0  0  0  0  0  0  0  0
    8.2307   14.8341   22.2873 H   0  0  0  0  0  0  0  0  0  0  0  0
    9.2787   12.9738   21.1954 H   0  0  0  0  0  0  0  0  0  0  0  0
   11.1009   15.6584   23.2030 H   0  0  0  0  0  0  0  0  0  0  0  0
   11.2324   12.4507   23.1889 H   0  0  0  0  0  0  0  0  0  0  0  0
    4.0343   10.4397   26.1606 H   0  0  0  0  0  0  0  0  0  0  0  0
    3.6759    8.9813   25.1753 H   0  0  0  0  0  0  0  0  0  0  0  0
    4.5136    8.8140   26.7555 H   0  0  0  0  0  0  0  0  0  0  0  0
    8.3660   15.8674   24.5663 H   0  0  0  0  0  0  0  0  0  0  0  0
    9.1949   17.2106   23.7373 H   0  0  0  0  0  0  0  0  0  0  0  0
    6.1390    8.7587   24.8670 H   0  0  0  0  0  0  0  0  0  0  0  0
    9.1199   16.7075   21.4519 H   0  0  0  0  0  0  0  0  0  0  0  0
   11.5140   12.8283   20.8762 H   0  0  0  0  0  0  0  0  0  0  0  0
    9.6005   17.1629   25.9825 H   0  0  0  0  0  0  0  0  0  0  0  0
  1 12  1  0  0  0  0
  1 13  2  0  0  0  0
  2 14  2  0  0  0  0
  2 15  1  0  0  0  0
  3  4  1  0  0  0  0
  3  5  2  0  0  0  0
  3 14  1  0  0  0  0
  4 12  2  0  0  0  0
  4 15  1  0  0  0  0
  5 13  1  0  0  0  0
  5 16  1  0  0  0  0
  6  7  1  0  0  0  0
  6  8  1  0  0  0  0
  6 18  1  1  0  0  0
  7  9  1  0  0  0  0
  7 19  1  1  0  0  0
  8 11  1  6  0  0  0
  8 17  1  0  0  0  0
  9 15  1  6  0  0  0
  9 17  1  0  0  0  0
 10 16  1  0  0  0  0
 11 20  1  0  0  0  0
  1 21  1  0  0  0  0
  2 22  1  0  0  0  0
  6 23  1  0  0  0  0
  7 24  1  0  0  0  0
  8 25  1  0  0  0  0
  9 26  1  0  0  0  0
 10 27  1  0  0  0  0
 10 28  1  0  0  0  0
 10 29  1  0  0  0  0
 11 30  1  0  0  0  0
 11 31  1  0  0  0  0
 16 32  1  0  0  0  0
 18 33  1  0  0  0  0
 19 34  1  0  0  0  0
 20 35  1  0  0  0  0
M  END
> <id>
EN300-255003

> <smiles>
CNC=1N=CN=C2N(C=NC12)[C@@H]3O[C@H](CO)[C@@H](O)[C@H]3O

> <MDLNUMBER>
MFCD00005739

> <IUPAC Name>
(2R,3S,4R,5R)-2-(hydroxymethyl)-5-[6-(methylamino)-9H-purin-9-yl]oxolane-3,4-diol

> <CAS>
1867-73-8

> <URL>
https://www.enaminestore.com/catalog/EN300-255003

> <ROCS_ShapeQuery>
x0446_0A_x1080_0A_x0929_0A_x0812_0A_x0719_0A_x1140_0A_x0528_0A_x0310_0A

> <ROCS_TanimotoCombo>
0.411 

> <ROCS_ShapeTanimoto>
0.226 

> <ROCS_ColorTanimoto>
0.185 

> <ROCS_RefTversky>
0.208 

> <ROCS_RefColorTversky>
0.226 

> <ROCS_RefTverskyCombo>
0.434 

> <ROCS_FitTversky>
1.632 

> <ROCS_FitColorTversky>
0.505 

> <ROCS_FitTverskyCombo>
2.138 

> <ROCS_ColorScore>
-8.160

> <ROCS_Overlap>
2450.771

> <ROCS_Rank>
435                 

$$$$
untitled-dbase-276199_2
  -OEChem-02082415563D

 29 30  0     1  0  0  0  0  0999 V2000
    6.4963   12.6477   24.7309 C   0  0  0  0  0  0  0  0  0  0  0  0
    9.8557   13.5454   23.1320 C   0  0  0  0  0  0  0  0  0  0  0  0
    8.5952   10.4393   22.4274 C   0  0  0  0  0  0  0  0  0  0  0  0
    9.7672   10.1056   23.3855 C   0  0  0  0  0  0  0  0  0  0  0  0
    7.3382   11.4756   24.3233 C   0  0  2  0  0  0  0  0  0  0  0  0
    8.5198   11.1467   25.2964 C   0  0  1  0  0  0  0  0  0  0  0  0
    8.0661   11.7684   22.9925 C   0  0  1  0  0  0  0  0  0  0  0  0
    9.7545   11.2917   24.3691 C   0  0  2  0  0  0  0  0  0  0  0  0
    9.5573   14.0045   21.7296 C   0  0  0  0  0  0  0  0  0  0  0  0
    8.6297   12.0462   26.5244 C   0  0  0  0  0  0  0  0  0  0  0  0
    9.3009   12.3438   23.4821 N   0  0  0  0  0  0  0  0  0  0  0  0
    6.7270   13.8122   24.4409 O   0  0  0  0  0  0  0  0  0  0  0  0
   10.5542   14.2278   23.8819 O   0  0  0  0  0  0  0  0  0  0  0  0
    5.4371   12.2414   25.4726 O   0  0  0  0  0  0  0  0  0  0  0  0
    8.7819   13.1084   21.0919 F   0  0  0  0  0  0  0  0  0  0  0  0
    8.9113   15.1851   21.7423 F   0  0  0  0  0  0  0  0  0  0  0  0
   10.6930   14.1552   21.0233 F   0  0  0  0  0  0  0  0  0  0  0  0
    9.7079   11.7080   27.2484 F   0  0  0  0  0  0  0  0  0  0  0  0
    8.7453   13.3288   26.1473 F   0  0  0  0  0  0  0  0  0  0  0  0
    7.5352   11.9162   27.2901 F   0  0  0  0  0  0  0  0  0  0  0  0
    8.9745   10.5699   21.4076 H   0  0  0  0  0  0  0  0  0  0  0  0
    7.8390    9.6483   22.4175 H   0  0  0  0  0  0  0  0  0  0  0  0
    9.6262    9.1396   23.8801 H   0  0  0  0  0  0  0  0  0  0  0  0
   10.7080   10.0734   22.8241 H   0  0  0  0  0  0  0  0  0  0  0  0
    6.6685   10.6122   24.2348 H   0  0  0  0  0  0  0  0  0  0  0  0
    8.4268   10.1095   25.6426 H   0  0  0  0  0  0  0  0  0  0  0  0
    7.5263   12.3938   22.2777 H   0  0  0  0  0  0  0  0  0  0  0  0
   10.7048   11.4682   24.8754 H   0  0  0  0  0  0  0  0  0  0  0  0
    4.8741   12.9949   25.7511 H   0  0  0  0  0  0  0  0  0  0  0  0
  1  5  1  1  0  0  0
  1 12  2  0  0  0  0
  1 14  1  0  0  0  0
  2  9  1  0  0  0  0
  2 11  1  0  0  0  0
  2 13  2  0  0  0  0
  3  4  1  0  0  0  0
  3  7  1  0  0  0  0
  4  8  1  0  0  0  0
  5  6  1  0  0  0  0
  5  7  1  0  0  0  0
  6  8  1  0  0  0  0
  6 10  1  1  0  0  0
  7 11  1  1  0  0  0
  8 11  1  1  0  0  0
  9 15  1  0  0  0  0
  9 16  1  0  0  0  0
  9 17  1  0  0  0  0
 10 18  1  0  0  0  0
 10 19  1  0  0  0  0
 10 20  1  0  0  0  0
  3 21  1  0  0  0  0
  3 22  1  0  0  0  0
  4 23  1  0  0  0  0
  4 24  1  0  0  0  0
  5 25  1  0  0  0  0
  6 26  1  0  0  0  0
  7 27  1  0  0  0  0
  8 28  1  0  0  0  0
 14 29  1  0  0  0  0
M  END
> <id>
EN300-37419455

> <smiles>
OC(=O)[C@@H]1[C@@H]([C@H]2CC[C@@H]1N2C(=O)C(F)(F)F)C(F)(F)F |&1:3,4,5,8,r|

> <IUPAC Name>
rac-(1R,2S,3R,4S)-7-(2,2,2-trifluoroacetyl)-3-(trifluoromethyl)-7-azabicyclo[2.2.1]heptane-2-carboxylic acid

> <URL>
https://www.enaminestore.com/catalog/EN300-37419455

> <ROCS_ShapeQuery>
x0446_0A_x1080_0A_x0929_0A_x0812_0A_x0719_0A_x1140_0A_x0528_0A_x0310_0A

> <ROCS_TanimotoCombo>
0.411 

> <ROCS_ShapeTanimoto>
0.233 

> <ROCS_ColorTanimoto>
0.178 

> <ROCS_RefTversky>
0.213 

> <ROCS_RefColorTversky>
0.200 

> <ROCS_RefTverskyCombo>
0.414 

> <ROCS_FitTversky>
1.662 

> <ROCS_FitColorTversky>
0.613 

> <ROCS_FitTverskyCombo>
2.275 

> <ROCS_ColorScore>
-7.186

> <ROCS_Overlap>
2516.918

> <ROCS_Rank>
436                 

$$$$
untitled-dbase-276093_7
  -OEChem-02082415563D

 34 36  0     0  0  0  0  0  0999 V2000
   13.1952   15.3892   22.0967 C   0  0  0  0  0  0  0  0  0  0  0  0
   12.7958   14.0666   22.2890 C   0  0  0  0  0  0  0  0  0  0  0  0
   12.2376   16.3948   21.9646 C   0  0  0  0  0  0  0  0  0  0  0  0
   10.4811   14.7552   22.2168 C   0  0  0  0  0  0  0  0  0  0  0  0
   11.4388   13.7496   22.3490 C   0  0  0  0  0  0  0  0  0  0  0  0
   10.8805   16.0778   22.0246 C   0  0  0  0  0  0  0  0  0  0  0  0
    5.5690   11.8615   25.5952 C   0  0  0  0  0  0  0  0  0  0  0  0
    5.9017   13.2487   25.4424 C   0  0  0  0  0  0  0  0  0  0  0  0
    6.3892   10.9237   25.1124 C   0  0  0  0  0  0  0  0  0  0  0  0
    9.6377   10.6451   23.2844 C   0  0  0  0  0  0  0  0  0  0  0  0
    7.0263   13.6325   24.8210 C   0  0  0  0  0  0  0  0  0  0  0  0
    9.9014   11.9726   23.1686 C   0  0  0  0  0  0  0  0  0  0  0  0
    7.9503   12.5728   24.2769 C   0  0  0  0  0  0  0  0  0  0  0  0
    8.3776   10.2088   23.9807 C   0  0  0  0  0  0  0  0  0  0  0  0
   10.5479    9.6126   22.7490 C   0  0  0  0  0  0  0  0  0  0  0  0
    7.4073   15.0690   24.6411 C   0  0  0  0  0  0  0  0  0  0  0  0
    9.0411   12.9276   23.6743 N   0  0  0  0  0  0  0  0  0  0  0  0
    7.5724   11.2432   24.4566 N   0  0  0  0  0  0  0  0  0  0  0  0
   11.0411   12.4311   22.5402 N   0  0  0  0  0  0  0  0  0  0  0  0
    8.1306    9.0078   24.0908 O   0  0  0  0  0  0  0  0  0  0  0  0
   11.7508    9.7884   22.6693 O   0  0  0  0  0  0  0  0  0  0  0  0
    9.6998   17.3189   21.8605 Cl  0  0  0  0  0  0  0  0  0  0  0  0
   14.2520   15.6352   22.0495 H   0  0  0  0  0  0  0  0  0  0  0  0
   13.5499   13.2907   22.3910 H   0  0  0  0  0  0  0  0  0  0  0  0
   12.5633   17.4210   21.8152 H   0  0  0  0  0  0  0  0  0  0  0  0
    9.4237   14.5033   22.2639 H   0  0  0  0  0  0  0  0  0  0  0  0
    4.6495   11.5982   26.1044 H   0  0  0  0  0  0  0  0  0  0  0  0
    5.2059   13.9748   25.8499 H   0  0  0  0  0  0  0  0  0  0  0  0
    6.1449    9.8730   25.2239 H   0  0  0  0  0  0  0  0  0  0  0  0
   10.0511    8.6863   22.4327 H   0  0  0  0  0  0  0  0  0  0  0  0
    8.0015   15.3991   25.4913 H   0  0  0  0  0  0  0  0  0  0  0  0
    6.5088   15.6799   24.5679 H   0  0  0  0  0  0  0  0  0  0  0  0
    7.9882   15.1818   23.7270 H   0  0  0  0  0  0  0  0  0  0  0  0
   11.6346   11.7018   22.1902 H   0  0  0  0  0  0  0  0  0  0  0  0
  1  2  2  0  0  0  0
  1  3  1  0  0  0  0
  2  5  1  0  0  0  0
  3  6  2  0  0  0  0
  4  5  2  0  0  0  0
  4  6  1  0  0  0  0
  5 19  1  0  0  0  0
  6 22  1  0  0  0  0
  7  8  1  0  0  0  0
  7  9  2  0  0  0  0
  8 11  2  0  0  0  0
  9 18  1  0  0  0  0
 10 12  2  0  0  0  0
 10 14  1  0  0  0  0
 10 15  1  0  0  0  0
 11 13  1  0  0  0  0
 11 16  1  0  0  0  0
 12 17  1  0  0  0  0
 12 19  1  0  0  0  0
 13 17  2  0  0  0  0
 13 18  1  0  0  0  0
 14 18  1  0  0  0  0
 14 20  2  0  0  0  0
 15 21  2  0  0  0  0
  1 23  1  0  0  0  0
  2 24  1  0  0  0  0
  3 25  1  0  0  0  0
  4 26  1  0  0  0  0
  7 27  1  0  0  0  0
  8 28  1  0  0  0  0
  9 29  1  0  0  0  0
 15 30  1  0  0  0  0
 16 31  1  0  0  0  0
 16 32  1  0  0  0  0
 16 33  1  0  0  0  0
 19 34  1  0  0  0  0
M  END
> <id>
EN300-1189400

> <smiles>
CC1=CC=CN2C(=O)C(C=O)=C(NC=3C=CC=C(Cl)C3)N=C12

> <MDLNUMBER>
MFCD00858416

> <IUPAC Name>
2-[(3-chlorophenyl)amino]-9-methyl-4-oxo-4H-pyrido[1,2-a]pyrimidine-3-carbaldehyde

> <CAS>
324037-15-2

> <URL>
https://www.enaminestore.com/catalog/EN300-1189400

> <ROCS_ShapeQuery>
x0446_0A_x1080_0A_x0929_0A_x0812_0A_x0719_0A_x1140_0A_x0528_0A_x0310_0A

> <ROCS_TanimotoCombo>
0.411 

> <ROCS_ShapeTanimoto>
0.273 

> <ROCS_ColorTanimoto>
0.137 

> <ROCS_RefTversky>
0.243 

> <ROCS_RefColorTversky>
0.150 

> <ROCS_RefTverskyCombo>
0.393 

> <ROCS_FitTversky>
1.819 

> <ROCS_FitColorTversky>
0.627 

> <ROCS_FitTverskyCombo>
2.446 

> <ROCS_ColorScore>
-5.343

> <ROCS_Overlap>
2874.944

> <ROCS_Rank>
437                 

$$$$
untitled-dbase-50595_1
  -OEChem-02082415563D

 36 38  0     1  0  0  0  0  0999 V2000
    6.0734   12.1684   24.4248 C   0  0  0  0  0  0  0  0  0  0  0  0
   10.1633   15.0584   22.3998 C   0  0  0  0  0  0  0  0  0  0  0  0
    9.6025    9.8996   23.4068 C   0  0  0  0  0  0  0  0  0  0  0  0
    7.5085   11.0836   22.6980 C   0  0  0  0  0  0  0  0  0  0  0  0
    8.1457   10.9995   25.1264 C   0  0  0  0  0  0  0  0  0  0  0  0
    9.7498   12.0616   22.1450 C   0  0  0  0  0  0  0  0  0  0  0  0
   10.3874   11.9770   24.5726 C   0  0  0  0  0  0  0  0  0  0  0  0
    8.2905   13.1654   23.8644 C   0  0  0  0  0  0  0  0  0  0  0  0
    8.9572   10.7526   22.3020 C   0  0  1  0  0  0  0  0  0  0  0  0
    9.5968   10.6679   24.7389 C   0  0  2  0  0  0  0  0  0  0  0  0
    7.4891   11.8595   24.0292 C   0  0  0  0  0  0  0  0  0  0  0  0
    9.7518   12.8529   23.4716 C   0  0  0  0  0  0  0  0  0  0  0  0
   11.0742   16.2410   22.4119 C   0  0  0  0  0  0  0  0  0  0  0  0
   10.5008   14.0804   23.3148 N   0  0  0  0  0  0  0  0  0  0  0  0
    5.5358   11.7954   25.4569 O   0  0  0  0  0  0  0  0  0  0  0  0
    9.2193   15.0309   21.6190 O   0  0  0  0  0  0  0  0  0  0  0  0
    5.4643   12.9204   23.4756 O   0  0  0  0  0  0  0  0  0  0  0  0
    9.0562    8.9547   23.5173 H   0  0  0  0  0  0  0  0  0  0  0  0
   10.6314    9.6415   23.1277 H   0  0  0  0  0  0  0  0  0  0  0  0
    7.0283   11.6728   21.9057 H   0  0  0  0  0  0  0  0  0  0  0  0
    6.9266   10.1567   22.7859 H   0  0  0  0  0  0  0  0  0  0  0  0
    7.5778   10.0716   25.2754 H   0  0  0  0  0  0  0  0  0  0  0  0
    8.1269   11.5276   26.0889 H   0  0  0  0  0  0  0  0  0  0  0  0
   10.7784   11.8314   21.8378 H   0  0  0  0  0  0  0  0  0  0  0  0
    9.3050   12.6646   21.3425 H   0  0  0  0  0  0  0  0  0  0  0  0
   10.4041   12.5185   25.5275 H   0  0  0  0  0  0  0  0  0  0  0  0
   11.4300   11.7434   24.3202 H   0  0  0  0  0  0  0  0  0  0  0  0
    7.8171   13.7988   23.1012 H   0  0  0  0  0  0  0  0  0  0  0  0
    8.2663   13.7418   24.7997 H   0  0  0  0  0  0  0  0  0  0  0  0
    8.9648   10.1999   21.3560 H   0  0  0  0  0  0  0  0  0  0  0  0
   10.0574   10.0546   25.5214 H   0  0  0  0  0  0  0  0  0  0  0  0
   11.9223   16.1257   21.7178 H   0  0  0  0  0  0  0  0  0  0  0  0
   10.5655   17.1668   22.0986 H   0  0  0  0  0  0  0  0  0  0  0  0
   11.5283   16.4761   23.3877 H   0  0  0  0  0  0  0  0  0  0  0  0
   11.3128   14.2301   23.9052 H   0  0  0  0  0  0  0  0  0  0  0  0
    4.5367   13.1315   23.7149 H   0  0  0  0  0  0  0  0  0  0  0  0
  1 11  1  0  0  0  0
  1 15  2  0  0  0  0
  1 17  1  0  0  0  0
  2 13  1  0  0  0  0
  2 14  1  0  0  0  0
  2 16  2  0  0  0  0
  3  9  1  0  0  0  0
  3 10  1  0  0  0  0
  4  9  1  0  0  0  0
  4 11  1  0  0  0  0
  5 10  1  0  0  0  0
  5 11  1  0  0  0  0
  6  9  1  0  0  0  0
  6 12  1  0  0  0  0
  7 10  1  0  0  0  0
  7 12  1  0  0  0  0
  8 11  1  0  0  0  0
  8 12  1  0  0  0  0
 12 14  1  0  0  0  0
  3 18  1  0  0  0  0
  3 19  1  0  0  0  0
  4 20  1  0  0  0  0
  4 21  1  0  0  0  0
  5 22  1  0  0  0  0
  5 23  1  0  0  0  0
  6 24  1  0  0  0  0
  6 25  1  0  0  0  0
  7 26  1  0  0  0  0
  7 27  1  0  0  0  0
  8 28  1  0  0  0  0
  8 29  1  0  0  0  0
  9 30  1  0  0  0  0
 10 31  1  0  0  0  0
 13 32  1  0  0  0  0
 13 33  1  0  0  0  0
 13 34  1  0  0  0  0
 14 35  1  0  0  0  0
 17 36  1  0  0  0  0
M  END
> <id>
EN300-06585

> <smiles>
CC(=O)NC1(CC2CC3C1)CC(C2)(C3)C(=O)O

> <MDLNUMBER>
MFCD00154633

> <IUPAC Name>
3-acetamidoadamantane-1-carboxylic acid

> <CAS>
6240-00-2

> <Purity>
95

> <URL>
https://www.enaminestore.com/catalog/EN300-06585

> <MP>
255-256

> <ROCS_ShapeQuery>
x0446_0A_x1080_0A_x0929_0A_x0812_0A_x0719_0A_x1140_0A_x0528_0A_x0310_0A

> <ROCS_TanimotoCombo>
0.411 

> <ROCS_ShapeTanimoto>
0.229 

> <ROCS_ColorTanimoto>
0.182 

> <ROCS_RefTversky>
0.208 

> <ROCS_RefColorTversky>
0.208 

> <ROCS_RefTverskyCombo>
0.416 

> <ROCS_FitTversky>
1.815 

> <ROCS_FitColorTversky>
0.586 

> <ROCS_FitTverskyCombo>
2.401 

> <ROCS_ColorScore>
-7.483

> <ROCS_Overlap>
2451.604

> <ROCS_Rank>
438                 

$$$$
untitled-dbase-119605_9
  -OEChem-02082415563D

 43 45  0     0  0  0  0  0  0999 V2000
    8.1097   10.0820   24.7356 C   0  0  0  0  0  0  0  0  0  0  0  0
   10.3305   11.2392   24.6071 C   0  0  0  0  0  0  0  0  0  0  0  0
    9.2968   10.2763   22.5355 C   0  0  0  0  0  0  0  0  0  0  0  0
    8.2469   12.5685   25.0325 C   0  0  0  0  0  0  0  0  0  0  0  0
    7.2107   11.6035   22.9562 C   0  0  0  0  0  0  0  0  0  0  0  0
    9.4365   12.7632   22.8271 C   0  0  0  0  0  0  0  0  0  0  0  0
    8.9591   11.2316   25.3026 C   0  0  0  0  0  0  0  0  0  0  0  0
    7.9202   10.2639   23.2206 C   0  0  0  0  0  0  0  0  0  0  0  0
   10.1521   11.4268   23.0914 C   0  0  0  0  0  0  0  0  0  0  0  0
    8.0495   12.7784   23.5125 C   0  0  0  0  0  0  0  0  0  0  0  0
    4.9189   17.6554   21.9888 C   0  0  0  0  0  0  0  0  0  0  0  0
    7.3995   17.6758   22.4271 C   0  0  0  0  0  0  0  0  0  0  0  0
    7.3406   14.1092   23.2476 C   0  0  0  0  0  0  0  0  0  0  0  0
    6.1364   16.8288   22.3767 C   0  0  0  0  0  0  0  0  0  0  0  0
    6.3232   15.7515   21.3882 N   0  0  0  0  0  0  0  0  0  0  0  0
    8.8781   15.3757   21.5498 O   0  0  0  0  0  0  0  0  0  0  0  0
    7.3938   13.5203   20.7068 O   0  0  0  0  0  0  0  0  0  0  0  0
    7.6160   14.6502   21.5992 S   0  0  0  0  0  0  0  0  0  0  0  0
    8.5973    9.1206   24.9391 H   0  0  0  0  0  0  0  0  0  0  0  0
    7.1334   10.0555   25.2350 H   0  0  0  0  0  0  0  0  0  0  0  0
   10.9526   12.0458   25.0141 H   0  0  0  0  0  0  0  0  0  0  0  0
   10.8576   10.2984   24.8084 H   0  0  0  0  0  0  0  0  0  0  0  0
    9.8053    9.3183   22.7000 H   0  0  0  0  0  0  0  0  0  0  0  0
    9.1750   10.3899   21.4512 H   0  0  0  0  0  0  0  0  0  0  0  0
    7.2769   12.5794   25.5462 H   0  0  0  0  0  0  0  0  0  0  0  0
    8.8365   13.3919   25.4558 H   0  0  0  0  0  0  0  0  0  0  0  0
    7.0506   11.7288   21.8775 H   0  0  0  0  0  0  0  0  0  0  0  0
    6.2171   11.5923   23.4226 H   0  0  0  0  0  0  0  0  0  0  0  0
   10.0531   13.5913   23.2001 H   0  0  0  0  0  0  0  0  0  0  0  0
    9.3269   12.9146   21.7456 H   0  0  0  0  0  0  0  0  0  0  0  0
    9.0924   11.0955   26.3817 H   0  0  0  0  0  0  0  0  0  0  0  0
    7.3162    9.4411   22.8219 H   0  0  0  0  0  0  0  0  0  0  0  0
   11.1321   11.4294   22.6013 H   0  0  0  0  0  0  0  0  0  0  0  0
    5.0642   18.1292   21.0125 H   0  0  0  0  0  0  0  0  0  0  0  0
    4.0157   17.0372   21.9372 H   0  0  0  0  0  0  0  0  0  0  0  0
    4.7351   18.4455   22.7252 H   0  0  0  0  0  0  0  0  0  0  0  0
    7.5876   18.1505   21.4578 H   0  0  0  0  0  0  0  0  0  0  0  0
    8.2707   17.0622   22.6787 H   0  0  0  0  0  0  0  0  0  0  0  0
    7.3171   18.4737   23.1736 H   0  0  0  0  0  0  0  0  0  0  0  0
    7.7217   14.8746   23.9188 H   0  0  0  0  0  0  0  0  0  0  0  0
    6.2689   13.9951   23.3876 H   0  0  0  0  0  0  0  0  0  0  0  0
    5.9689   16.3651   23.3549 H   0  0  0  0  0  0  0  0  0  0  0  0
    5.4440   15.3671   21.0189 H   0  0  0  0  0  0  0  0  0  0  0  0
  1  7  1  0  0  0  0
  1  8  1  0  0  0  0
  2  7  1  0  0  0  0
  2  9  1  0  0  0  0
  3  8  1  0  0  0  0
  3  9  1  0  0  0  0
  4  7  1  0  0  0  0
  4 10  1  0  0  0  0
  5  8  1  0  0  0  0
  5 10  1  0  0  0  0
  6  9  1  0  0  0  0
  6 10  1  0  0  0  0
 10 13  1  0  0  0  0
 11 14  1  0  0  0  0
 12 14  1  0  0  0  0
 13 18  1  0  0  0  0
 14 15  1  0  0  0  0
 15 18  1  0  0  0  0
 16 18  2  0  0  0  0
 17 18  2  0  0  0  0
  1 19  1  0  0  0  0
  1 20  1  0  0  0  0
  2 21  1  0  0  0  0
  2 22  1  0  0  0  0
  3 23  1  0  0  0  0
  3 24  1  0  0  0  0
  4 25  1  0  0  0  0
  4 26  1  0  0  0  0
  5 27  1  0  0  0  0
  5 28  1  0  0  0  0
  6 29  1  0  0  0  0
  6 30  1  0  0  0  0
  7 31  1  0  0  0  0
  8 32  1  0  0  0  0
  9 33  1  0  0  0  0
 11 34  1  0  0  0  0
 11 35  1  0  0  0  0
 11 36  1  0  0  0  0
 12 37  1  0  0  0  0
 12 38  1  0  0  0  0
 12 39  1  0  0  0  0
 13 40  1  0  0  0  0
 13 41  1  0  0  0  0
 14 42  1  0  0  0  0
 15 43  1  0  0  0  0
M  END
> <id>
EN300-844067

> <smiles>
CC(C)NS(=O)(=O)CC1(CC2CC3CC(C2)C1)C3

> <IUPAC Name>
1-(adamantan-1-yl)-N-(propan-2-yl)methanesulfonamide

> <CAS>
2138232-18-3

> <URL>
https://www.enaminestore.com/catalog/EN300-844067

> <ROCS_ShapeQuery>
x0446_0A_x1080_0A_x0929_0A_x0812_0A_x0719_0A_x1140_0A_x0528_0A_x0310_0A

> <ROCS_TanimotoCombo>
0.411 

> <ROCS_ShapeTanimoto>
0.205 

> <ROCS_ColorTanimoto>
0.205 

> <ROCS_RefTversky>
0.190 

> <ROCS_RefColorTversky>
0.226 

> <ROCS_RefTverskyCombo>
0.416 

> <ROCS_FitTversky>
1.662 

> <ROCS_FitColorTversky>
0.687 

> <ROCS_FitTverskyCombo>
2.349 

> <ROCS_ColorScore>
-8.116

> <ROCS_Overlap>
2241.703

> <ROCS_Rank>
439                 

$$$$
untitled-dbase-410826_2
  -OEChem-02082415563D

 42 45  0     1  0  0  0  0  0999 V2000
    7.5723   12.5055   24.3732 C   0  0  0  0  0  0  0  0  0  0  0  0
    7.8782   10.8428   22.5689 C   0  0  0  0  0  0  0  0  0  0  0  0
   11.0293   15.6549   21.1040 C   0  0  0  0  0  0  0  0  0  0  0  0
   12.6651   14.3015   22.4502 C   0  0  0  0  0  0  0  0  0  0  0  0
    8.0179   11.4796   25.4243 C   0  0  0  0  0  0  0  0  0  0  0  0
    8.1314    9.8174   23.6856 C   0  0  0  0  0  0  0  0  0  0  0  0
   10.7138   13.1593   21.2764 C   0  0  0  0  0  0  0  0  0  0  0  0
   10.1142   11.0171   24.3224 C   0  0  0  0  0  0  0  0  0  0  0  0
   11.5549   16.9396   21.7473 C   0  0  0  0  0  0  0  0  0  0  0  0
   13.4269   15.6254   22.3684 C   0  0  0  0  0  0  0  0  0  0  0  0
   10.2693   14.5870   23.2685 C   0  0  0  0  0  0  0  0  0  0  0  0
    8.3235   12.2350   23.0530 C   0  0  0  0  0  0  0  0  0  0  0  0
   11.1741   14.4297   22.0258 C   0  0  0  0  0  0  0  0  0  0  0  0
    9.8573   12.2121   23.3484 C   0  0  2  0  0  0  0  0  0  0  0  0
   10.6822   11.9841   22.1474 N   0  0  0  0  0  0  0  0  0  0  0  0
    8.8545   10.4187   24.8280 N   0  0  0  0  0  0  0  0  0  0  0  0
   12.5816   16.7139   22.7131 O   0  0  0  0  0  0  0  0  0  0  0  0
   10.2620   13.3976   24.0604 O   0  0  0  0  0  0  0  0  0  0  0  0
    6.4900   12.4266   24.2081 H   0  0  0  0  0  0  0  0  0  0  0  0
    7.7612   13.5229   24.7348 H   0  0  0  0  0  0  0  0  0  0  0  0
    8.4068   10.5535   21.6551 H   0  0  0  0  0  0  0  0  0  0  0  0
    6.8098   10.8585   22.3215 H   0  0  0  0  0  0  0  0  0  0  0  0
    9.9635   15.8040   20.8781 H   0  0  0  0  0  0  0  0  0  0  0  0
   11.5353   15.4888   20.1441 H   0  0  0  0  0  0  0  0  0  0  0  0
   13.1913   13.5382   21.8619 H   0  0  0  0  0  0  0  0  0  0  0  0
   12.6984   13.9630   23.4967 H   0  0  0  0  0  0  0  0  0  0  0  0
    8.5714   11.9788   26.2294 H   0  0  0  0  0  0  0  0  0  0  0  0
    7.1383   11.0335   25.9043 H   0  0  0  0  0  0  0  0  0  0  0  0
    7.1793    9.3961   24.0316 H   0  0  0  0  0  0  0  0  0  0  0  0
    8.7012    8.9680   23.2892 H   0  0  0  0  0  0  0  0  0  0  0  0
    9.7199   13.3155   20.8317 H   0  0  0  0  0  0  0  0  0  0  0  0
   11.3792   12.9347   20.4333 H   0  0  0  0  0  0  0  0  0  0  0  0
   10.6943   10.2175   23.8407 H   0  0  0  0  0  0  0  0  0  0  0  0
   10.7254   11.3376   25.1766 H   0  0  0  0  0  0  0  0  0  0  0  0
   11.9214   17.6556   20.9865 H   0  0  0  0  0  0  0  0  0  0  0  0
   10.7252   17.4540   22.2657 H   0  0  0  0  0  0  0  0  0  0  0  0
   14.2578   15.6111   23.0806 H   0  0  0  0  0  0  0  0  0  0  0  0
   13.8561   15.7891   21.3746 H   0  0  0  0  0  0  0  0  0  0  0  0
   10.6285   15.4015   23.9085 H   0  0  0  0  0  0  0  0  0  0  0  0
    9.2422   14.8465   22.9854 H   0  0  0  0  0  0  0  0  0  0  0  0
    8.0530   12.9979   22.3165 H   0  0  0  0  0  0  0  0  0  0  0  0
   10.3528   11.1768   21.6292 H   0  0  0  0  0  0  0  0  0  0  0  0
  1  5  1  0  0  0  0
  1 12  1  0  0  0  0
  2  6  1  0  0  0  0
  2 12  1  0  0  0  0
  3  9  1  0  0  0  0
  3 13  1  0  0  0  0
  4 10  1  0  0  0  0
  4 13  1  0  0  0  0
  5 16  1  0  0  0  0
  6 16  1  0  0  0  0
  7 13  1  0  0  0  0
  7 15  1  0  0  0  0
  8 14  1  0  0  0  0
  8 16  1  0  0  0  0
  9 17  1  0  0  0  0
 10 17  1  0  0  0  0
 11 13  1  0  0  0  0
 11 18  1  0  0  0  0
 12 14  1  0  0  0  0
 14 15  1  0  0  0  0
 14 18  1  0  0  0  0
  1 19  1  0  0  0  0
  1 20  1  0  0  0  0
  2 21  1  0  0  0  0
  2 22  1  0  0  0  0
  3 23  1  0  0  0  0
  3 24  1  0  0  0  0
  4 25  1  0  0  0  0
  4 26  1  0  0  0  0
  5 27  1  0  0  0  0
  5 28  1  0  0  0  0
  6 29  1  0  0  0  0
  6 30  1  0  0  0  0
  7 31  1  0  0  0  0
  7 32  1  0  0  0  0
  8 33  1  0  0  0  0
  8 34  1  0  0  0  0
  9 35  1  0  0  0  0
  9 36  1  0  0  0  0
 10 37  1  0  0  0  0
 10 38  1  0  0  0  0
 11 39  1  0  0  0  0
 11 40  1  0  0  0  0
 12 41  1  0  0  0  0
 15 42  1  0  0  0  0
M  END
> <id>
EN300-1278969

> <smiles>
C1CC2(CCO1)CNC3(CN4CCC3CC4)OC2

> <IUPAC Name>
dispiro[4-azabicyclo[2.2.2]octane-2,2'-[1,3]oxazinane-5',4''-oxane]

> <CAS>
2172372-50-6

> <URL>
https://www.enaminestore.com/catalog/EN300-1278969

> <ROCS_ShapeQuery>
x0446_0A_x1080_0A_x0929_0A_x0812_0A_x0719_0A_x1140_0A_x0528_0A_x0310_0A

> <ROCS_TanimotoCombo>
0.411 

> <ROCS_ShapeTanimoto>
0.225 

> <ROCS_ColorTanimoto>
0.186 

> <ROCS_RefTversky>
0.205 

> <ROCS_RefColorTversky>
0.219 

> <ROCS_RefTverskyCombo>
0.424 

> <ROCS_FitTversky>
1.736 

> <ROCS_FitColorTversky>
0.552 

> <ROCS_FitTverskyCombo>
2.288 

> <ROCS_ColorScore>
-7.886

> <ROCS_Overlap>
2420.784

> <ROCS_Rank>
440                 

$$$$
untitled-dbase-290401_1
  -OEChem-02082415563D

 35 38  0     0  0  0  0  0  0999 V2000
   13.4909   18.2325   20.9735 C   0  0  0  0  0  0  0  0  0  0  0  0
   14.6062   17.3888   21.1596 C   0  0  0  0  0  0  0  0  0  0  0  0
    8.8922    9.6799   23.6071 C   0  0  0  0  0  0  0  0  0  0  0  0
    7.5035   13.4859   24.6755 C   0  0  0  0  0  0  0  0  0  0  0  0
   12.1874   17.7366   21.0713 C   0  0  0  0  0  0  0  0  0  0  0  0
   14.4425   16.0306   21.4476 C   0  0  0  0  0  0  0  0  0  0  0  0
    9.7016   10.7850   23.3748 C   0  0  0  0  0  0  0  0  0  0  0  0
    7.6333    9.8459   24.1898 C   0  0  0  0  0  0  0  0  0  0  0  0
    6.2486   13.6173   25.2525 C   0  0  0  0  0  0  0  0  0  0  0  0
    7.9833   12.2203   24.3122 C   0  0  0  0  0  0  0  0  0  0  0  0
   12.0476   16.3953   21.3591 C   0  0  0  0  0  0  0  0  0  0  0  0
   13.1490   15.5619   21.5428 C   0  0  0  0  0  0  0  0  0  0  0  0
    9.2496   12.0537   23.7261 C   0  0  0  0  0  0  0  0  0  0  0  0
    7.1563   11.1029   24.5511 C   0  0  0  0  0  0  0  0  0  0  0  0
    5.5121   12.4664   25.4470 C   0  0  0  0  0  0  0  0  0  0  0  0
   10.8351   15.5854   21.5151 C   0  0  0  0  0  0  0  0  0  0  0  0
   12.6536   14.2095   21.8181 C   0  0  0  0  0  0  0  0  0  0  0  0
   10.1436   13.1762   23.4578 C   0  0  0  0  0  0  0  0  0  0  0  0
    5.9380   11.2272   25.1109 N   0  0  0  0  0  0  0  0  0  0  0  0
   11.3007   14.3454   21.8224 N   0  0  0  0  0  0  0  0  0  0  0  0
    9.6993   16.0016   21.3989 O   0  0  0  0  0  0  0  0  0  0  0  0
   13.3553   13.2356   22.0077 O   0  0  0  0  0  0  0  0  0  0  0  0
   10.5814   13.9376   24.3267 O   0  0  0  0  0  0  0  0  0  0  0  0
    4.2690   12.5606   26.0158 O   0  0  0  0  0  0  0  0  0  0  0  0
   10.4367   13.2703   22.1259 O   0  0  0  0  0  0  0  0  0  0  0  0
   13.6503   19.2842   20.7494 H   0  0  0  0  0  0  0  0  0  0  0  0
   15.6075   17.8034   21.0760 H   0  0  0  0  0  0  0  0  0  0  0  0
    9.2369    8.6861   23.3367 H   0  0  0  0  0  0  0  0  0  0  0  0
    8.0919   14.3860   24.5169 H   0  0  0  0  0  0  0  0  0  0  0  0
   11.3316   18.3851   20.9256 H   0  0  0  0  0  0  0  0  0  0  0  0
   15.2997   15.3829   21.5875 H   0  0  0  0  0  0  0  0  0  0  0  0
   10.6799   10.6455   22.9225 H   0  0  0  0  0  0  0  0  0  0  0  0
    7.0186    8.9642   24.3615 H   0  0  0  0  0  0  0  0  0  0  0  0
    5.8680   14.5917   25.5369 H   0  0  0  0  0  0  0  0  0  0  0  0
    4.0695   13.4860   26.2146 H   0  0  0  0  0  0  0  0  0  0  0  0
  1  2  1  0  0  0  0
  1  5  2  0  0  0  0
  2  6  2  0  0  0  0
  3  7  1  0  0  0  0
  3  8  2  0  0  0  0
  4  9  2  0  0  0  0
  4 10  1  0  0  0  0
  5 11  1  0  0  0  0
  6 12  1  0  0  0  0
  7 13  2  0  0  0  0
  8 14  1  0  0  0  0
  9 15  1  0  0  0  0
 10 13  1  0  0  0  0
 10 14  2  0  0  0  0
 11 12  2  0  0  0  0
 11 16  1  0  0  0  0
 12 17  1  0  0  0  0
 13 18  1  0  0  0  0
 14 19  1  0  0  0  0
 15 19  2  0  0  0  0
 15 24  1  0  0  0  0
 16 20  1  0  0  0  0
 16 21  2  0  0  0  0
 17 20  1  0  0  0  0
 17 22  2  0  0  0  0
 18 23  2  0  0  0  0
 18 25  1  0  0  0  0
 20 25  1  0  0  0  0
  1 26  1  0  0  0  0
  2 27  1  0  0  0  0
  3 28  1  0  0  0  0
  4 29  1  0  0  0  0
  5 30  1  0  0  0  0
  6 31  1  0  0  0  0
  7 32  1  0  0  0  0
  8 33  1  0  0  0  0
  9 34  1  0  0  0  0
 24 35  1  0  0  0  0
M  END
> <id>
EN300-6518274

> <smiles>
OC=1C=CC=2C(=CC=CC2N1)C(=O)ON3C(=O)C=4C=CC=CC4C3=O

> <IUPAC Name>
1,3-dioxo-2,3-dihydro-1H-isoindol-2-yl 2-hydroxyquinoline-5-carboxylate

> <CAS>
2248403-86-1

> <URL>
https://www.enaminestore.com/catalog/EN300-6518274

> <ROCS_ShapeQuery>
x0446_0A_x1080_0A_x0929_0A_x0812_0A_x0719_0A_x1140_0A_x0528_0A_x0310_0A

> <ROCS_TanimotoCombo>
0.411 

> <ROCS_ShapeTanimoto>
0.253 

> <ROCS_ColorTanimoto>
0.158 

> <ROCS_RefTversky>
0.232 

> <ROCS_RefColorTversky>
0.179 

> <ROCS_RefTverskyCombo>
0.411 

> <ROCS_FitTversky>
1.562 

> <ROCS_FitColorTversky>
0.564 

> <ROCS_FitTverskyCombo>
2.126 

> <ROCS_ColorScore>
-6.429

> <ROCS_Overlap>
2742.576

> <ROCS_Rank>
441                 

$$$$
untitled-dbase-349789_5
  -OEChem-02082415563D

 32 33  0     0  0  0  0  0  0999 V2000
    7.7356   13.3450   23.9585 C   0  0  0  0  0  0  0  0  0  0  0  0
    6.5295   13.3928   24.6656 C   0  0  0  0  0  0  0  0  0  0  0  0
    8.1592   12.0306   23.8329 C   0  0  0  0  0  0  0  0  0  0  0  0
    7.5198   10.8508   24.3218 C   0  0  0  0  0  0  0  0  0  0  0  0
    5.9095   12.2126   25.1428 C   0  0  0  0  0  0  0  0  0  0  0  0
    9.2967   11.6094   23.2013 C   0  0  0  0  0  0  0  0  0  0  0  0
   10.8092   13.5649   22.7552 C   0  0  0  0  0  0  0  0  0  0  0  0
   13.0253   15.2646   23.3712 C   0  0  0  0  0  0  0  0  0  0  0  0
   13.5247   15.1957   20.9105 C   0  0  0  0  0  0  0  0  0  0  0  0
   11.3606   16.1802   21.7203 C   0  0  0  0  0  0  0  0  0  0  0  0
   12.4294   15.1175   21.9718 C   0  0  0  0  0  0  0  0  0  0  0  0
    6.3445   10.9188   25.0086 N   0  0  0  0  0  0  0  0  0  0  0  0
    8.2248    9.7576   24.0093 N   0  0  0  0  0  0  0  0  0  0  0  0
    9.2870   10.2477   23.3360 N   0  0  0  0  0  0  0  0  0  0  0  0
   10.3346   12.2885   22.5234 N   0  0  0  0  0  0  0  0  0  0  0  0
   10.4238   14.3668   23.5972 O   0  0  0  0  0  0  0  0  0  0  0  0
    4.7240   12.3723   25.8264 O   0  0  0  0  0  0  0  0  0  0  0  0
   11.8224   13.8289   21.8695 O   0  0  0  0  0  0  0  0  0  0  0  0
    8.2392   14.2217   23.5783 H   0  0  0  0  0  0  0  0  0  0  0  0
    6.0631   14.3581   24.8500 H   0  0  0  0  0  0  0  0  0  0  0  0
   12.2423   15.2091   24.1359 H   0  0  0  0  0  0  0  0  0  0  0  0
   13.7682   14.4872   23.5770 H   0  0  0  0  0  0  0  0  0  0  0  0
   13.5054   16.2426   23.4909 H   0  0  0  0  0  0  0  0  0  0  0  0
   13.1017   15.0906   19.9048 H   0  0  0  0  0  0  0  0  0  0  0  0
   14.2433   14.3769   21.0301 H   0  0  0  0  0  0  0  0  0  0  0  0
   14.0687   16.1445   20.9604 H   0  0  0  0  0  0  0  0  0  0  0  0
   10.9331   16.0749   20.7166 H   0  0  0  0  0  0  0  0  0  0  0  0
   10.5477   16.1153   22.4507 H   0  0  0  0  0  0  0  0  0  0  0  0
   11.7926   17.1863   21.7684 H   0  0  0  0  0  0  0  0  0  0  0  0
    9.9749    9.5910   22.9899 H   0  0  0  0  0  0  0  0  0  0  0  0
   10.7878   11.7739   21.7722 H   0  0  0  0  0  0  0  0  0  0  0  0
    4.5028   13.3105   25.8679 H   0  0  0  0  0  0  0  0  0  0  0  0
  1  2  2  0  0  0  0
  1  3  1  0  0  0  0
  2  5  1  0  0  0  0
  3  4  1  0  0  0  0
  3  6  2  0  0  0  0
  4 12  1  0  0  0  0
  4 13  2  0  0  0  0
  5 12  2  0  0  0  0
  5 17  1  0  0  0  0
  6 14  1  0  0  0  0
  6 15  1  0  0  0  0
  7 15  1  0  0  0  0
  7 16  2  0  0  0  0
  7 18  1  0  0  0  0
  8 11  1  0  0  0  0
  9 11  1  0  0  0  0
 10 11  1  0  0  0  0
 11 18  1  0  0  0  0
 13 14  1  0  0  0  0
  1 19  1  0  0  0  0
  2 20  1  0  0  0  0
  8 21  1  0  0  0  0
  8 22  1  0  0  0  0
  8 23  1  0  0  0  0
  9 24  1  0  0  0  0
  9 25  1  0  0  0  0
  9 26  1  0  0  0  0
 10 27  1  0  0  0  0
 10 28  1  0  0  0  0
 10 29  1  0  0  0  0
 14 30  1  0  0  0  0
 15 31  1  0  0  0  0
 17 32  1  0  0  0  0
M  END
> <id>
EN300-26665331

> <smiles>
CC(C)(C)OC(=O)NC=1NN=C2N=C(O)C=CC12

> <IUPAC Name>
tert-butyl N-{6-hydroxy-2H-pyrazolo[3,4-b]pyridin-3-yl}carbamate

> <CAS>
2413899-60-0

> <URL>
https://www.enaminestore.com/catalog/EN300-26665331

> <ROCS_ShapeQuery>
x0446_0A_x1080_0A_x0929_0A_x0812_0A_x0719_0A_x1140_0A_x0528_0A_x0310_0A

> <ROCS_TanimotoCombo>
0.411 

> <ROCS_ShapeTanimoto>
0.236 

> <ROCS_ColorTanimoto>
0.175 

> <ROCS_RefTversky>
0.214 

> <ROCS_RefColorTversky>
0.196 

> <ROCS_RefTverskyCombo>
0.410 

> <ROCS_FitTversky>
1.797 

> <ROCS_FitColorTversky>
0.616 

> <ROCS_FitTverskyCombo>
2.412 

> <ROCS_ColorScore>
-7.022

> <ROCS_Overlap>
2522.453

> <ROCS_Rank>
442                 

$$$$
untitled-dbase-507100_3
  -OEChem-02082415563D

 36 38  0     0  0  0  0  0  0999 V2000
   12.4209   15.5261   21.8457 C   0  0  0  0  0  0  0  0  0  0  0  0
   11.1246   15.4281   21.3400 C   0  0  0  0  0  0  0  0  0  0  0  0
   12.8485   14.6498   22.8432 C   0  0  0  0  0  0  0  0  0  0  0  0
   10.2559   14.4540   21.8320 C   0  0  0  0  0  0  0  0  0  0  0  0
   11.9798   13.6757   23.3352 C   0  0  0  0  0  0  0  0  0  0  0  0
   10.6835   13.5777   22.8296 C   0  0  0  0  0  0  0  0  0  0  0  0
    9.3115    8.9474   23.3217 C   0  0  0  0  0  0  0  0  0  0  0  0
    6.3386   12.4844   25.1718 C   0  0  0  0  0  0  0  0  0  0  0  0
    9.1256   11.4085   22.3848 C   0  0  0  0  0  0  0  0  0  0  0  0
   10.3219   11.2399   24.1264 C   0  0  0  0  0  0  0  0  0  0  0  0
    8.5922   13.1167   24.2373 C   0  0  0  0  0  0  0  0  0  0  0  0
    7.8669   10.6866   24.5072 C   0  0  0  0  0  0  0  0  0  0  0  0
    9.6931   12.4660   23.3903 C   0  0  0  0  0  0  0  0  0  0  0  0
    9.0826   10.4479   23.6142 C   0  0  0  0  0  0  0  0  0  0  0  0
    6.1148   13.9596   25.4000 C   0  0  0  0  0  0  0  0  0  0  0  0
    7.5642   12.1222   24.5968 N   0  0  0  0  0  0  0  0  0  0  0  0
   10.3196    8.4768   22.8162 O   0  0  0  0  0  0  0  0  0  0  0  0
    5.4586   11.6782   25.4839 O   0  0  0  0  0  0  0  0  0  0  0  0
    8.2352    8.2161   23.7012 O   0  0  0  0  0  0  0  0  0  0  0  0
    7.1817   14.6666   24.9889 F   0  0  0  0  0  0  0  0  0  0  0  0
    5.0370   14.3849   24.7181 F   0  0  0  0  0  0  0  0  0  0  0  0
    5.9163   14.2134   26.7053 F   0  0  0  0  0  0  0  0  0  0  0  0
   13.0979   16.2838   21.4622 H   0  0  0  0  0  0  0  0  0  0  0  0
   10.7922   16.1101   20.5627 H   0  0  0  0  0  0  0  0  0  0  0  0
   13.8584   14.7264   23.2359 H   0  0  0  0  0  0  0  0  0  0  0  0
    9.2476   14.3833   21.4331 H   0  0  0  0  0  0  0  0  0  0  0  0
   12.3206   12.9964   24.1120 H   0  0  0  0  0  0  0  0  0  0  0  0
    8.1658   11.6474   21.9199 H   0  0  0  0  0  0  0  0  0  0  0  0
    9.8243   11.1054   21.5965 H   0  0  0  0  0  0  0  0  0  0  0  0
   11.2827   10.8989   23.7144 H   0  0  0  0  0  0  0  0  0  0  0  0
   10.4341   11.3262   25.2137 H   0  0  0  0  0  0  0  0  0  0  0  0
    9.0108   13.5311   25.1606 H   0  0  0  0  0  0  0  0  0  0  0  0
    8.0975   13.9275   23.6895 H   0  0  0  0  0  0  0  0  0  0  0  0
    6.9780   10.1787   24.1140 H   0  0  0  0  0  0  0  0  0  0  0  0
    8.0448   10.3097   25.5216 H   0  0  0  0  0  0  0  0  0  0  0  0
    8.3604    7.2598   23.5218 H   0  0  0  0  0  0  0  0  0  0  0  0
  1  2  1  0  0  0  0
  1  3  2  0  0  0  0
  2  4  2  0  0  0  0
  3  5  1  0  0  0  0
  4  6  1  0  0  0  0
  5  6  2  0  0  0  0
  6 13  1  0  0  0  0
  7 14  1  0  0  0  0
  7 17  2  0  0  0  0
  7 19  1  0  0  0  0
  8 15  1  0  0  0  0
  8 16  1  0  0  0  0
  8 18  2  0  0  0  0
  9 13  1  0  0  0  0
  9 14  1  0  0  0  0
 10 13  1  0  0  0  0
 10 14  1  0  0  0  0
 11 13  1  0  0  0  0
 11 16  1  0  0  0  0
 12 14  1  0  0  0  0
 12 16  1  0  0  0  0
 15 20  1  0  0  0  0
 15 21  1  0  0  0  0
 15 22  1  0  0  0  0
  1 23  1  0  0  0  0
  2 24  1  0  0  0  0
  3 25  1  0  0  0  0
  4 26  1  0  0  0  0
  5 27  1  0  0  0  0
  9 28  1  0  0  0  0
  9 29  1  0  0  0  0
 10 30  1  0  0  0  0
 10 31  1  0  0  0  0
 11 32  1  0  0  0  0
 11 33  1  0  0  0  0
 12 34  1  0  0  0  0
 12 35  1  0  0  0  0
 19 36  1  0  0  0  0
M  END
> <id>
EN300-28292586

> <smiles>
OC(=O)C1(CC2(C1)C=3C=CC=CC3)CN(C2)C(=O)C(F)(F)F

> <IUPAC Name>
5-phenyl-3-(2,2,2-trifluoroacetyl)-3-azabicyclo[3.1.1]heptane-1-carboxylic acid

> <CAS>
2680723-60-6

> <URL>
https://www.enaminestore.com/catalog/EN300-28292586

> <ROCS_ShapeQuery>
x0446_0A_x1080_0A_x0929_0A_x0812_0A_x0719_0A_x1140_0A_x0528_0A_x0310_0A

> <ROCS_TanimotoCombo>
0.411 

> <ROCS_ShapeTanimoto>
0.267 

> <ROCS_ColorTanimoto>
0.144 

> <ROCS_RefTversky>
0.239 

> <ROCS_RefColorTversky>
0.169 

> <ROCS_RefTverskyCombo>
0.408 

> <ROCS_FitTversky>
1.788 

> <ROCS_FitColorTversky>
0.488 

> <ROCS_FitTverskyCombo>
2.276 

> <ROCS_ColorScore>
-6.072

> <ROCS_Overlap>
2821.914

> <ROCS_Rank>
443                 

$$$$
untitled-dbase-513160_9
  -OEChem-02082415563D

 38 40  0     0  0  0  0  0  0999 V2000
    8.7042   13.5281   22.5640 C   0  0  0  0  0  0  0  0  0  0  0  0
   11.8070    8.7976   22.0230 C   0  0  0  0  0  0  0  0  0  0  0  0
    7.6176   12.5679   25.4523 C   0  0  0  0  0  0  0  0  0  0  0  0
    6.3570   11.5305   23.5360 C   0  0  0  0  0  0  0  0  0  0  0  0
    9.1567   10.8918   22.3283 C   0  0  0  0  0  0  0  0  0  0  0  0
   10.1977   11.7477   23.9100 C   0  0  0  0  0  0  0  0  0  0  0  0
    6.4779   12.1023   26.3534 C   0  0  0  0  0  0  0  0  0  0  0  0
    5.2944   11.1276   24.5542 C   0  0  0  0  0  0  0  0  0  0  0  0
    8.8355   12.1602   23.2182 C   0  0  0  0  0  0  0  0  0  0  0  0
    7.7270   11.6861   24.2041 C   0  0  0  0  0  0  0  0  0  0  0  0
    9.4927   10.3454   23.7678 C   0  0  0  0  0  0  0  0  0  0  0  0
   10.2587    9.0708   23.9533 C   0  0  0  0  0  0  0  0  0  0  0  0
   13.2469    8.9874   21.6466 C   0  0  0  0  0  0  0  0  0  0  0  0
   11.5524    9.1589   23.3409 N   0  0  0  0  0  0  0  0  0  0  0  0
    7.8878   13.8185   21.7023 O   0  0  0  0  0  0  0  0  0  0  0  0
   10.9781    8.3655   21.2270 O   0  0  0  0  0  0  0  0  0  0  0  0
    5.2482   12.0585   25.6333 O   0  0  0  0  0  0  0  0  0  0  0  0
    8.2636   10.3926   24.5511 O   0  0  0  0  0  0  0  0  0  0  0  0
    9.6229   14.3890   23.0661 O   0  0  0  0  0  0  0  0  0  0  0  0
   13.9813    9.4710   22.6807 F   0  0  0  0  0  0  0  0  0  0  0  0
   13.3934    9.8594   20.6166 F   0  0  0  0  0  0  0  0  0  0  0  0
   13.8307    7.8242   21.2614 F   0  0  0  0  0  0  0  0  0  0  0  0
    7.4243   13.6034   25.1479 H   0  0  0  0  0  0  0  0  0  0  0  0
    8.5412   12.5619   26.0395 H   0  0  0  0  0  0  0  0  0  0  0  0
    6.3721   10.7767   22.7430 H   0  0  0  0  0  0  0  0  0  0  0  0
    6.0649   12.4848   23.0816 H   0  0  0  0  0  0  0  0  0  0  0  0
    8.3211   10.4080   21.8174 H   0  0  0  0  0  0  0  0  0  0  0  0
    9.9894   10.9803   21.6203 H   0  0  0  0  0  0  0  0  0  0  0  0
   11.1157   11.9065   23.3314 H   0  0  0  0  0  0  0  0  0  0  0  0
   10.3704   12.0939   24.9315 H   0  0  0  0  0  0  0  0  0  0  0  0
    6.6851   11.1163   26.7854 H   0  0  0  0  0  0  0  0  0  0  0  0
    6.3524   12.8046   27.1840 H   0  0  0  0  0  0  0  0  0  0  0  0
    4.3090   11.1212   24.0777 H   0  0  0  0  0  0  0  0  0  0  0  0
    5.4760   10.1199   24.9467 H   0  0  0  0  0  0  0  0  0  0  0  0
   10.3762    8.8851   25.0285 H   0  0  0  0  0  0  0  0  0  0  0  0
    9.6927    8.2508   23.4933 H   0  0  0  0  0  0  0  0  0  0  0  0
   12.3298    9.5063   23.9043 H   0  0  0  0  0  0  0  0  0  0  0  0
    9.5557   15.2772   22.6550 H   0  0  0  0  0  0  0  0  0  0  0  0
  1  9  1  0  0  0  0
  1 15  2  0  0  0  0
  1 19  1  0  0  0  0
  2 13  1  0  0  0  0
  2 14  1  0  0  0  0
  2 16  2  0  0  0  0
  3  7  1  0  0  0  0
  3 10  1  0  0  0  0
  4  8  1  0  0  0  0
  4 10  1  0  0  0  0
  5  9  1  0  0  0  0
  5 11  1  0  0  0  0
  6  9  1  0  0  0  0
  6 11  1  0  0  0  0
  7 17  1  0  0  0  0
  8 17  1  0  0  0  0
  9 10  1  0  0  0  0
 10 18  1  0  0  0  0
 11 12  1  0  0  0  0
 11 18  1  0  0  0  0
 12 14  1  0  0  0  0
 13 20  1  0  0  0  0
 13 21  1  0  0  0  0
 13 22  1  0  0  0  0
  3 23  1  0  0  0  0
  3 24  1  0  0  0  0
  4 25  1  0  0  0  0
  4 26  1  0  0  0  0
  5 27  1  0  0  0  0
  5 28  1  0  0  0  0
  6 29  1  0  0  0  0
  6 30  1  0  0  0  0
  7 31  1  0  0  0  0
  7 32  1  0  0  0  0
  8 33  1  0  0  0  0
  8 34  1  0  0  0  0
 12 35  1  0  0  0  0
 12 36  1  0  0  0  0
 14 37  1  0  0  0  0
 19 38  1  0  0  0  0
M  END
> <id>
EN300-28294340

> <smiles>
OC(=O)C1(CC2(CNC(=O)C(F)(F)F)C1)C3(CCOCC3)O2

> <IUPAC Name>
4-[(2,2,2-trifluoroacetamido)methyl]-3-oxaspiro[bicyclo[2.1.1]hexane-2,4'-oxane]-1-carboxylic acid

> <CAS>
2680684-79-9

> <URL>
https://www.enaminestore.com/catalog/EN300-28294340

> <ROCS_ShapeQuery>
x0446_0A_x1080_0A_x0929_0A_x0812_0A_x0719_0A_x1140_0A_x0528_0A_x0310_0A

> <ROCS_TanimotoCombo>
0.411 

> <ROCS_ShapeTanimoto>
0.213 

> <ROCS_ColorTanimoto>
0.197 

> <ROCS_RefTversky>
0.199 

> <ROCS_RefColorTversky>
0.237 

> <ROCS_RefTverskyCombo>
0.437 

> <ROCS_FitTversky>
1.497 

> <ROCS_FitColorTversky>
0.539 

> <ROCS_FitTverskyCombo>
2.035 

> <ROCS_ColorScore>
-8.560

> <ROCS_Overlap>
2353.351

> <ROCS_Rank>
444                 

$$$$
untitled-dbase-376230_5
  -OEChem-02082415563D

 36 38  0     0  0  0  0  0  0999 V2000
   13.0265   14.0781   22.4925 C   0  0  0  0  0  0  0  0  0  0  0  0
   11.0225   15.3850   22.1565 C   0  0  0  0  0  0  0  0  0  0  0  0
   13.8038   15.1726   22.1137 C   0  0  0  0  0  0  0  0  0  0  0  0
   11.7998   16.4796   21.7778 C   0  0  0  0  0  0  0  0  0  0  0  0
    7.4874   10.6376   24.5548 C   0  0  0  0  0  0  0  0  0  0  0  0
   11.6358   14.1843   22.5138 C   0  0  0  0  0  0  0  0  0  0  0  0
    7.6991   12.0171   24.4491 C   0  0  0  0  0  0  0  0  0  0  0  0
   13.1905   16.3734   21.7564 C   0  0  0  0  0  0  0  0  0  0  0  0
    8.9267   12.1402   23.8395 C   0  0  0  0  0  0  0  0  0  0  0  0
   11.3757   11.6644   22.6207 C   0  0  0  0  0  0  0  0  0  0  0  0
   10.8073   13.0175   22.9176 C   0  0  0  0  0  0  0  0  0  0  0  0
   10.6249   10.6146   22.9913 C   0  0  0  0  0  0  0  0  0  0  0  0
    6.8548   13.0946   24.8691 C   0  0  0  0  0  0  0  0  0  0  0  0
    5.9231   14.5766   27.5244 C   0  0  0  0  0  0  0  0  0  0  0  0
    5.1961   13.7612   26.4764 C   0  0  0  0  0  0  0  0  0  0  0  0
   11.0608    9.1992   22.7581 C   0  0  0  0  0  0  0  0  0  0  0  0
    8.4923    9.9202   24.0558 N   0  0  0  0  0  0  0  0  0  0  0  0
    9.6531   13.2332   23.4804 N   0  0  0  0  0  0  0  0  0  0  0  0
    9.3888   10.8440   23.6107 N   0  0  0  0  0  0  0  0  0  0  0  0
    6.7969   14.2207   24.3274 O   0  0  0  0  0  0  0  0  0  0  0  0
    6.0852   12.7642   25.9616 O   0  0  0  0  0  0  0  0  0  0  0  0
   12.2629    9.1603   22.1494 F   0  0  0  0  0  0  0  0  0  0  0  0
   11.1637    8.5278   23.9226 F   0  0  0  0  0  0  0  0  0  0  0  0
   10.1793    8.5424   21.9777 F   0  0  0  0  0  0  0  0  0  0  0  0
   14.2436   17.8563   21.2432 Br  0  0  0  0  0  0  0  0  0  0  0  0
   13.5149   13.1472   22.7691 H   0  0  0  0  0  0  0  0  0  0  0  0
    9.9396   15.4788   22.1696 H   0  0  0  0  0  0  0  0  0  0  0  0
   14.8862   15.0733   22.1023 H   0  0  0  0  0  0  0  0  0  0  0  0
   11.3062   17.4080   21.5022 H   0  0  0  0  0  0  0  0  0  0  0  0
    6.6395   10.1160   24.9759 H   0  0  0  0  0  0  0  0  0  0  0  0
   12.3405   11.5713   22.1384 H   0  0  0  0  0  0  0  0  0  0  0  0
    6.2534   13.9428   28.3520 H   0  0  0  0  0  0  0  0  0  0  0  0
    6.7964   15.0737   27.0893 H   0  0  0  0  0  0  0  0  0  0  0  0
    5.2731   15.3640   27.9201 H   0  0  0  0  0  0  0  0  0  0  0  0
    4.8684   14.4010   25.6516 H   0  0  0  0  0  0  0  0  0  0  0  0
    4.3243   13.2646   26.9129 H   0  0  0  0  0  0  0  0  0  0  0  0
  1  3  2  0  0  0  0
  1  6  1  0  0  0  0
  2  4  1  0  0  0  0
  2  6  2  0  0  0  0
  3  8  1  0  0  0  0
  4  8  2  0  0  0  0
  5  7  1  0  0  0  0
  5 17  2  0  0  0  0
  6 11  1  0  0  0  0
  7  9  2  0  0  0  0
  7 13  1  0  0  0  0
  8 25  1  0  0  0  0
  9 18  1  0  0  0  0
  9 19  1  0  0  0  0
 10 11  1  0  0  0  0
 10 12  2  0  0  0  0
 11 18  2  0  0  0  0
 12 16  1  0  0  0  0
 12 19  1  0  0  0  0
 13 20  2  0  0  0  0
 13 21  1  0  0  0  0
 14 15  1  0  0  0  0
 15 21  1  0  0  0  0
 16 22  1  0  0  0  0
 16 23  1  0  0  0  0
 16 24  1  0  0  0  0
 17 19  1  0  0  0  0
  1 26  1  0  0  0  0
  2 27  1  0  0  0  0
  3 28  1  0  0  0  0
  4 29  1  0  0  0  0
  5 30  1  0  0  0  0
 10 31  1  0  0  0  0
 14 32  1  0  0  0  0
 14 33  1  0  0  0  0
 14 34  1  0  0  0  0
 15 35  1  0  0  0  0
 15 36  1  0  0  0  0
M  END
> <id>
EN300-229600

> <smiles>
CCOC(=O)C=1C=NN2C(=CC(=NC12)C=3C=CC(Br)=CC3)C(F)(F)F

> <MDLNUMBER>
MFCD01451905

> <IUPAC Name>
ethyl 5-(4-bromophenyl)-7-(trifluoromethyl)pyrazolo[1,5-a]pyrimidine-3-carboxylate

> <CAS>
313249-39-7

> <URL>
https://www.enaminestore.com/catalog/EN300-229600

> <ROCS_ShapeQuery>
x0446_0A_x1080_0A_x0929_0A_x0812_0A_x0719_0A_x1140_0A_x0528_0A_x0310_0A

> <ROCS_TanimotoCombo>
0.411 

> <ROCS_ShapeTanimoto>
0.267 

> <ROCS_ColorTanimoto>
0.144 

> <ROCS_RefTversky>
0.241 

> <ROCS_RefColorTversky>
0.156 

> <ROCS_RefTverskyCombo>
0.397 

> <ROCS_FitTversky>
1.661 

> <ROCS_FitColorTversky>
0.651 

> <ROCS_FitTverskyCombo>
2.312 

> <ROCS_ColorScore>
-5.555

> <ROCS_Overlap>
2851.590

> <ROCS_Rank>
445                 

$$$$
untitled-dbase-292125_8
  -OEChem-02082415563D

 40 44  0     0  0  0  0  0  0999 V2000
   14.0802   17.1568   19.5008 C   0  0  0  0  0  0  0  0  0  0  0  0
   12.7944   17.5919   19.1163 C   0  0  0  0  0  0  0  0  0  0  0  0
    5.4564   12.4657   25.5565 C   0  0  0  0  0  0  0  0  0  0  0  0
    5.3264   11.0894   25.6686 C   0  0  0  0  0  0  0  0  0  0  0  0
   14.2477   16.2143   20.5196 C   0  0  0  0  0  0  0  0  0  0  0  0
   11.6478   17.0940   19.7423 C   0  0  0  0  0  0  0  0  0  0  0  0
    6.5852   13.0016   24.9390 C   0  0  0  0  0  0  0  0  0  0  0  0
    6.3263   10.2609   25.1624 C   0  0  0  0  0  0  0  0  0  0  0  0
   13.1043   15.7333   21.1220 C   0  0  0  0  0  0  0  0  0  0  0  0
   11.8344   16.1630   20.7424 C   0  0  0  0  0  0  0  0  0  0  0  0
    7.5902   12.1824   24.4299 C   0  0  0  0  0  0  0  0  0  0  0  0
    7.4583   10.7863   24.5437 C   0  0  0  0  0  0  0  0  0  0  0  0
    9.6097   11.8859   23.3643 C   0  0  0  0  0  0  0  0  0  0  0  0
    9.4814   10.5269   23.4752 C   0  0  0  0  0  0  0  0  0  0  0  0
   12.9481   14.7615   22.2090 C   0  0  0  0  0  0  0  0  0  0  0  0
   10.8515   15.4713   21.5825 C   0  0  0  0  0  0  0  0  0  0  0  0
   10.7796   12.5338   22.7188 C   0  0  0  0  0  0  0  0  0  0  0  0
   10.6731    8.2360   23.5516 C   0  0  0  0  0  0  0  0  0  0  0  0
   11.7178    9.2761   23.8106 C   0  0  0  0  0  0  0  0  0  0  0  0
   10.5299    9.6076   22.9460 C   0  0  0  0  0  0  0  0  0  0  0  0
    8.6698   12.7233   23.8384 N   0  0  0  0  0  0  0  0  0  0  0  0
    8.4094    9.9662   24.0633 N   0  0  0  0  0  0  0  0  0  0  0  0
   11.6019   14.6514   22.3659 N   0  0  0  0  0  0  0  0  0  0  0  0
   13.8632   14.2049   22.7831 O   0  0  0  0  0  0  0  0  0  0  0  0
    9.6484   15.6321   21.5235 O   0  0  0  0  0  0  0  0  0  0  0  0
   11.4167   12.0154   21.8146 O   0  0  0  0  0  0  0  0  0  0  0  0
   11.0352   13.7668   23.2602 O   0  0  0  0  0  0  0  0  0  0  0  0
   14.9530   17.5634   18.9961 H   0  0  0  0  0  0  0  0  0  0  0  0
   12.6964   18.3269   18.3215 H   0  0  0  0  0  0  0  0  0  0  0  0
    4.6846   13.1224   25.9465 H   0  0  0  0  0  0  0  0  0  0  0  0
    4.4516   10.6593   26.1459 H   0  0  0  0  0  0  0  0  0  0  0  0
   15.2358   15.8828   20.8158 H   0  0  0  0  0  0  0  0  0  0  0  0
   10.6610   17.4309   19.4481 H   0  0  0  0  0  0  0  0  0  0  0  0
    6.6746   14.0830   24.8585 H   0  0  0  0  0  0  0  0  0  0  0  0
    6.2109    9.1828   25.2562 H   0  0  0  0  0  0  0  0  0  0  0  0
   10.9274    7.4211   22.8841 H   0  0  0  0  0  0  0  0  0  0  0  0
   10.0309    7.9517   24.3763 H   0  0  0  0  0  0  0  0  0  0  0  0
   11.7764    9.6923   24.8093 H   0  0  0  0  0  0  0  0  0  0  0  0
   12.6767    9.1621   23.3192 H   0  0  0  0  0  0  0  0  0  0  0  0
   10.7160    9.6865   21.8827 H   0  0  0  0  0  0  0  0  0  0  0  0
  1  2  1  0  0  0  0
  1  5  2  0  0  0  0
  2  6  2  0  0  0  0
  3  4  1  0  0  0  0
  3  7  2  0  0  0  0
  4  8  2  0  0  0  0
  5  9  1  0  0  0  0
  6 10  1  0  0  0  0
  7 11  1  0  0  0  0
  8 12  1  0  0  0  0
  9 10  2  0  0  0  0
  9 15  1  0  0  0  0
 10 16  1  0  0  0  0
 11 12  1  0  0  0  0
 11 21  2  0  0  0  0
 12 22  2  0  0  0  0
 13 14  2  0  0  0  0
 13 17  1  0  0  0  0
 13 21  1  0  0  0  0
 14 20  1  0  0  0  0
 14 22  1  0  0  0  0
 15 23  1  0  0  0  0
 15 24  2  0  0  0  0
 16 23  1  0  0  0  0
 16 25  2  0  0  0  0
 17 26  2  0  0  0  0
 17 27  1  0  0  0  0
 18 19  1  0  0  0  0
 18 20  1  0  0  0  0
 19 20  1  0  0  0  0
 23 27  1  0  0  0  0
  1 28  1  0  0  0  0
  2 29  1  0  0  0  0
  3 30  1  0  0  0  0
  4 31  1  0  0  0  0
  5 32  1  0  0  0  0
  6 33  1  0  0  0  0
  7 34  1  0  0  0  0
  8 35  1  0  0  0  0
 18 36  1  0  0  0  0
 18 37  1  0  0  0  0
 19 38  1  0  0  0  0
 19 39  1  0  0  0  0
 20 40  1  0  0  0  0
M  END
> <id>
EN300-6521386

> <smiles>
O=C(ON1C(=O)C=2C=CC=CC2C1=O)C=3N=C4C=CC=CC4=NC3C5CC5

> <IUPAC Name>
1,3-dioxo-2,3-dihydro-1H-isoindol-2-yl 3-cyclopropylquinoxaline-2-carboxylate

> <CAS>
2248333-20-0

> <URL>
https://www.enaminestore.com/catalog/EN300-6521386

> <ROCS_ShapeQuery>
x0446_0A_x1080_0A_x0929_0A_x0812_0A_x0719_0A_x1140_0A_x0528_0A_x0310_0A

> <ROCS_TanimotoCombo>
0.411 

> <ROCS_ShapeTanimoto>
0.265 

> <ROCS_ColorTanimoto>
0.146 

> <ROCS_RefTversky>
0.242 

> <ROCS_RefColorTversky>
0.164 

> <ROCS_RefTverskyCombo>
0.406 

> <ROCS_FitTversky>
1.546 

> <ROCS_FitColorTversky>
0.563 

> <ROCS_FitTverskyCombo>
2.110 

> <ROCS_ColorScore>
-5.878

> <ROCS_Overlap>
2864.291

> <ROCS_Rank>
446                 

$$$$
untitled-dbase-511599_7
  -OEChem-02082415563D

 29 30  0     0  0  0  0  0  0999 V2000
   10.7308   12.9169   23.2835 C   0  0  0  0  0  0  0  0  0  0  0  0
    8.0810   14.1659   21.8575 C   0  0  0  0  0  0  0  0  0  0  0  0
    8.9206   10.7907   25.3064 C   0  0  0  0  0  0  0  0  0  0  0  0
    8.6710   10.1227   22.9180 C   0  0  0  0  0  0  0  0  0  0  0  0
    7.9414   11.9693   25.0830 C   0  0  0  0  0  0  0  0  0  0  0  0
    7.6913   11.2983   22.6891 C   0  0  0  0  0  0  0  0  0  0  0  0
    9.6497   10.6946   23.9557 C   0  0  0  0  0  0  0  0  0  0  0  0
    8.2466   12.3959   23.6276 C   0  0  0  0  0  0  0  0  0  0  0  0
    7.7641   13.7889   23.2841 C   0  0  0  0  0  0  0  0  0  0  0  0
   11.9389   12.2266   22.7047 C   0  0  0  0  0  0  0  0  0  0  0  0
    9.6683   12.0936   23.5649 N   0  0  0  0  0  0  0  0  0  0  0  0
   10.7477   14.1339   23.4679 O   0  0  0  0  0  0  0  0  0  0  0  0
    7.6781   13.5928   20.8564 O   0  0  0  0  0  0  0  0  0  0  0  0
    8.8931   15.2537   21.8289 O   0  0  0  0  0  0  0  0  0  0  0  0
   11.7153   10.9059   22.5813 F   0  0  0  0  0  0  0  0  0  0  0  0
   12.2299   12.7201   21.4875 F   0  0  0  0  0  0  0  0  0  0  0  0
   13.0126   12.3998   23.4966 F   0  0  0  0  0  0  0  0  0  0  0  0
    9.6208   11.0365   26.1129 H   0  0  0  0  0  0  0  0  0  0  0  0
    8.3937    9.8690   25.5726 H   0  0  0  0  0  0  0  0  0  0  0  0
    8.1540    9.2240   23.2687 H   0  0  0  0  0  0  0  0  0  0  0  0
    9.1897    9.8830   21.9829 H   0  0  0  0  0  0  0  0  0  0  0  0
    6.9008   11.6582   25.2229 H   0  0  0  0  0  0  0  0  0  0  0  0
    8.1599   12.7731   25.7956 H   0  0  0  0  0  0  0  0  0  0  0  0
    7.7243   11.6095   21.6384 H   0  0  0  0  0  0  0  0  0  0  0  0
    6.6616   11.0158   22.9322 H   0  0  0  0  0  0  0  0  0  0  0  0
   10.6140   10.1873   23.9974 H   0  0  0  0  0  0  0  0  0  0  0  0
    6.6775   13.8460   23.4215 H   0  0  0  0  0  0  0  0  0  0  0  0
    8.2448   14.5183   23.9470 H   0  0  0  0  0  0  0  0  0  0  0  0
    9.1147   15.5206   20.9113 H   0  0  0  0  0  0  0  0  0  0  0  0
  1 10  1  0  0  0  0
  1 11  1  0  0  0  0
  1 12  2  0  0  0  0
  2  9  1  0  0  0  0
  2 13  2  0  0  0  0
  2 14  1  0  0  0  0
  3  5  1  0  0  0  0
  3  7  1  0  0  0  0
  4  6  1  0  0  0  0
  4  7  1  0  0  0  0
  5  8  1  0  0  0  0
  6  8  1  0  0  0  0
  7 11  1  0  0  0  0
  8  9  1  0  0  0  0
  8 11  1  0  0  0  0
 10 15  1  0  0  0  0
 10 16  1  0  0  0  0
 10 17  1  0  0  0  0
  3 18  1  0  0  0  0
  3 19  1  0  0  0  0
  4 20  1  0  0  0  0
  4 21  1  0  0  0  0
  5 22  1  0  0  0  0
  5 23  1  0  0  0  0
  6 24  1  0  0  0  0
  6 25  1  0  0  0  0
  7 26  1  0  0  0  0
  9 27  1  0  0  0  0
  9 28  1  0  0  0  0
 14 29  1  0  0  0  0
M  END
> <id>
EN300-2931575

> <smiles>
OC(=O)CC1(CCC2CC1)N2C(=O)C(F)(F)F

> <IUPAC Name>
2-[7-(trifluoroacetyl)-7-azabicyclo[2.2.1]heptan-1-yl]acetic acid

> <CAS>
2285249-92-3

> <URL>
https://www.enaminestore.com/catalog/EN300-2931575

> <ROCS_ShapeQuery>
x0446_0A_x1080_0A_x0929_0A_x0812_0A_x0719_0A_x1140_0A_x0528_0A_x0310_0A

> <ROCS_TanimotoCombo>
0.411 

> <ROCS_ShapeTanimoto>
0.221 

> <ROCS_ColorTanimoto>
0.190 

> <ROCS_RefTversky>
0.202 

> <ROCS_RefColorTversky>
0.212 

> <ROCS_RefTverskyCombo>
0.413 

> <ROCS_FitTversky>
1.750 

> <ROCS_FitColorTversky>
0.648 

> <ROCS_FitTverskyCombo>
2.398 

> <ROCS_ColorScore>
-7.593

> <ROCS_Overlap>
2378.645

> <ROCS_Rank>
447                 

$$$$
untitled-dbase-274454_5
  -OEChem-02082415563D

 42 46  0     1  0  0  0  0  0999 V2000
    7.1957   15.5598   19.7248 C   0  0  0  0  0  0  0  0  0  0  0  0
    5.8965   13.9307   20.9475 C   0  0  0  0  0  0  0  0  0  0  0  0
    6.3183   15.4500   18.6461 C   0  0  0  0  0  0  0  0  0  0  0  0
    5.0190   13.8209   19.8688 C   0  0  0  0  0  0  0  0  0  0  0  0
    6.5927   11.1956   25.3039 C   0  0  0  0  0  0  0  0  0  0  0  0
    6.0194   13.5213   24.9496 C   0  0  0  0  0  0  0  0  0  0  0  0
   12.1234   15.0678   23.6807 C   0  0  0  0  0  0  0  0  0  0  0  0
    7.5825   11.3076   24.3290 C   0  0  0  0  0  0  0  0  0  0  0  0
    7.7814   12.5190   23.6770 C   0  0  0  0  0  0  0  0  0  0  0  0
    6.9849   14.8001   20.8755 C   0  0  0  0  0  0  0  0  0  0  0  0
    6.9994   13.6416   23.9554 C   0  0  0  0  0  0  0  0  0  0  0  0
    5.2299   14.5806   18.7181 C   0  0  0  0  0  0  0  0  0  0  0  0
    5.8151   12.3092   25.6164 C   0  0  0  0  0  0  0  0  0  0  0  0
   10.4105   14.5703   22.5967 C   0  0  0  0  0  0  0  0  0  0  0  0
    8.8683   12.5935   22.6951 C   0  0  0  0  0  0  0  0  0  0  0  0
    8.4335   10.1642   23.9661 C   0  0  0  0  0  0  0  0  0  0  0  0
    7.9438   14.9202   22.0560 C   0  0  2  0  0  0  0  0  0  0  0  0
    9.1440   13.9395   22.0262 C   0  0  1  0  0  0  0  0  0  0  0  0
   10.5120   16.5127   20.9899 C   0  0  0  0  0  0  0  0  0  0  0  0
   11.1260   14.1380   23.6089 N   0  0  0  0  0  0  0  0  0  0  0  0
   12.0701   16.0483   22.7767 N   0  0  0  0  0  0  0  0  0  0  0  0
    9.6181   11.5826   22.3821 N   0  0  0  0  0  0  0  0  0  0  0  0
   10.9655   15.7065   22.0960 N   0  0  0  0  0  0  0  0  0  0  0  0
    7.1812   14.8422   23.2943 N   0  0  0  0  0  0  0  0  0  0  0  0
    9.3896   10.3981   22.9990 N   0  0  0  0  0  0  0  0  0  0  0  0
    8.2752    9.0750   24.5091 O   0  0  0  0  0  0  0  0  0  0  0  0
    4.3856   14.4771   17.6833 F   0  0  0  0  0  0  0  0  0  0  0  0
    4.8689   12.2196   26.5607 F   0  0  0  0  0  0  0  0  0  0  0  0
    8.0414   16.2393   19.6591 H   0  0  0  0  0  0  0  0  0  0  0  0
    5.7241   13.3350   21.8401 H   0  0  0  0  0  0  0  0  0  0  0  0
    6.4819   16.0418   17.7505 H   0  0  0  0  0  0  0  0  0  0  0  0
    4.1718   13.1438   19.9244 H   0  0  0  0  0  0  0  0  0  0  0  0
    6.4062   10.2581   25.8188 H   0  0  0  0  0  0  0  0  0  0  0  0
    5.4106   14.3803   25.2252 H   0  0  0  0  0  0  0  0  0  0  0  0
   12.9139   15.0296   24.4149 H   0  0  0  0  0  0  0  0  0  0  0  0
    8.3419   15.9886   22.0015 H   0  0  0  0  0  0  0  0  0  0  0  0
    9.3936   13.6948   20.9452 H   0  0  0  0  0  0  0  0  0  0  0  0
    9.8287   17.2703   21.3826 H   0  0  0  0  0  0  0  0  0  0  0  0
   11.3718   16.9863   20.5079 H   0  0  0  0  0  0  0  0  0  0  0  0
   10.0007   15.8748   20.2636 H   0  0  0  0  0  0  0  0  0  0  0  0
    7.0964   15.7012   23.8609 H   0  0  0  0  0  0  0  0  0  0  0  0
    9.9730    9.6138   22.7258 H   0  0  0  0  0  0  0  0  0  0  0  0
  1  3  2  0  0  0  0
  1 10  1  0  0  0  0
  2  4  1  0  0  0  0
  2 10  2  0  0  0  0
  3 12  1  0  0  0  0
  4 12  2  0  0  0  0
  5  8  2  0  0  0  0
  5 13  1  0  0  0  0
  6 11  1  0  0  0  0
  6 13  2  0  0  0  0
  7 20  1  0  0  0  0
  7 21  2  0  0  0  0
  8  9  1  0  0  0  0
  8 16  1  0  0  0  0
  9 11  2  0  0  0  0
  9 15  1  0  0  0  0
 10 17  1  1  0  0  0
 11 24  1  0  0  0  0
 12 27  1  0  0  0  0
 13 28  1  0  0  0  0
 14 18  1  6  0  0  0
 14 20  2  0  0  0  0
 14 23  1  0  0  0  0
 15 18  1  0  0  0  0
 15 22  2  0  0  0  0
 16 25  1  0  0  0  0
 16 26  2  0  0  0  0
 17 18  1  0  0  0  0
 17 24  1  0  0  0  0
 19 23  1  0  0  0  0
 21 23  1  0  0  0  0
 22 25  1  0  0  0  0
  1 29  1  0  0  0  0
  2 30  1  0  0  0  0
  3 31  1  0  0  0  0
  4 32  1  0  0  0  0
  5 33  1  0  0  0  0
  6 34  1  0  0  0  0
  7 35  1  0  0  0  0
 17 36  1  0  0  0  0
 18 37  1  0  0  0  0
 19 38  1  0  0  0  0
 19 39  1  0  0  0  0
 19 40  1  0  0  0  0
 24 41  1  0  0  0  0
 25 42  1  0  0  0  0
M  END
> <id>
EN300-20176329

> <smiles>
CN1N=CN=C1[C@@H]2[C@H](NC=3C=C(F)C=C4C(=O)NN=C2C34)C=5C=CC(F)=CC5

> <MDLNUMBER>
MFCD22666357

> <IUPAC Name>
(11S,12R)-7-fluoro-11-(4-fluorophenyl)-12-(1-methyl-1H-1,2,4-triazol-5-yl)-2,3,10-triazatricyclo[7.3.1.0,5,13]trideca-1,5,7,9(13)-tetraen-4-one

> <CAS>
1207456-01-6

> <URL>
https://www.enaminestore.com/catalog/EN300-20176329

> <ROCS_ShapeQuery>
x0446_0A_x1080_0A_x0929_0A_x0812_0A_x0719_0A_x1140_0A_x0528_0A_x0310_0A

> <ROCS_TanimotoCombo>
0.410 

> <ROCS_ShapeTanimoto>
0.259 

> <ROCS_ColorTanimoto>
0.152 

> <ROCS_RefTversky>
0.238 

> <ROCS_RefColorTversky>
0.177 

> <ROCS_RefTverskyCombo>
0.415 

> <ROCS_FitTversky>
1.493 

> <ROCS_FitColorTversky>
0.515 

> <ROCS_FitTverskyCombo>
2.008 

> <ROCS_ColorScore>
-6.356

> <ROCS_Overlap>
2818.627

> <ROCS_Rank>
448                 

$$$$
untitled-dbase-501336_3
  -OEChem-02082415563D

 31 33  0     0  0  0  0  0  0999 V2000
    9.6994   13.6291   23.3898 C   0  0  0  0  0  0  0  0  0  0  0  0
    5.4039   14.0827   24.1293 C   0  0  0  0  0  0  0  0  0  0  0  0
   10.1384   11.2971   24.6528 C   0  0  0  0  0  0  0  0  0  0  0  0
    9.7767   11.0598   22.6035 C   0  0  0  0  0  0  0  0  0  0  0  0
    7.1895   12.5033   25.0643 C   0  0  0  0  0  0  0  0  0  0  0  0
    6.8168   12.2594   22.9566 C   0  0  0  0  0  0  0  0  0  0  0  0
    9.3200   12.1767   23.6250 C   0  0  0  0  0  0  0  0  0  0  0  0
    7.8536   11.7070   23.9384 C   0  0  0  0  0  0  0  0  0  0  0  0
    9.3911   10.1609   23.8460 C   0  0  0  0  0  0  0  0  0  0  0  0
    9.8793    8.7427   23.9243 C   0  0  0  0  0  0  0  0  0  0  0  0
    5.2444   14.8915   22.8700 C   0  0  0  0  0  0  0  0  0  0  0  0
    6.3380   13.0876   24.0461 N   0  0  0  0  0  0  0  0  0  0  0  0
    9.1299   14.3871   22.6188 O   0  0  0  0  0  0  0  0  0  0  0  0
    4.7377   14.3230   25.1349 O   0  0  0  0  0  0  0  0  0  0  0  0
    7.9502   10.2661   24.0880 O   0  0  0  0  0  0  0  0  0  0  0  0
   10.7645   13.9754   24.1533 O   0  0  0  0  0  0  0  0  0  0  0  0
    6.0780   14.4471   21.9114 F   0  0  0  0  0  0  0  0  0  0  0  0
    3.9847   14.8046   22.4041 F   0  0  0  0  0  0  0  0  0  0  0  0
    5.5191   16.1896   23.0963 F   0  0  0  0  0  0  0  0  0  0  0  0
   11.2305   11.3306   24.5669 H   0  0  0  0  0  0  0  0  0  0  0  0
    9.8591   11.3927   25.7063 H   0  0  0  0  0  0  0  0  0  0  0  0
    9.1544   10.9302   21.7131 H   0  0  0  0  0  0  0  0  0  0  0  0
   10.8314   11.0687   22.3056 H   0  0  0  0  0  0  0  0  0  0  0  0
    6.6308   11.9068   25.7914 H   0  0  0  0  0  0  0  0  0  0  0  0
    7.8109   13.2363   25.5853 H   0  0  0  0  0  0  0  0  0  0  0  0
    7.2004   12.8298   22.1068 H   0  0  0  0  0  0  0  0  0  0  0  0
    6.0708   11.5369   22.6131 H   0  0  0  0  0  0  0  0  0  0  0  0
    9.2579    8.0772   23.3114 H   0  0  0  0  0  0  0  0  0  0  0  0
    9.8511    8.3723   24.9571 H   0  0  0  0  0  0  0  0  0  0  0  0
   10.9137    8.6614   23.5660 H   0  0  0  0  0  0  0  0  0  0  0  0
   11.0264   14.9105   24.0142 H   0  0  0  0  0  0  0  0  0  0  0  0
  1  7  1  0  0  0  0
  1 13  2  0  0  0  0
  1 16  1  0  0  0  0
  2 11  1  0  0  0  0
  2 12  1  0  0  0  0
  2 14  2  0  0  0  0
  3  7  1  0  0  0  0
  3  9  1  0  0  0  0
  4  7  1  0  0  0  0
  4  9  1  0  0  0  0
  5  8  1  0  0  0  0
  5 12  1  0  0  0  0
  6  8  1  0  0  0  0
  6 12  1  0  0  0  0
  7  8  1  0  0  0  0
  8 15  1  0  0  0  0
  9 10  1  0  0  0  0
  9 15  1  0  0  0  0
 11 17  1  0  0  0  0
 11 18  1  0  0  0  0
 11 19  1  0  0  0  0
  3 20  1  0  0  0  0
  3 21  1  0  0  0  0
  4 22  1  0  0  0  0
  4 23  1  0  0  0  0
  5 24  1  0  0  0  0
  5 25  1  0  0  0  0
  6 26  1  0  0  0  0
  6 27  1  0  0  0  0
 10 28  1  0  0  0  0
 10 29  1  0  0  0  0
 10 30  1  0  0  0  0
 16 31  1  0  0  0  0
M  END
> <id>
EN300-28285478

> <smiles>
CC1(CC2(C1)C(=O)O)OC32CN(C3)C(=O)C(F)(F)F

> <IUPAC Name>
4'-methyl-1-(2,2,2-trifluoroacetyl)-3'-oxaspiro[azetidine-3,2'-bicyclo[2.1.1]hexane]-1'-carboxylic acid

> <CAS>
2680849-68-5

> <URL>
https://www.enaminestore.com/catalog/EN300-28285478

> <ROCS_ShapeQuery>
x0446_0A_x1080_0A_x0929_0A_x0812_0A_x0719_0A_x1140_0A_x0528_0A_x0310_0A

> <ROCS_TanimotoCombo>
0.410 

> <ROCS_ShapeTanimoto>
0.225 

> <ROCS_ColorTanimoto>
0.186 

> <ROCS_RefTversky>
0.206 

> <ROCS_RefColorTversky>
0.218 

> <ROCS_RefTverskyCombo>
0.424 

> <ROCS_FitTversky>
1.670 

> <ROCS_FitColorTversky>
0.559 

> <ROCS_FitTverskyCombo>
2.228 

> <ROCS_ColorScore>
-7.830

> <ROCS_Overlap>
2433.693

> <ROCS_Rank>
449                 

$$$$
untitled-dbase-2653_1
  -OEChem-02082415563D

 39 42  0     1  0  0  0  0  0999 V2000
   12.1521   16.1450   22.0035 C   0  0  0  0  0  0  0  0  0  0  0  0
   11.0455   15.7444   21.2549 C   0  0  0  0  0  0  0  0  0  0  0  0
   12.5359   15.4132   23.1273 C   0  0  0  0  0  0  0  0  0  0  0  0
   10.3224   14.6121   21.6301 C   0  0  0  0  0  0  0  0  0  0  0  0
   11.8129   14.2809   23.5025 C   0  0  0  0  0  0  0  0  0  0  0  0
   10.7061   13.8803   22.7539 C   0  0  0  0  0  0  0  0  0  0  0  0
    6.2051   12.1982   24.2405 C   0  0  0  0  0  0  0  0  0  0  0  0
    9.7094    9.7186   23.8146 C   0  0  0  0  0  0  0  0  0  0  0  0
    9.8746   11.5169   22.0782 C   0  0  0  0  0  0  0  0  0  0  0  0
   10.5312   12.0026   24.4496 C   0  0  0  0  0  0  0  0  0  0  0  0
    7.6256   10.7236   22.8474 C   0  0  0  0  0  0  0  0  0  0  0  0
    8.2765   11.2185   25.2204 C   0  0  0  0  0  0  0  0  0  0  0  0
    8.4322   13.0190   23.4747 C   0  0  0  0  0  0  0  0  0  0  0  0
    9.0676   10.2931   22.5441 C   0  0  2  0  0  0  0  0  0  0  0  0
    9.7199   10.7829   24.9204 C   0  0  1  0  0  0  0  0  0  0  0  0
    9.9098   12.6327   23.1681 C   0  0  0  0  0  0  0  0  0  0  0  0
    7.6231   11.7951   23.9502 C   0  0  0  0  0  0  0  0  0  0  0  0
    5.6523   12.0886   25.3248 O   0  0  0  0  0  0  0  0  0  0  0  0
    5.6137   12.7018   23.1297 O   0  0  0  0  0  0  0  0  0  0  0  0
   12.7158   17.0259   21.7104 H   0  0  0  0  0  0  0  0  0  0  0  0
   10.7472   16.3134   20.3792 H   0  0  0  0  0  0  0  0  0  0  0  0
   13.3981   15.7241   23.7097 H   0  0  0  0  0  0  0  0  0  0  0  0
    9.4614   14.3076   21.0410 H   0  0  0  0  0  0  0  0  0  0  0  0
   12.1191   13.7170   24.3797 H   0  0  0  0  0  0  0  0  0  0  0  0
    9.1529    8.8348   24.1495 H   0  0  0  0  0  0  0  0  0  0  0  0
   10.7335    9.3883   23.6017 H   0  0  0  0  0  0  0  0  0  0  0  0
   10.8982   11.2079   21.8259 H   0  0  0  0  0  0  0  0  0  0  0  0
    9.4391   11.9131   21.1508 H   0  0  0  0  0  0  0  0  0  0  0  0
   10.5698   12.7507   25.2529 H   0  0  0  0  0  0  0  0  0  0  0  0
   11.5706   11.7040   24.2580 H   0  0  0  0  0  0  0  0  0  0  0  0
    7.1501   11.1100   21.9362 H   0  0  0  0  0  0  0  0  0  0  0  0
    7.0320    9.8531   23.1568 H   0  0  0  0  0  0  0  0  0  0  0  0
    7.7002   10.3611   25.5927 H   0  0  0  0  0  0  0  0  0  0  0  0
    8.2694   11.9645   26.0260 H   0  0  0  0  0  0  0  0  0  0  0  0
    8.4030   13.8079   24.2399 H   0  0  0  0  0  0  0  0  0  0  0  0
    7.9661   13.4581   22.5811 H   0  0  0  0  0  0  0  0  0  0  0  0
    9.0662    9.5318   21.7559 H   0  0  0  0  0  0  0  0  0  0  0  0
   10.1748   10.3677   25.8268 H   0  0  0  0  0  0  0  0  0  0  0  0
    4.6851   12.9695   23.2984 H   0  0  0  0  0  0  0  0  0  0  0  0
  1  2  1  0  0  0  0
  1  3  2  0  0  0  0
  2  4  2  0  0  0  0
  3  5  1  0  0  0  0
  4  6  1  0  0  0  0
  5  6  2  0  0  0  0
  6 16  1  0  0  0  0
  7 17  1  0  0  0  0
  7 18  2  0  0  0  0
  7 19  1  0  0  0  0
  8 14  1  0  0  0  0
  8 15  1  0  0  0  0
  9 14  1  0  0  0  0
  9 16  1  0  0  0  0
 10 15  1  0  0  0  0
 10 16  1  0  0  0  0
 11 14  1  0  0  0  0
 11 17  1  0  0  0  0
 12 15  1  0  0  0  0
 12 17  1  0  0  0  0
 13 16  1  0  0  0  0
 13 17  1  0  0  0  0
  1 20  1  0  0  0  0
  2 21  1  0  0  0  0
  3 22  1  0  0  0  0
  4 23  1  0  0  0  0
  5 24  1  0  0  0  0
  8 25  1  0  0  0  0
  8 26  1  0  0  0  0
  9 27  1  0  0  0  0
  9 28  1  0  0  0  0
 10 29  1  0  0  0  0
 10 30  1  0  0  0  0
 11 31  1  0  0  0  0
 11 32  1  0  0  0  0
 12 33  1  0  0  0  0
 12 34  1  0  0  0  0
 13 35  1  0  0  0  0
 13 36  1  0  0  0  0
 14 37  1  0  0  0  0
 15 38  1  0  0  0  0
 19 39  1  0  0  0  0
M  END
> <id>
EN300-00163

> <smiles>
OC(=O)C1(CC2CC3C1)CC(C2)(C3)C=4C=CC=CC4

> <MDLNUMBER>
MFCD01673970

> <IUPAC Name>
3-phenyladamantane-1-carboxylic acid

> <CAS>
37589-22-3

> <Purity>
95

> <URL>
https://www.enaminestore.com/catalog/EN300-00163

> <ROCS_ShapeQuery>
x0446_0A_x1080_0A_x0929_0A_x0812_0A_x0719_0A_x1140_0A_x0528_0A_x0310_0A

> <ROCS_TanimotoCombo>
0.410 

> <ROCS_ShapeTanimoto>
0.249 

> <ROCS_ColorTanimoto>
0.161 

> <ROCS_RefTversky>
0.224 

> <ROCS_RefColorTversky>
0.185 

> <ROCS_RefTverskyCombo>
0.409 

> <ROCS_FitTversky>
1.825 

> <ROCS_FitColorTversky>
0.561 

> <ROCS_FitTverskyCombo>
2.386 

> <ROCS_ColorScore>
-6.624

> <ROCS_Overlap>
2642.378

> <ROCS_Rank>
450                 

$$$$
untitled-dbase-482567_3
  -OEChem-02082415563D

 39 41  0     0  0  0  0  0  0999 V2000
    7.6243   13.7968   23.3792 C   0  0  0  0  0  0  0  0  0  0  0  0
    8.7243   11.5491   22.4083 C   0  0  0  0  0  0  0  0  0  0  0  0
    9.6818   12.2472   24.1355 C   0  0  0  0  0  0  0  0  0  0  0  0
    6.9562   11.7903   25.8138 C   0  0  0  0  0  0  0  0  0  0  0  0
    6.0119   11.1020   24.1096 C   0  0  0  0  0  0  0  0  0  0  0  0
    8.1936   12.4080   23.6256 C   0  0  0  0  0  0  0  0  0  0  0  0
    7.4769   11.3034   24.4692 C   0  0  0  0  0  0  0  0  0  0  0  0
    9.4062   10.7799   23.6111 C   0  0  0  0  0  0  0  0  0  0  0  0
    7.9852   16.4388   22.3863 C   0  0  0  0  0  0  0  0  0  0  0  0
    7.3163   15.4941   20.1571 C   0  0  0  0  0  0  0  0  0  0  0  0
    5.6951   15.4424   22.0747 C   0  0  0  0  0  0  0  0  0  0  0  0
   10.5557    9.8495   23.3501 C   0  0  0  0  0  0  0  0  0  0  0  0
    7.1668   15.3646   21.6714 C   0  0  0  0  0  0  0  0  0  0  0  0
   10.1608    8.7890   22.4711 N   0  0  0  0  0  0  0  0  0  0  0  0
    7.1931   14.5269   24.2613 O   0  0  0  0  0  0  0  0  0  0  0  0
    5.5837   11.6979   25.3587 O   0  0  0  0  0  0  0  0  0  0  0  0
    8.3665   10.1609   24.4377 O   0  0  0  0  0  0  0  0  0  0  0  0
    7.6747   14.0803   22.0465 O   0  0  0  0  0  0  0  0  0  0  0  0
    7.9735   10.9835   21.8487 H   0  0  0  0  0  0  0  0  0  0  0  0
    9.3912   12.0568   21.7020 H   0  0  0  0  0  0  0  0  0  0  0  0
   10.4475   12.8271   23.6075 H   0  0  0  0  0  0  0  0  0  0  0  0
    9.8392   12.3436   25.2140 H   0  0  0  0  0  0  0  0  0  0  0  0
    7.1386   11.1171   26.6573 H   0  0  0  0  0  0  0  0  0  0  0  0
    7.2158   12.8117   26.1056 H   0  0  0  0  0  0  0  0  0  0  0  0
    5.6327   11.6572   23.2469 H   0  0  0  0  0  0  0  0  0  0  0  0
    5.6867   10.0592   24.0379 H   0  0  0  0  0  0  0  0  0  0  0  0
    7.8806   16.3493   23.4735 H   0  0  0  0  0  0  0  0  0  0  0  0
    9.0482   16.3717   22.1325 H   0  0  0  0  0  0  0  0  0  0  0  0
    7.6292   17.4414   22.1231 H   0  0  0  0  0  0  0  0  0  0  0  0
    6.7307   14.7253   19.6401 H   0  0  0  0  0  0  0  0  0  0  0  0
    8.3587   15.3443   19.8536 H   0  0  0  0  0  0  0  0  0  0  0  0
    6.9893   16.4765   19.8014 H   0  0  0  0  0  0  0  0  0  0  0  0
    5.1078   14.6720   21.5620 H   0  0  0  0  0  0  0  0  0  0  0  0
    5.5654   15.3145   23.1543 H   0  0  0  0  0  0  0  0  0  0  0  0
    5.2618   16.4062   21.7837 H   0  0  0  0  0  0  0  0  0  0  0  0
   11.3700   10.4224   22.8907 H   0  0  0  0  0  0  0  0  0  0  0  0
   10.8870    9.4284   24.3069 H   0  0  0  0  0  0  0  0  0  0  0  0
   10.2881    7.9066   22.9273 H   0  0  0  0  0  0  0  0  0  0  0  0
    9.1963    8.8967   22.2244 H   0  0  0  0  0  0  0  0  0  0  0  0
  1  6  1  0  0  0  0
  1 15  2  0  0  0  0
  1 18  1  0  0  0  0
  2  6  1  0  0  0  0
  2  8  1  0  0  0  0
  3  6  1  0  0  0  0
  3  8  1  0  0  0  0
  4  7  1  0  0  0  0
  4 16  1  0  0  0  0
  5  7  1  0  0  0  0
  5 16  1  0  0  0  0
  6  7  1  0  0  0  0
  7 17  1  0  0  0  0
  8 12  1  0  0  0  0
  8 17  1  0  0  0  0
  9 13  1  0  0  0  0
 10 13  1  0  0  0  0
 11 13  1  0  0  0  0
 12 14  1  0  0  0  0
 13 18  1  0  0  0  0
  2 19  1  0  0  0  0
  2 20  1  0  0  0  0
  3 21  1  0  0  0  0
  3 22  1  0  0  0  0
  4 23  1  0  0  0  0
  4 24  1  0  0  0  0
  5 25  1  0  0  0  0
  5 26  1  0  0  0  0
  9 27  1  0  0  0  0
  9 28  1  0  0  0  0
  9 29  1  0  0  0  0
 10 30  1  0  0  0  0
 10 31  1  0  0  0  0
 10 32  1  0  0  0  0
 11 33  1  0  0  0  0
 11 34  1  0  0  0  0
 11 35  1  0  0  0  0
 12 36  1  0  0  0  0
 12 37  1  0  0  0  0
 14 38  1  0  0  0  0
 14 39  1  0  0  0  0
M  END
> <id>
EN300-27728317

> <smiles>
CC(C)(C)OC(=O)C1(CC2(CN)C1)C3(COC3)O2

> <IUPAC Name>
tert-butyl 4-(aminomethyl)-3-oxaspiro[bicyclo[2.1.1]hexane-2,3'-oxetane]-1-carboxylate

> <CAS>
2639411-52-0

> <URL>
https://www.enaminestore.com/catalog/EN300-27728317

> <ROCS_ShapeQuery>
x0446_0A_x1080_0A_x0929_0A_x0812_0A_x0719_0A_x1140_0A_x0528_0A_x0310_0A

> <ROCS_TanimotoCombo>
0.410 

> <ROCS_ShapeTanimoto>
0.227 

> <ROCS_ColorTanimoto>
0.183 

> <ROCS_RefTversky>
0.207 

> <ROCS_RefColorTversky>
0.219 

> <ROCS_RefTverskyCombo>
0.426 

> <ROCS_FitTversky>
1.761 

> <ROCS_FitColorTversky>
0.527 

> <ROCS_FitTverskyCombo>
2.288 

> <ROCS_ColorScore>
-7.885

> <ROCS_Overlap>
2444.243

> <ROCS_Rank>
451                 

$$$$
untitled-dbase-353856_7
  -OEChem-02082415563D

 47 49  0     1  0  0  0  0  0999 V2000
   10.5595    9.6668   23.4260 C   0  0  0  0  0  0  0  0  0  0  0  0
   11.1502   12.2974   22.7655 C   0  0  0  0  0  0  0  0  0  0  0  0
   11.7823    9.9692   22.8350 C   0  0  0  0  0  0  0  0  0  0  0  0
   12.0774   11.2851   22.5048 C   0  0  0  0  0  0  0  0  0  0  0  0
    9.6214   10.6760   23.6921 C   0  0  0  0  0  0  0  0  0  0  0  0
    9.9067   12.0167   23.3624 C   0  0  0  0  0  0  0  0  0  0  0  0
    7.5156   11.1909   24.5535 C   0  0  0  0  0  0  0  0  0  0  0  0
    7.7304   12.6457   24.2380 C   0  0  0  0  0  0  0  0  0  0  0  0
    6.2519   10.7114   25.1896 C   0  0  0  0  0  0  0  0  0  0  0  0
    5.5891   13.0883   25.1270 C   0  0  0  0  0  0  0  0  0  0  0  0
   12.7545    8.8685   22.5679 C   0  0  0  0  0  0  0  0  0  0  0  0
   13.3809   11.6434   21.8691 C   0  0  0  0  0  0  0  0  0  0  0  0
    9.2416   14.3903   23.3006 C   0  0  0  0  0  0  0  0  0  0  0  0
    5.5815   16.2921   21.6020 C   0  0  0  0  0  0  0  0  0  0  0  0
    9.0936   14.5995   21.7889 C   0  0  1  0  0  0  0  0  0  0  0  0
    7.1078   16.2202   21.5945 C   0  0  2  0  0  0  0  0  0  0  0  0
    7.6259   14.7891   21.3568 C   0  0  1  0  0  0  0  0  0  0  0  0
    8.4099   10.2944   24.2900 N   0  0  0  0  0  0  0  0  0  0  0  0
    6.7747   13.4745   24.5398 N   0  0  0  0  0  0  0  0  0  0  0  0
    5.3741   11.7425   25.4257 N   0  0  0  0  0  0  0  0  0  0  0  0
    8.9363   13.0028   23.6461 N   0  0  0  0  0  0  0  0  0  0  0  0
    6.0932    9.5286   25.4385 O   0  0  0  0  0  0  0  0  0  0  0  0
    4.7104   13.9116   25.3930 O   0  0  0  0  0  0  0  0  0  0  0  0
    5.0897   15.4836   22.6664 O   0  0  0  0  0  0  0  0  0  0  0  0
    9.8481   15.7525   21.4136 O   0  0  0  0  0  0  0  0  0  0  0  0
    7.5895   16.6877   22.8561 O   0  0  0  0  0  0  0  0  0  0  0  0
    7.4901   14.4788   19.9707 O   0  0  0  0  0  0  0  0  0  0  0  0
   10.3261    8.6359   23.6864 H   0  0  0  0  0  0  0  0  0  0  0  0
   11.4198   13.3144   22.4904 H   0  0  0  0  0  0  0  0  0  0  0  0
   12.5876    8.4471   21.5696 H   0  0  0  0  0  0  0  0  0  0  0  0
   13.7890    9.2295   22.6258 H   0  0  0  0  0  0  0  0  0  0  0  0
   12.6561    8.0636   23.3074 H   0  0  0  0  0  0  0  0  0  0  0  0
   14.1270   11.8750   22.6378 H   0  0  0  0  0  0  0  0  0  0  0  0
   13.7594   10.8203   21.2508 H   0  0  0  0  0  0  0  0  0  0  0  0
   13.2743   12.5145   21.2111 H   0  0  0  0  0  0  0  0  0  0  0  0
   10.2647   14.6100   23.6234 H   0  0  0  0  0  0  0  0  0  0  0  0
    8.5594   15.0380   23.8583 H   0  0  0  0  0  0  0  0  0  0  0  0
    5.2288   17.3144   21.7718 H   0  0  0  0  0  0  0  0  0  0  0  0
    5.1654   15.9093   20.6650 H   0  0  0  0  0  0  0  0  0  0  0  0
    9.5262   13.7357   21.2699 H   0  0  0  0  0  0  0  0  0  0  0  0
    7.5051   16.8979   20.8301 H   0  0  0  0  0  0  0  0  0  0  0  0
    6.9824   14.1022   21.9213 H   0  0  0  0  0  0  0  0  0  0  0  0
    4.4850   11.5043   25.8558 H   0  0  0  0  0  0  0  0  0  0  0  0
    4.1224   15.5518   22.6421 H   0  0  0  0  0  0  0  0  0  0  0  0
    9.4767   16.4961   21.9115 H   0  0  0  0  0  0  0  0  0  0  0  0
    7.2780   17.6006   22.9453 H   0  0  0  0  0  0  0  0  0  0  0  0
    7.7638   13.5547   19.8682 H   0  0  0  0  0  0  0  0  0  0  0  0
  1  3  1  0  0  0  0
  1  5  2  0  0  0  0
  2  4  1  0  0  0  0
  2  6  2  0  0  0  0
  3  4  2  0  0  0  0
  3 11  1  0  0  0  0
  4 12  1  0  0  0  0
  5  6  1  0  0  0  0
  5 18  1  0  0  0  0
  6 21  1  0  0  0  0
  7  8  1  0  0  0  0
  7  9  1  0  0  0  0
  7 18  2  0  0  0  0
  8 19  2  0  0  0  0
  8 21  1  0  0  0  0
  9 20  1  0  0  0  0
  9 22  2  0  0  0  0
 10 19  1  0  0  0  0
 10 20  1  0  0  0  0
 10 23  2  0  0  0  0
 13 15  1  0  0  0  0
 13 21  1  0  0  0  0
 14 16  1  0  0  0  0
 14 24  1  0  0  0  0
 15 17  1  0  0  0  0
 15 25  1  6  0  0  0
 16 17  1  0  0  0  0
 16 26  1  6  0  0  0
 17 27  1  1  0  0  0
  1 28  1  0  0  0  0
  2 29  1  0  0  0  0
 11 30  1  0  0  0  0
 11 31  1  0  0  0  0
 11 32  1  0  0  0  0
 12 33  1  0  0  0  0
 12 34  1  0  0  0  0
 12 35  1  0  0  0  0
 13 36  1  0  0  0  0
 13 37  1  0  0  0  0
 14 38  1  0  0  0  0
 14 39  1  0  0  0  0
 15 40  1  0  0  0  0
 16 41  1  0  0  0  0
 17 42  1  0  0  0  0
 20 43  1  0  0  0  0
 24 44  1  0  0  0  0
 25 45  1  0  0  0  0
 26 46  1  0  0  0  0
 27 47  1  0  0  0  0
M  END
> <id>
EN300-6477227

> <smiles>
CC=1C=C2N=C3C(=O)NC(=O)N=C3N(C[C@H](O)[C@H](O)[C@H](O)CO)C2=CC1C

> <MDLNUMBER>
MFCD00005022

> <IUPAC Name>
7,8-dimethyl-10-[(2S,3S,4R)-2,3,4,5-tetrahydroxypentyl]-2H,3H,4H,10H-benzo[g]pteridine-2,4-dione

> <CAS>
83-88-5

> <Purity>
95

> <URL>
https://www.enaminestore.com/catalog/EN300-6477227

> <MP>
289-294

> <ROCS_ShapeQuery>
x0446_0A_x1080_0A_x0929_0A_x0812_0A_x0719_0A_x1140_0A_x0528_0A_x0310_0A

> <ROCS_TanimotoCombo>
0.410 

> <ROCS_ShapeTanimoto>
0.263 

> <ROCS_ColorTanimoto>
0.147 

> <ROCS_RefTversky>
0.240 

> <ROCS_RefColorTversky>
0.192 

> <ROCS_RefTverskyCombo>
0.432 

> <ROCS_FitTversky>
1.588 

> <ROCS_FitColorTversky>
0.385 

> <ROCS_FitTverskyCombo>
1.973 

> <ROCS_ColorScore>
-6.944

> <ROCS_Overlap>
2838.639

> <ROCS_Rank>
452                 

$$$$
untitled-dbase-356006_5
  -OEChem-02082415563D

 43 44  0     1  0  0  0  0  0999 V2000
    7.7606   13.8059   20.9721 C   0  0  0  0  0  0  0  0  0  0  0  0
    7.9941   12.2663   24.2595 C   0  0  0  0  0  0  0  0  0  0  0  0
    9.2271   12.1573   23.6697 C   0  0  0  0  0  0  0  0  0  0  0  0
    7.5944   10.9361   24.5105 C   0  0  0  0  0  0  0  0  0  0  0  0
   10.0949   13.1886   23.1963 C   0  0  0  0  0  0  0  0  0  0  0  0
    7.1379   13.4211   24.6144 C   0  0  0  0  0  0  0  0  0  0  0  0
    6.3049   10.6115   25.1840 C   0  0  2  0  0  0  0  0  0  0  0  0
    6.0976   12.9723   25.6673 C   0  0  1  0  0  0  0  0  0  0  0  0
    5.5275    9.5032   24.4852 C   0  0  0  0  0  0  0  0  0  0  0  0
    5.0357   14.0433   25.8722 C   0  0  0  0  0  0  0  0  0  0  0  0
   11.6202    9.7222   24.1737 C   0  0  0  0  0  0  0  0  0  0  0  0
   10.2162   16.0419   21.5197 C   0  0  0  0  0  0  0  0  0  0  0  0
    9.0261   13.0761   20.9200 C   0  0  0  0  0  0  0  0  0  0  0  0
   10.6732   10.1874   23.0809 C   0  0  0  0  0  0  0  0  0  0  0  0
   10.8404   14.7025   21.3224 C   0  0  0  0  0  0  0  0  0  0  0  0
    6.7549   14.3833   21.0105 N   0  0  0  0  0  0  0  0  0  0  0  0
    8.5117   10.0430   24.1332 N   0  0  0  0  0  0  0  0  0  0  0  0
    9.4874   10.8160   23.6158 N   0  0  0  0  0  0  0  0  0  0  0  0
    9.9894   13.6406   21.8548 N   0  0  0  0  0  0  0  0  0  0  0  0
   10.9223   13.6739   23.9980 O   0  0  0  0  0  0  0  0  0  0  0  0
    5.4309   11.7691   25.2298 O   0  0  0  0  0  0  0  0  0  0  0  0
    7.7344   14.2540   25.0019 H   0  0  0  0  0  0  0  0  0  0  0  0
    6.6281   13.7605   23.7041 H   0  0  0  0  0  0  0  0  0  0  0  0
    6.5041   10.3115   26.2202 H   0  0  0  0  0  0  0  0  0  0  0  0
    6.5859   12.7685   26.6292 H   0  0  0  0  0  0  0  0  0  0  0  0
    5.3212    9.7861   23.4528 H   0  0  0  0  0  0  0  0  0  0  0  0
    4.5824    9.3290   24.9996 H   0  0  0  0  0  0  0  0  0  0  0  0
    6.1081    8.5805   24.4897 H   0  0  0  0  0  0  0  0  0  0  0  0
    4.5369   14.2618   24.9273 H   0  0  0  0  0  0  0  0  0  0  0  0
    5.4945   14.9584   26.2483 H   0  0  0  0  0  0  0  0  0  0  0  0
    4.2919   13.7001   26.5923 H   0  0  0  0  0  0  0  0  0  0  0  0
   11.9429   10.5600   24.8008 H   0  0  0  0  0  0  0  0  0  0  0  0
   12.5105    9.2624   23.7338 H   0  0  0  0  0  0  0  0  0  0  0  0
   11.1405    8.9836   24.8246 H   0  0  0  0  0  0  0  0  0  0  0  0
   10.0583   16.2188   22.5939 H   0  0  0  0  0  0  0  0  0  0  0  0
   10.8804   16.8193   21.1140 H   0  0  0  0  0  0  0  0  0  0  0  0
    9.2491   16.0763   20.9966 H   0  0  0  0  0  0  0  0  0  0  0  0
    8.8857   12.0242   21.1847 H   0  0  0  0  0  0  0  0  0  0  0  0
    9.4679   13.1242   19.9207 H   0  0  0  0  0  0  0  0  0  0  0  0
   10.3561    9.3426   22.4590 H   0  0  0  0  0  0  0  0  0  0  0  0
   11.1691   10.9086   22.4213 H   0  0  0  0  0  0  0  0  0  0  0  0
   10.9949   14.5334   20.2465 H   0  0  0  0  0  0  0  0  0  0  0  0
   11.8106   14.6788   21.8403 H   0  0  0  0  0  0  0  0  0  0  0  0
  1 13  1  0  0  0  0
  1 16  3  0  0  0  0
  2  3  2  0  0  0  0
  2  4  1  0  0  0  0
  2  6  1  0  0  0  0
  3  5  1  0  0  0  0
  3 18  1  0  0  0  0
  4  7  1  0  0  0  0
  4 17  2  0  0  0  0
  5 19  1  0  0  0  0
  5 20  2  0  0  0  0
  6  8  1  0  0  0  0
  7  9  1  1  0  0  0
  7 21  1  0  0  0  0
  8 10  1  1  0  0  0
  8 21  1  0  0  0  0
 11 14  1  0  0  0  0
 12 15  1  0  0  0  0
 13 19  1  0  0  0  0
 14 18  1  0  0  0  0
 15 19  1  0  0  0  0
 17 18  1  0  0  0  0
  6 22  1  0  0  0  0
  6 23  1  0  0  0  0
  7 24  1  0  0  0  0
  8 25  1  0  0  0  0
  9 26  1  0  0  0  0
  9 27  1  0  0  0  0
  9 28  1  0  0  0  0
 10 29  1  0  0  0  0
 10 30  1  0  0  0  0
 10 31  1  0  0  0  0
 11 32  1  0  0  0  0
 11 33  1  0  0  0  0
 11 34  1  0  0  0  0
 12 35  1  0  0  0  0
 12 36  1  0  0  0  0
 12 37  1  0  0  0  0
 13 38  1  0  0  0  0
 13 39  1  0  0  0  0
 14 40  1  0  0  0  0
 14 41  1  0  0  0  0
 15 42  1  0  0  0  0
 15 43  1  0  0  0  0
M  END
> <id>
EN300-26681512

> <smiles>
CCN(CC#N)C(=O)C1=C2C[C@@H](C)O[C@@H](C)C2=NN1CC |&1:11,14,r|

> <IUPAC Name>
rac-(5R,7S)-N-(cyanomethyl)-N,2-diethyl-5,7-dimethyl-2H,4H,5H,7H-pyrano[3,4-c]pyrazole-3-carboxamide

> <CAS>
2418594-82-6

> <URL>
https://www.enaminestore.com/catalog/EN300-26681512

> <ROCS_ShapeQuery>
x0446_0A_x1080_0A_x0929_0A_x0812_0A_x0719_0A_x1140_0A_x0528_0A_x0310_0A

> <ROCS_TanimotoCombo>
0.410 

> <ROCS_ShapeTanimoto>
0.252 

> <ROCS_ColorTanimoto>
0.159 

> <ROCS_RefTversky>
0.226 

> <ROCS_RefColorTversky>
0.166 

> <ROCS_RefTverskyCombo>
0.393 

> <ROCS_FitTversky>
1.784 

> <ROCS_FitColorTversky>
0.781 

> <ROCS_FitTverskyCombo>
2.566 

> <ROCS_ColorScore>
-5.922

> <ROCS_Overlap>
2674.694

> <ROCS_Rank>
453                 

$$$$
untitled-dbase-371490_9
  -OEChem-02082415563D

 38 41  0     0  0  0  0  0  0999 V2000
   10.5182   15.6296   21.1175 C   0  0  0  0  0  0  0  0  0  0  0  0
   10.0971   10.8027   23.3308 C   0  0  0  0  0  0  0  0  0  0  0  0
    8.1614   12.0757   23.8996 C   0  0  0  0  0  0  0  0  0  0  0  0
    9.4673   12.0450   23.3967 C   0  0  0  0  0  0  0  0  0  0  0  0
    9.4061    9.6760   23.7616 C   0  0  0  0  0  0  0  0  0  0  0  0
    7.1607   13.0309   24.1508 C   0  0  0  0  0  0  0  0  0  0  0  0
    7.5850   10.8785   24.2958 C   0  0  0  0  0  0  0  0  0  0  0  0
   10.1659   13.2768   22.9475 C   0  0  0  0  0  0  0  0  0  0  0  0
   13.1509   13.5698   20.3765 C   0  0  0  0  0  0  0  0  0  0  0  0
   10.6536    7.9082   22.3500 C   0  0  0  0  0  0  0  0  0  0  0  0
    9.4455    7.2330   22.9198 C   0  0  0  0  0  0  0  0  0  0  0  0
   11.8490   14.0013   19.6677 C   0  0  0  0  0  0  0  0  0  0  0  0
   12.7224   14.4322   21.5832 C   0  0  0  0  0  0  0  0  0  0  0  0
   10.1020    8.3555   23.6762 C   0  0  0  0  0  0  0  0  0  0  0  0
   11.2772   14.4115   21.0413 C   0  0  0  0  0  0  0  0  0  0  0  0
    7.2074   14.4851   23.9215 C   0  0  0  0  0  0  0  0  0  0  0  0
    9.9056   16.6130   21.1789 N   0  0  0  0  0  0  0  0  0  0  0  0
    8.1449    9.6555   24.2546 N   0  0  0  0  0  0  0  0  0  0  0  0
    6.0534   12.4829   24.6594 N   0  0  0  0  0  0  0  0  0  0  0  0
   10.5555   13.2802   21.6283 N   0  0  0  0  0  0  0  0  0  0  0  0
   10.3672   14.1805   23.7545 O   0  0  0  0  0  0  0  0  0  0  0  0
    6.3237   11.1236   24.7501 O   0  0  0  0  0  0  0  0  0  0  0  0
   11.1106   10.7192   22.9476 H   0  0  0  0  0  0  0  0  0  0  0  0
   13.1940   12.4976   20.5981 H   0  0  0  0  0  0  0  0  0  0  0  0
   14.0796   13.8709   19.8853 H   0  0  0  0  0  0  0  0  0  0  0  0
   11.5891    7.3612   22.3606 H   0  0  0  0  0  0  0  0  0  0  0  0
   10.5150    8.5356   21.4779 H   0  0  0  0  0  0  0  0  0  0  0  0
    8.4941    7.4083   22.4315 H   0  0  0  0  0  0  0  0  0  0  0  0
    9.5654    6.2306   23.3133 H   0  0  0  0  0  0  0  0  0  0  0  0
   11.9984   14.8324   18.9669 H   0  0  0  0  0  0  0  0  0  0  0  0
   11.3256   13.1990   19.1380 H   0  0  0  0  0  0  0  0  0  0  0  0
   12.8865   13.9692   22.5614 H   0  0  0  0  0  0  0  0  0  0  0  0
   13.1948   15.4227   21.5907 H   0  0  0  0  0  0  0  0  0  0  0  0
   10.6687    8.0812   24.5547 H   0  0  0  0  0  0  0  0  0  0  0  0
    6.8501   14.7426   22.9097 H   0  0  0  0  0  0  0  0  0  0  0  0
    6.5855   15.0415   24.6452 H   0  0  0  0  0  0  0  0  0  0  0  0
    8.2294   14.8911   24.0267 H   0  0  0  0  0  0  0  0  0  0  0  0
   10.4190   12.4837   21.0289 H   0  0  0  0  0  0  0  0  0  0  0  0
  1 15  1  0  0  0  0
  1 17  3  0  0  0  0
  2  4  2  0  0  0  0
  2  5  1  0  0  0  0
  3  4  1  0  0  0  0
  3  6  1  0  0  0  0
  3  7  2  0  0  0  0
  4  8  1  0  0  0  0
  5 14  1  0  0  0  0
  5 18  2  0  0  0  0
  6 16  1  0  0  0  0
  6 19  2  0  0  0  0
  7 18  1  0  0  0  0
  7 22  1  0  0  0  0
  8 20  1  0  0  0  0
  8 21  2  0  0  0  0
  9 12  1  0  0  0  0
  9 13  1  0  0  0  0
 10 11  1  0  0  0  0
 10 14  1  0  0  0  0
 11 14  1  0  0  0  0
 12 15  1  0  0  0  0
 13 15  1  0  0  0  0
 15 20  1  0  0  0  0
 19 22  1  0  0  0  0
  2 23  1  0  0  0  0
  9 24  1  0  0  0  0
  9 25  1  0  0  0  0
 10 26  1  0  0  0  0
 10 27  1  0  0  0  0
 11 28  1  0  0  0  0
 11 29  1  0  0  0  0
 12 30  1  0  0  0  0
 12 31  1  0  0  0  0
 13 32  1  0  0  0  0
 13 33  1  0  0  0  0
 14 34  1  0  0  0  0
 16 35  1  0  0  0  0
 16 36  1  0  0  0  0
 16 37  1  0  0  0  0
 20 38  1  0  0  0  0
M  END
> <id>
EN300-26689347

> <smiles>
CC1=NOC=2N=C(C=C(C(=O)NC3(CCC3)C#N)C12)C4CC4

> <IUPAC Name>
N-(1-cyanocyclobutyl)-6-cyclopropyl-3-methyl-[1,2]oxazolo[5,4-b]pyridine-4-carboxamide

> <CAS>
1465317-92-3

> <URL>
https://www.enaminestore.com/catalog/EN300-26689347

> <ROCS_ShapeQuery>
x0446_0A_x1080_0A_x0929_0A_x0812_0A_x0719_0A_x1140_0A_x0528_0A_x0310_0A

> <ROCS_TanimotoCombo>
0.410 

> <ROCS_ShapeTanimoto>
0.245 

> <ROCS_ColorTanimoto>
0.165 

> <ROCS_RefTversky>
0.223 

> <ROCS_RefColorTversky>
0.179 

> <ROCS_RefTverskyCombo>
0.403 

> <ROCS_FitTversky>
1.666 

> <ROCS_FitColorTversky>
0.675 

> <ROCS_FitTverskyCombo>
2.342 

> <ROCS_ColorScore>
-6.404

> <ROCS_Overlap>
2639.283

> <ROCS_Rank>
454                 

$$$$
untitled-dbase-287335_7
  -OEChem-02082415563D

 37 40  0     0  0  0  0  0  0999 V2000
   14.2081   16.7905   19.9931 C   0  0  0  0  0  0  0  0  0  0  0  0
   14.8805   15.5600   20.1487 C   0  0  0  0  0  0  0  0  0  0  0  0
   12.8623   16.9264   20.3464 C   0  0  0  0  0  0  0  0  0  0  0  0
   14.2218   14.4383   20.6609 C   0  0  0  0  0  0  0  0  0  0  0  0
    9.3556   10.8803   23.6484 C   0  0  0  0  0  0  0  0  0  0  0  0
    7.3711    9.9429   24.4493 C   0  0  0  0  0  0  0  0  0  0  0  0
   12.2318   15.8093   20.8527 C   0  0  0  0  0  0  0  0  0  0  0  0
   12.8958   14.5940   21.0062 C   0  0  0  0  0  0  0  0  0  0  0  0
    8.9749   12.1930   23.8878 C   0  0  0  0  0  0  0  0  0  0  0  0
    6.8947   11.2243   24.7280 C   0  0  0  0  0  0  0  0  0  0  0  0
    7.7077   12.3160   24.4406 C   0  0  0  0  0  0  0  0  0  0  0  0
    5.7735   12.9443   25.3099 C   0  0  0  0  0  0  0  0  0  0  0  0
   10.8465   15.6287   21.2982 C   0  0  0  0  0  0  0  0  0  0  0  0
   11.9426   13.6222   21.5514 C   0  0  0  0  0  0  0  0  0  0  0  0
    9.8643   13.3393   23.5709 C   0  0  0  0  0  0  0  0  0  0  0  0
    7.3606   14.7919   24.7343 C   0  0  0  0  0  0  0  0  0  0  0  0
    4.7241   13.8556   25.8114 C   0  0  0  0  0  0  0  0  0  0  0  0
    8.6045    9.7817   23.9089 N   0  0  0  0  0  0  0  0  0  0  0  0
    5.6975   11.6328   25.2672 N   0  0  0  0  0  0  0  0  0  0  0  0
    6.9657   13.4037   24.8227 N   0  0  0  0  0  0  0  0  0  0  0  0
   10.7995   14.3381   21.7236 N   0  0  0  0  0  0  0  0  0  0  0  0
    9.9902   16.4909   21.2793 O   0  0  0  0  0  0  0  0  0  0  0  0
   12.1941   12.4570   21.7880 O   0  0  0  0  0  0  0  0  0  0  0  0
   10.6684   13.8015   24.3659 O   0  0  0  0  0  0  0  0  0  0  0  0
    9.6674   13.7914   22.2921 O   0  0  0  0  0  0  0  0  0  0  0  0
    3.5944   13.2190   26.2585 F   0  0  0  0  0  0  0  0  0  0  0  0
    5.1182   14.6374   26.8672 F   0  0  0  0  0  0  0  0  0  0  0  0
    4.2798   14.7396   24.8633 F   0  0  0  0  0  0  0  0  0  0  0  0
   14.7469   17.6446   19.5908 H   0  0  0  0  0  0  0  0  0  0  0  0
   15.9268   15.4851   19.8638 H   0  0  0  0  0  0  0  0  0  0  0  0
   12.3463   17.8713   20.2241 H   0  0  0  0  0  0  0  0  0  0  0  0
   14.7383   13.4931   20.7773 H   0  0  0  0  0  0  0  0  0  0  0  0
   10.3286   10.6577   23.2173 H   0  0  0  0  0  0  0  0  0  0  0  0
    6.8037    9.0406   24.6399 H   0  0  0  0  0  0  0  0  0  0  0  0
    7.0431   15.1714   23.7595 H   0  0  0  0  0  0  0  0  0  0  0  0
    6.8834   15.3581   25.5390 H   0  0  0  0  0  0  0  0  0  0  0  0
    8.4466   14.8660   24.8394 H   0  0  0  0  0  0  0  0  0  0  0  0
  1  2  1  0  0  0  0
  1  3  2  0  0  0  0
  2  4  2  0  0  0  0
  3  7  1  0  0  0  0
  4  8  1  0  0  0  0
  5  9  2  0  0  0  0
  5 18  1  0  0  0  0
  6 10  1  0  0  0  0
  6 18  2  0  0  0  0
  7  8  2  0  0  0  0
  7 13  1  0  0  0  0
  8 14  1  0  0  0  0
  9 11  1  0  0  0  0
  9 15  1  0  0  0  0
 10 11  2  0  0  0  0
 10 19  1  0  0  0  0
 11 20  1  0  0  0  0
 12 17  1  0  0  0  0
 12 19  2  0  0  0  0
 12 20  1  0  0  0  0
 13 21  1  0  0  0  0
 13 22  2  0  0  0  0
 14 21  1  0  0  0  0
 14 23  2  0  0  0  0
 15 24  2  0  0  0  0
 15 25  1  0  0  0  0
 16 20  1  0  0  0  0
 17 26  1  0  0  0  0
 17 27  1  0  0  0  0
 17 28  1  0  0  0  0
 21 25  1  0  0  0  0
  1 29  1  0  0  0  0
  2 30  1  0  0  0  0
  3 31  1  0  0  0  0
  4 32  1  0  0  0  0
  5 33  1  0  0  0  0
  6 34  1  0  0  0  0
 16 35  1  0  0  0  0
 16 36  1  0  0  0  0
 16 37  1  0  0  0  0
M  END
> <id>
EN300-6525456

> <smiles>
CN1C(=NC=2C=NC=C(C(=O)ON3C(=O)C=4C=CC=CC4C3=O)C12)C(F)(F)F

> <IUPAC Name>
1,3-dioxo-2,3-dihydro-1H-isoindol-2-yl 1-methyl-2-(trifluoromethyl)-1H-imidazo[4,5-c]pyridine-7-carboxylate

> <CAS>
2248287-86-5

> <URL>
https://www.enaminestore.com/catalog/EN300-6525456

> <ROCS_ShapeQuery>
x0446_0A_x1080_0A_x0929_0A_x0812_0A_x0719_0A_x1140_0A_x0528_0A_x0310_0A

> <ROCS_TanimotoCombo>
0.410 

> <ROCS_ShapeTanimoto>
0.244 

> <ROCS_ColorTanimoto>
0.166 

> <ROCS_RefTversky>
0.228 

> <ROCS_RefColorTversky>
0.188 

> <ROCS_RefTverskyCombo>
0.416 

> <ROCS_FitTversky>
1.415 

> <ROCS_FitColorTversky>
0.591 

> <ROCS_FitTverskyCombo>
2.006 

> <ROCS_ColorScore>
-6.732

> <ROCS_Overlap>
2694.878

> <ROCS_Rank>
455                 

$$$$
untitled-dbase-508359_3
  -OEChem-02082415563D

 35 36  0     1  0  0  0  0  0999 V2000
    9.2828   10.0418   22.7842 C   0  0  0  0  0  0  0  0  0  0  0  0
    8.2150   12.3556   23.5791 C   0  0  0  0  0  0  0  0  0  0  0  0
    7.4753   13.4138   24.1949 C   0  0  0  0  0  0  0  0  0  0  0  0
    6.5846   12.9541   25.1406 C   0  0  0  0  0  0  0  0  0  0  0  0
    9.2047   12.3345   22.5912 C   0  0  0  0  0  0  0  0  0  0  0  0
    7.8409   11.1232   24.0988 C   0  0  0  0  0  0  0  0  0  0  0  0
    8.7910   14.4120   21.2781 C   0  0  0  0  0  0  0  0  0  0  0  0
   11.4839   13.4474   23.5829 C   0  0  0  0  0  0  0  0  0  0  0  0
    7.6332   14.8544   23.8670 C   0  0  0  0  0  0  0  0  0  0  0  0
    5.6469   13.7256   25.9875 C   0  0  0  0  0  0  0  0  0  0  0  0
    7.6797   13.8112   20.4481 C   0  0  0  0  0  0  0  0  0  0  0  0
   11.9381   13.3005   21.1231 C   0  0  0  0  0  0  0  0  0  0  0  0
   11.0779   13.9213   22.2105 C   0  0  1  0  0  0  0  0  0  0  0  0
    9.7421   11.1618   22.1923 N   0  0  0  0  0  0  0  0  0  0  0  0
    8.3423    9.9256   23.7386 N   0  0  0  0  0  0  0  0  0  0  0  0
    9.6538   13.5195   22.0004 N   0  0  0  0  0  0  0  0  0  0  0  0
    8.9181   15.6390   21.2695 O   0  0  0  0  0  0  0  0  0  0  0  0
   10.9336   13.7313   24.6371 O   0  0  0  0  0  0  0  0  0  0  0  0
   12.5602   12.6222   23.5023 O   0  0  0  0  0  0  0  0  0  0  0  0
    6.6317   11.2510   25.2929 S   0  0  0  0  0  0  0  0  0  0  0  0
    9.7293    9.1135   22.4455 H   0  0  0  0  0  0  0  0  0  0  0  0
    6.9495   15.1448   23.0573 H   0  0  0  0  0  0  0  0  0  0  0  0
    7.4242   15.4923   24.7381 H   0  0  0  0  0  0  0  0  0  0  0  0
    8.6603   15.0860   23.5488 H   0  0  0  0  0  0  0  0  0  0  0  0
    4.6733   13.8445   25.4880 H   0  0  0  0  0  0  0  0  0  0  0  0
    5.4722   13.2337   26.9577 H   0  0  0  0  0  0  0  0  0  0  0  0
    6.0352   14.7310   26.2170 H   0  0  0  0  0  0  0  0  0  0  0  0
    6.7723   13.7070   21.0489 H   0  0  0  0  0  0  0  0  0  0  0  0
    7.9882   12.8461   20.0376 H   0  0  0  0  0  0  0  0  0  0  0  0
    7.4517   14.4776   19.6099 H   0  0  0  0  0  0  0  0  0  0  0  0
   11.8856   12.2072   21.1540 H   0  0  0  0  0  0  0  0  0  0  0  0
   11.6112   13.6278   20.1302 H   0  0  0  0  0  0  0  0  0  0  0  0
   12.9908   13.5836   21.2376 H   0  0  0  0  0  0  0  0  0  0  0  0
   11.1274   15.0147   22.1833 H   0  0  0  0  0  0  0  0  0  0  0  0
   12.8330   12.2901   24.3841 H   0  0  0  0  0  0  0  0  0  0  0  0
  1 14  2  0  0  0  0
  1 15  1  0  0  0  0
  2  3  1  0  0  0  0
  2  5  2  0  0  0  0
  2  6  1  0  0  0  0
  3  4  2  0  0  0  0
  3  9  1  0  0  0  0
  4 10  1  0  0  0  0
  4 20  1  0  0  0  0
  5 14  1  0  0  0  0
  5 16  1  0  0  0  0
  6 15  2  0  0  0  0
  6 20  1  0  0  0  0
  7 11  1  0  0  0  0
  7 16  1  0  0  0  0
  7 17  2  0  0  0  0
  8 13  1  0  0  0  0
  8 18  2  0  0  0  0
  8 19  1  0  0  0  0
 12 13  1  6  0  0  0
 13 16  1  0  0  0  0
  1 21  1  0  0  0  0
  9 22  1  0  0  0  0
  9 23  1  0  0  0  0
  9 24  1  0  0  0  0
 10 25  1  0  0  0  0
 10 26  1  0  0  0  0
 10 27  1  0  0  0  0
 11 28  1  0  0  0  0
 11 29  1  0  0  0  0
 11 30  1  0  0  0  0
 12 31  1  0  0  0  0
 12 32  1  0  0  0  0
 12 33  1  0  0  0  0
 13 34  1  0  0  0  0
 19 35  1  0  0  0  0
M  END
> <id>
EN300-28288962

> <smiles>
C[C@@H](N(C(=O)C)C=1N=CN=C2SC(C)=C(C)C12)C(=O)O |o1:1,r|

> <IUPAC Name>
rel-(2R)-2-(N-{5,6-dimethylthieno[2,3-d]pyrimidin-4-yl}acetamido)propanoic acid

> <CAS>
2732856-22-1

> <URL>
https://www.enaminestore.com/catalog/EN300-28288962

> <ROCS_ShapeQuery>
x0446_0A_x1080_0A_x0929_0A_x0812_0A_x0719_0A_x1140_0A_x0528_0A_x0310_0A

> <ROCS_TanimotoCombo>
0.410 

> <ROCS_ShapeTanimoto>
0.248 

> <ROCS_ColorTanimoto>
0.162 

> <ROCS_RefTversky>
0.223 

> <ROCS_RefColorTversky>
0.177 

> <ROCS_RefTverskyCombo>
0.400 

> <ROCS_FitTversky>
1.802 

> <ROCS_FitColorTversky>
0.665 

> <ROCS_FitTverskyCombo>
2.467 

> <ROCS_ColorScore>
-6.310

> <ROCS_Overlap>
2638.815

> <ROCS_Rank>
456                 

$$$$
untitled-dbase-343296_6
  -OEChem-02082415563D

 40 41  0     0  0  0  0  0  0999 V2000
    5.6833   12.4503   24.7243 C   0  0  0  0  0  0  0  0  0  0  0  0
    6.2173   11.1748   24.8654 C   0  0  0  0  0  0  0  0  0  0  0  0
    6.4812   13.4745   24.2326 C   0  0  0  0  0  0  0  0  0  0  0  0
    7.5565   10.9189   24.5254 C   0  0  0  0  0  0  0  0  0  0  0  0
    8.3985   11.9645   24.0860 C   0  0  0  0  0  0  0  0  0  0  0  0
    7.8207   13.2328   23.9100 C   0  0  0  0  0  0  0  0  0  0  0  0
   10.8176   12.6550   23.7101 C   0  0  0  0  0  0  0  0  0  0  0  0
    8.0783    9.5153   24.6639 C   0  0  0  0  0  0  0  0  0  0  0  0
    9.1027    9.2667   23.5745 C   0  0  0  0  0  0  0  0  0  0  0  0
   10.2168   10.2939   23.6704 C   0  0  0  0  0  0  0  0  0  0  0  0
   13.5055   13.5926   24.0422 C   0  0  0  0  0  0  0  0  0  0  0  0
   13.8972   12.7184   21.7202 C   0  0  0  0  0  0  0  0  0  0  0  0
   12.2352   14.5632   22.0982 C   0  0  0  0  0  0  0  0  0  0  0  0
   12.8669   13.3016   22.6848 C   0  0  0  0  0  0  0  0  0  0  0  0
    9.7842   11.6923   23.7925 N   0  0  0  0  0  0  0  0  0  0  0  0
   10.7745   13.7421   24.2885 O   0  0  0  0  0  0  0  0  0  0  0  0
    7.1803   14.0822   21.1103 O   0  0  0  0  0  0  0  0  0  0  0  0
    9.1441   15.6759   21.3091 O   0  0  0  0  0  0  0  0  0  0  0  0
    8.4495   14.2669   23.2796 O   0  0  0  0  0  0  0  0  0  0  0  0
   11.8400   12.3189   22.8654 O   0  0  0  0  0  0  0  0  0  0  0  0
    9.4551   13.2947   21.1394 F   0  0  0  0  0  0  0  0  0  0  0  0
    8.4767   14.4362   21.6534 S   0  0  0  0  0  0  0  0  0  0  0  0
    4.6458   12.6406   24.9825 H   0  0  0  0  0  0  0  0  0  0  0  0
    5.5837   10.3768   25.2413 H   0  0  0  0  0  0  0  0  0  0  0  0
    6.0459   14.4574   24.0722 H   0  0  0  0  0  0  0  0  0  0  0  0
    8.5491    9.3734   25.6322 H   0  0  0  0  0  0  0  0  0  0  0  0
    7.2481    8.8214   24.5637 H   0  0  0  0  0  0  0  0  0  0  0  0
    9.5230    8.2564   23.6665 H   0  0  0  0  0  0  0  0  0  0  0  0
    8.6201    9.3231   22.5919 H   0  0  0  0  0  0  0  0  0  0  0  0
   10.8576   10.0099   24.5296 H   0  0  0  0  0  0  0  0  0  0  0  0
   10.8767   10.2378   22.7791 H   0  0  0  0  0  0  0  0  0  0  0  0
   12.7692   14.0113   24.7375 H   0  0  0  0  0  0  0  0  0  0  0  0
   13.9315   12.6887   24.4896 H   0  0  0  0  0  0  0  0  0  0  0  0
   14.3014   14.3401   23.9476 H   0  0  0  0  0  0  0  0  0  0  0  0
   13.4433   12.5081   20.7450 H   0  0  0  0  0  0  0  0  0  0  0  0
   14.2841   11.7631   22.0930 H   0  0  0  0  0  0  0  0  0  0  0  0
   14.7411   13.3995   21.5702 H   0  0  0  0  0  0  0  0  0  0  0  0
   11.7771   14.3547   21.1246 H   0  0  0  0  0  0  0  0  0  0  0  0
   11.4669   14.9750   22.7606 H   0  0  0  0  0  0  0  0  0  0  0  0
   12.9945   15.3342   21.9239 H   0  0  0  0  0  0  0  0  0  0  0  0
  1  2  2  0  0  0  0
  1  3  1  0  0  0  0
  2  4  1  0  0  0  0
  3  6  2  0  0  0  0
  4  5  2  0  0  0  0
  4  8  1  0  0  0  0
  5  6  1  0  0  0  0
  5 15  1  0  0  0  0
  6 19  1  0  0  0  0
  7 15  1  0  0  0  0
  7 16  2  0  0  0  0
  7 20  1  0  0  0  0
  8  9  1  0  0  0  0
  9 10  1  0  0  0  0
 10 15  1  0  0  0  0
 11 14  1  0  0  0  0
 12 14  1  0  0  0  0
 13 14  1  0  0  0  0
 14 20  1  0  0  0  0
 17 22  2  0  0  0  0
 18 22  2  0  0  0  0
 19 22  1  0  0  0  0
 21 22  1  0  0  0  0
  1 23  1  0  0  0  0
  2 24  1  0  0  0  0
  3 25  1  0  0  0  0
  8 26  1  0  0  0  0
  8 27  1  0  0  0  0
  9 28  1  0  0  0  0
  9 29  1  0  0  0  0
 10 30  1  0  0  0  0
 10 31  1  0  0  0  0
 11 32  1  0  0  0  0
 11 33  1  0  0  0  0
 11 34  1  0  0  0  0
 12 35  1  0  0  0  0
 12 36  1  0  0  0  0
 12 37  1  0  0  0  0
 13 38  1  0  0  0  0
 13 39  1  0  0  0  0
 13 40  1  0  0  0  0
M  END
> <id>
EN300-7553307

> <smiles>
CC(C)(C)OC(=O)N1CCCC=2C=CC=C(OS(=O)(=O)F)C12

> <IUPAC Name>
tert-butyl 8-[(fluorosulfonyl)oxy]-1,2,3,4-tetrahydroquinoline-1-carboxylate

> <CAS>
2411267-80-4

> <URL>
https://www.enaminestore.com/catalog/EN300-7553307

> <ROCS_ShapeQuery>
x0446_0A_x1080_0A_x0929_0A_x0812_0A_x0719_0A_x1140_0A_x0528_0A_x0310_0A

> <ROCS_TanimotoCombo>
0.410 

> <ROCS_ShapeTanimoto>
0.260 

> <ROCS_ColorTanimoto>
0.151 

> <ROCS_RefTversky>
0.233 

> <ROCS_RefColorTversky>
0.159 

> <ROCS_RefTverskyCombo>
0.392 

> <ROCS_FitTversky>
1.781 

> <ROCS_FitColorTversky>
0.748 

> <ROCS_FitTverskyCombo>
2.529 

> <ROCS_ColorScore>
-5.660

> <ROCS_Overlap>
2752.173

> <ROCS_Rank>
457                 

$$$$
untitled-dbase-301831_0
  -OEChem-02082415563D

 45 48  0     0  0  0  0  0  0999 V2000
    9.6706   14.2263   22.1058 C   0  0  0  0  0  0  0  0  0  0  0  0
    7.8755   11.5016   24.9380 C   0  0  0  0  0  0  0  0  0  0  0  0
    8.0801   10.2538   22.7717 C   0  0  0  0  0  0  0  0  0  0  0  0
   10.0756   10.4982   24.2709 C   0  0  0  0  0  0  0  0  0  0  0  0
    7.7805   12.7434   22.7612 C   0  0  0  0  0  0  0  0  0  0  0  0
    9.7794   12.9882   24.2630 C   0  0  0  0  0  0  0  0  0  0  0  0
    9.9839   11.7397   22.0932 C   0  0  0  0  0  0  0  0  0  0  0  0
   11.4567   15.7869   21.4082 C   0  0  0  0  0  0  0  0  0  0  0  0
   12.1214   13.6777   22.4914 C   0  0  0  0  0  0  0  0  0  0  0  0
   12.4930   16.5245   22.2553 C   0  0  0  0  0  0  0  0  0  0  0  0
   13.1503   14.4553   23.3142 C   0  0  0  0  0  0  0  0  0  0  0  0
    7.3957   11.4373   23.4777 C   0  0  0  0  0  0  0  0  0  0  0  0
    9.4025   11.6830   24.9856 C   0  0  0  0  0  0  0  0  0  0  0  0
    9.6084   10.4288   22.8065 C   0  0  0  0  0  0  0  0  0  0  0  0
    9.3100   12.9348   22.7955 C   0  0  0  0  0  0  0  0  0  0  0  0
   14.6260   16.3605   23.3658 C   0  0  0  0  0  0  0  0  0  0  0  0
   11.0260   14.5488   22.0557 N   0  0  0  0  0  0  0  0  0  0  0  0
   13.6214   15.6412   22.5838 N   0  0  0  0  0  0  0  0  0  0  0  0
    8.7742   14.9277   21.6302 O   0  0  0  0  0  0  0  0  0  0  0  0
    7.3834   12.3330   25.4575 H   0  0  0  0  0  0  0  0  0  0  0  0
    7.5916   10.5829   25.4656 H   0  0  0  0  0  0  0  0  0  0  0  0
    7.7998    9.3132   23.2616 H   0  0  0  0  0  0  0  0  0  0  0  0
    7.7346   10.1870   21.7328 H   0  0  0  0  0  0  0  0  0  0  0  0
   11.1664   10.6071   24.3112 H   0  0  0  0  0  0  0  0  0  0  0  0
    9.8304    9.5618   24.7868 H   0  0  0  0  0  0  0  0  0  0  0  0
    7.4219   12.7212   21.7237 H   0  0  0  0  0  0  0  0  0  0  0  0
    7.2774   13.5934   23.2412 H   0  0  0  0  0  0  0  0  0  0  0  0
    9.3258   13.8443   24.7796 H   0  0  0  0  0  0  0  0  0  0  0  0
   10.8654   13.1422   24.3107 H   0  0  0  0  0  0  0  0  0  0  0  0
   11.0748   11.8634   22.0896 H   0  0  0  0  0  0  0  0  0  0  0  0
    9.6769   11.6924   21.0400 H   0  0  0  0  0  0  0  0  0  0  0  0
   10.5605   16.4073   21.2736 H   0  0  0  0  0  0  0  0  0  0  0  0
   11.8714   15.6032   20.4136 H   0  0  0  0  0  0  0  0  0  0  0  0
   12.6108   13.2127   21.6311 H   0  0  0  0  0  0  0  0  0  0  0  0
   11.6760   12.8751   23.0901 H   0  0  0  0  0  0  0  0  0  0  0  0
   12.8364   17.4192   21.7209 H   0  0  0  0  0  0  0  0  0  0  0  0
   12.0060   16.8597   23.1780 H   0  0  0  0  0  0  0  0  0  0  0  0
   12.6735   14.7645   24.2532 H   0  0  0  0  0  0  0  0  0  0  0  0
   13.9882   13.7945   23.5771 H   0  0  0  0  0  0  0  0  0  0  0  0
    6.3084   11.3063   23.4505 H   0  0  0  0  0  0  0  0  0  0  0  0
    9.7382   11.7262   26.0275 H   0  0  0  0  0  0  0  0  0  0  0  0
   10.0897    9.5828   22.3037 H   0  0  0  0  0  0  0  0  0  0  0  0
   15.4611   15.6844   23.6016 H   0  0  0  0  0  0  0  0  0  0  0  0
   15.0000   17.2159   22.7840 H   0  0  0  0  0  0  0  0  0  0  0  0
   14.1727   16.7228   24.3003 H   0  0  0  0  0  0  0  0  0  0  0  0
  1 15  1  0  0  0  0
  1 17  1  0  0  0  0
  1 19  2  0  0  0  0
  2 12  1  0  0  0  0
  2 13  1  0  0  0  0
  3 12  1  0  0  0  0
  3 14  1  0  0  0  0
  4 13  1  0  0  0  0
  4 14  1  0  0  0  0
  5 12  1  0  0  0  0
  5 15  1  0  0  0  0
  6 13  1  0  0  0  0
  6 15  1  0  0  0  0
  7 14  1  0  0  0  0
  7 15  1  0  0  0  0
  8 10  1  0  0  0  0
  8 17  1  0  0  0  0
  9 11  1  0  0  0  0
  9 17  1  0  0  0  0
 10 18  1  0  0  0  0
 11 18  1  0  0  0  0
 16 18  1  0  0  0  0
  2 20  1  0  0  0  0
  2 21  1  0  0  0  0
  3 22  1  0  0  0  0
  3 23  1  0  0  0  0
  4 24  1  0  0  0  0
  4 25  1  0  0  0  0
  5 26  1  0  0  0  0
  5 27  1  0  0  0  0
  6 28  1  0  0  0  0
  6 29  1  0  0  0  0
  7 30  1  0  0  0  0
  7 31  1  0  0  0  0
  8 32  1  0  0  0  0
  8 33  1  0  0  0  0
  9 34  1  0  0  0  0
  9 35  1  0  0  0  0
 10 36  1  0  0  0  0
 10 37  1  0  0  0  0
 11 38  1  0  0  0  0
 11 39  1  0  0  0  0
 12 40  1  0  0  0  0
 13 41  1  0  0  0  0
 14 42  1  0  0  0  0
 16 43  1  0  0  0  0
 16 44  1  0  0  0  0
 16 45  1  0  0  0  0
M  END
> <id>
EN300-16796664

> <smiles>
CN1CCN(CC1)C(=O)C2(CC3CC4CC(C3)C2)C4

> <IUPAC Name>
1-(adamantane-1-carbonyl)-4-methylpiperazine

> <CAS>
313496-09-2

> <URL>
https://www.enaminestore.com/catalog/EN300-16796664

> <ROCS_ShapeQuery>
x0446_0A_x1080_0A_x0929_0A_x0812_0A_x0719_0A_x1140_0A_x0528_0A_x0310_0A

> <ROCS_TanimotoCombo>
0.410 

> <ROCS_ShapeTanimoto>
0.234 

> <ROCS_ColorTanimoto>
0.176 

> <ROCS_RefTversky>
0.213 

> <ROCS_RefColorTversky>
0.195 

> <ROCS_RefTverskyCombo>
0.408 

> <ROCS_FitTversky>
1.747 

> <ROCS_FitColorTversky>
0.644 

> <ROCS_FitTverskyCombo>
2.391 

> <ROCS_ColorScore>
-6.997

> <ROCS_Overlap>
2510.301

> <ROCS_Rank>
458                 

$$$$
untitled-dbase-512865_5
  -OEChem-02082415563D

 31 32  0     1  0  0  0  0  0999 V2000
    7.0285   13.5301   23.1361 C   0  0  0  0  0  0  0  0  0  0  0  0
   10.4426   13.0289   22.9074 C   0  0  0  0  0  0  0  0  0  0  0  0
    9.6268   10.2757   25.0532 C   0  0  0  0  0  0  0  0  0  0  0  0
    9.4037    9.6513   23.6698 C   0  0  0  0  0  0  0  0  0  0  0  0
    7.9847   12.2054   25.0370 C   0  0  0  0  0  0  0  0  0  0  0  0
    7.6225   11.1461   22.6635 C   0  0  0  0  0  0  0  0  0  0  0  0
    9.4558   11.7832   24.8367 C   0  0  2  0  0  0  0  0  0  0  0  0
    9.1337   10.8395   22.7371 C   0  0  1  0  0  0  0  0  0  0  0  0
    7.1340   12.1502   23.7405 C   0  0  0  0  0  0  0  0  0  0  0  0
   11.3010   12.7548   21.7001 C   0  0  0  0  0  0  0  0  0  0  0  0
    5.4226    9.6776   25.0997 N   0  5  0  0  0  0  0  0  0  0  0  0
    5.7483   11.8123   24.0934 N   0  0  0  0  0  0  0  0  0  0  0  0
    5.5849   10.6984   24.6174 N   0  3  0  0  0  0  0  0  0  0  0  0
    9.7878   11.9353   23.4335 N   0  0  0  0  0  0  0  0  0  0  0  0
    7.4171   13.8387   22.0193 O   0  0  0  0  0  0  0  0  0  0  0  0
   10.3615   14.1687   23.3680 O   0  0  0  0  0  0  0  0  0  0  0  0
    6.4429   14.3899   24.0050 O   0  0  0  0  0  0  0  0  0  0  0  0
   11.2513   11.4515   21.3701 F   0  0  0  0  0  0  0  0  0  0  0  0
   10.8784   13.4729   20.6438 F   0  0  0  0  0  0  0  0  0  0  0  0
   12.5840   13.0790   21.9428 F   0  0  0  0  0  0  0  0  0  0  0  0
    8.9456    9.8707   25.8085 H   0  0  0  0  0  0  0  0  0  0  0  0
   10.6497   10.0588   25.3858 H   0  0  0  0  0  0  0  0  0  0  0  0
   10.3176    9.1303   23.3576 H   0  0  0  0  0  0  0  0  0  0  0  0
    8.5928    8.9156   23.6712 H   0  0  0  0  0  0  0  0  0  0  0  0
    7.5292   11.5813   25.8185 H   0  0  0  0  0  0  0  0  0  0  0  0
    7.9859   13.2299   25.4365 H   0  0  0  0  0  0  0  0  0  0  0  0
    7.4091   11.5529   21.6646 H   0  0  0  0  0  0  0  0  0  0  0  0
    7.0577   10.2064   22.7293 H   0  0  0  0  0  0  0  0  0  0  0  0
   10.1140   12.3686   25.4856 H   0  0  0  0  0  0  0  0  0  0  0  0
    9.5365   10.6644   21.7365 H   0  0  0  0  0  0  0  0  0  0  0  0
    6.3667   15.2936   23.6310 H   0  0  0  0  0  0  0  0  0  0  0  0
  1  9  1  0  0  0  0
  1 15  2  0  0  0  0
  1 17  1  0  0  0  0
  2 10  1  0  0  0  0
  2 14  1  0  0  0  0
  2 16  2  0  0  0  0
  3  4  1  0  0  0  0
  3  7  1  0  0  0  0
  4  8  1  0  0  0  0
  5  7  1  0  0  0  0
  5  9  1  0  0  0  0
  6  8  1  0  0  0  0
  6  9  1  0  0  0  0
  7 14  1  0  0  0  0
  8 14  1  0  0  0  0
  9 12  1  0  0  0  0
 10 18  1  0  0  0  0
 10 19  1  0  0  0  0
 10 20  1  0  0  0  0
 11 13  2  0  0  0  0
 12 13  2  0  0  0  0
  3 21  1  0  0  0  0
  3 22  1  0  0  0  0
  4 23  1  0  0  0  0
  4 24  1  0  0  0  0
  5 25  1  0  0  0  0
  5 26  1  0  0  0  0
  6 27  1  0  0  0  0
  6 28  1  0  0  0  0
  7 29  1  0  0  0  0
  8 30  1  0  0  0  0
 17 31  1  0  0  0  0
M  CHG  2  11  -1  13   1
M  END
> <id>
EN300-28288636

> <smiles>
OC(=O)C1(CC2CCC(C1)N2C(=O)C(F)(F)F)N=[N+]=[N-]

> <IUPAC Name>
3-azido-8-(2,2,2-trifluoroacetyl)-8-azabicyclo[3.2.1]octane-3-carboxylic acid

> <CAS>
2680624-01-3

> <URL>
https://www.enaminestore.com/catalog/EN300-28288636

> <ROCS_ShapeQuery>
x0446_0A_x1080_0A_x0929_0A_x0812_0A_x0719_0A_x1140_0A_x0528_0A_x0310_0A

> <ROCS_TanimotoCombo>
0.410 

> <ROCS_ShapeTanimoto>
0.236 

> <ROCS_ColorTanimoto>
0.175 

> <ROCS_RefTversky>
0.215 

> <ROCS_RefColorTversky>
0.195 

> <ROCS_RefTverskyCombo>
0.410 

> <ROCS_FitTversky>
1.697 

> <ROCS_FitColorTversky>
0.625 

> <ROCS_FitTverskyCombo>
2.321 

> <ROCS_ColorScore>
-6.992

> <ROCS_Overlap>
2536.379

> <ROCS_Rank>
459                 

$$$$
untitled-dbase-526603_3
  -OEChem-02082415563D

 30 32  0     0  0  0  0  0  0999 V2000
    8.2897   14.9829   21.6466 C   0  0  0  0  0  0  0  0  0  0  0  0
    7.2679   13.8568   23.2249 C   0  0  0  0  0  0  0  0  0  0  0  0
   10.0793   11.0673   24.9372 C   0  0  0  0  0  0  0  0  0  0  0  0
    8.0371    9.7458   24.3252 C   0  0  0  0  0  0  0  0  0  0  0  0
    9.7129   10.3525   22.5608 C   0  0  0  0  0  0  0  0  0  0  0  0
    7.8236   12.1632   24.9566 C   0  0  0  0  0  0  0  0  0  0  0  0
    9.5023   12.7708   23.1892 C   0  0  0  0  0  0  0  0  0  0  0  0
    7.4566   11.4484   22.5768 C   0  0  0  0  0  0  0  0  0  0  0  0
    8.5854   10.8564   25.2381 C   0  0  0  0  0  0  0  0  0  0  0  0
   10.2709   11.4664   23.4638 C   0  0  0  0  0  0  0  0  0  0  0  0
    8.2166   10.1381   22.8482 C   0  0  0  0  0  0  0  0  0  0  0  0
    8.0016   12.5718   23.4806 C   0  0  0  0  0  0  0  0  0  0  0  0
    7.3897   14.2786   21.9161 N   0  0  0  0  0  0  0  0  0  0  0  0
    6.6487   14.4170   24.1288 O   0  0  0  0  0  0  0  0  0  0  0  0
    9.4982   15.9394   21.2429 S   0  0  0  0  0  0  0  0  0  0  0  0
   10.4867   11.8472   25.5923 H   0  0  0  0  0  0  0  0  0  0  0  0
   10.6372   10.1475   25.1509 H   0  0  0  0  0  0  0  0  0  0  0  0
    8.5595    8.8028   24.5282 H   0  0  0  0  0  0  0  0  0  0  0  0
    6.9753    9.5744   24.5405 H   0  0  0  0  0  0  0  0  0  0  0  0
    9.8575   10.6175   21.5062 H   0  0  0  0  0  0  0  0  0  0  0  0
   10.2645    9.4200   22.7328 H   0  0  0  0  0  0  0  0  0  0  0  0
    6.7588   12.0340   25.1910 H   0  0  0  0  0  0  0  0  0  0  0  0
    8.1893   12.9577   25.6206 H   0  0  0  0  0  0  0  0  0  0  0  0
    9.9091   13.5804   23.8094 H   0  0  0  0  0  0  0  0  0  0  0  0
    9.6506   13.0802   22.1462 H   0  0  0  0  0  0  0  0  0  0  0  0
    7.5567   11.7257   21.5192 H   0  0  0  0  0  0  0  0  0  0  0  0
    6.3833   11.3010   22.7553 H   0  0  0  0  0  0  0  0  0  0  0  0
    8.4557   10.5708   26.2877 H   0  0  0  0  0  0  0  0  0  0  0  0
   11.3364   11.6133   23.2553 H   0  0  0  0  0  0  0  0  0  0  0  0
    7.8257    9.3432   22.2036 H   0  0  0  0  0  0  0  0  0  0  0  0
  1 13  2  0  0  0  0
  1 15  2  0  0  0  0
  2 12  1  0  0  0  0
  2 13  1  0  0  0  0
  2 14  2  0  0  0  0
  3  9  1  0  0  0  0
  3 10  1  0  0  0  0
  4  9  1  0  0  0  0
  4 11  1  0  0  0  0
  5 10  1  0  0  0  0
  5 11  1  0  0  0  0
  6  9  1  0  0  0  0
  6 12  1  0  0  0  0
  7 10  1  0  0  0  0
  7 12  1  0  0  0  0
  8 11  1  0  0  0  0
  8 12  1  0  0  0  0
  3 16  1  0  0  0  0
  3 17  1  0  0  0  0
  4 18  1  0  0  0  0
  4 19  1  0  0  0  0
  5 20  1  0  0  0  0
  5 21  1  0  0  0  0
  6 22  1  0  0  0  0
  6 23  1  0  0  0  0
  7 24  1  0  0  0  0
  7 25  1  0  0  0  0
  8 26  1  0  0  0  0
  8 27  1  0  0  0  0
  9 28  1  0  0  0  0
 10 29  1  0  0  0  0
 11 30  1  0  0  0  0
M  END
> <id>
EN300-04731

> <smiles>
O=C(N=C=S)C1(CC2CC3CC(C2)C1)C3

> <MDLNUMBER>
MFCD09035446

> <IUPAC Name>
adamantane-1-carbonyl isothiocyanate

> <CAS>
54979-99-6

> <Purity>
95

> <URL>
https://www.enaminestore.com/catalog/EN300-04731

> <ROCS_ShapeQuery>
x0446_0A_x1080_0A_x0929_0A_x0812_0A_x0719_0A_x1140_0A_x0528_0A_x0310_0A

> <ROCS_TanimotoCombo>
0.410 

> <ROCS_ShapeTanimoto>
0.210 

> <ROCS_ColorTanimoto>
0.200 

> <ROCS_RefTversky>
0.192 

> <ROCS_RefColorTversky>
0.222 

> <ROCS_RefTverskyCombo>
0.414 

> <ROCS_FitTversky>
1.801 

> <ROCS_FitColorTversky>
0.672 

> <ROCS_FitTverskyCombo>
2.474 

> <ROCS_ColorScore>
-7.945

> <ROCS_Overlap>
2268.077

> <ROCS_Rank>
460                 

$$$$
untitled-dbase-342148_4
  -OEChem-02082415563D

 38 42  0     0  0  0  0  0  0999 V2000
   13.4971    9.4939   23.7101 C   0  0  0  0  0  0  0  0  0  0  0  0
   11.2301   17.8403   19.5897 C   0  0  0  0  0  0  0  0  0  0  0  0
   12.5014    8.5192   23.6306 C   0  0  0  0  0  0  0  0  0  0  0  0
   10.8099   16.6708   18.9444 C   0  0  0  0  0  0  0  0  0  0  0  0
   13.1621   10.8445   23.8558 C   0  0  0  0  0  0  0  0  0  0  0  0
   11.7423   17.8073   20.8948 C   0  0  0  0  0  0  0  0  0  0  0  0
   11.1588    8.8850   23.6896 C   0  0  0  0  0  0  0  0  0  0  0  0
   10.8833   15.4233   19.5736 C   0  0  0  0  0  0  0  0  0  0  0  0
   11.8201   11.2277   23.9290 C   0  0  0  0  0  0  0  0  0  0  0  0
    7.7786   12.0208   23.9938 C   0  0  0  0  0  0  0  0  0  0  0  0
   11.8225   16.5648   21.5398 C   0  0  0  0  0  0  0  0  0  0  0  0
   10.8333   10.2347   23.8338 C   0  0  0  0  0  0  0  0  0  0  0  0
   11.3955   15.4306   20.8651 C   0  0  0  0  0  0  0  0  0  0  0  0
    7.3930   10.6755   23.8632 C   0  0  0  0  0  0  0  0  0  0  0  0
    9.1567   11.9974   24.0020 C   0  0  0  0  0  0  0  0  0  0  0  0
   12.0980   14.9140   22.8233 C   0  0  0  0  0  0  0  0  0  0  0  0
   11.3398   12.6333   24.0851 C   0  0  0  0  0  0  0  0  0  0  0  0
    6.9620   13.1936   24.1002 C   0  0  0  0  0  0  0  0  0  0  0  0
    6.0261   10.1283   23.8019 C   0  0  0  0  0  0  0  0  0  0  0  0
   12.2691   16.2174   22.7917 N   0  0  0  0  0  0  0  0  0  0  0  0
    8.4355    9.8460   23.7918 N   0  0  0  0  0  0  0  0  0  0  0  0
   10.0862   12.9805   24.1076 N   0  0  0  0  0  0  0  0  0  0  0  0
    9.5012   10.6692   23.8772 N   0  0  0  0  0  0  0  0  0  0  0  0
    7.4155   14.3484   24.2135 O   0  0  0  0  0  0  0  0  0  0  0  0
   11.5731   14.3604   21.6944 O   0  0  0  0  0  0  0  0  0  0  0  0
   12.5210   13.9235   24.2411 S   0  0  0  0  0  0  0  0  0  0  0  0
   14.5425    9.2013   23.6594 H   0  0  0  0  0  0  0  0  0  0  0  0
   11.1575   18.7928   19.0706 H   0  0  0  0  0  0  0  0  0  0  0  0
   12.7760    7.4742   23.5182 H   0  0  0  0  0  0  0  0  0  0  0  0
   10.4190   16.7322   17.9316 H   0  0  0  0  0  0  0  0  0  0  0  0
   13.9727   11.5635   23.9131 H   0  0  0  0  0  0  0  0  0  0  0  0
   12.0664   18.7198   21.3841 H   0  0  0  0  0  0  0  0  0  0  0  0
   10.3986    8.1131   23.6178 H   0  0  0  0  0  0  0  0  0  0  0  0
   10.5633   14.5129   19.0828 H   0  0  0  0  0  0  0  0  0  0  0  0
    5.8472   13.0701   24.0812 H   0  0  0  0  0  0  0  0  0  0  0  0
    5.6622   10.0773   22.7617 H   0  0  0  0  0  0  0  0  0  0  0  0
    5.9658    9.1106   24.2262 H   0  0  0  0  0  0  0  0  0  0  0  0
    5.3073   10.7388   24.3768 H   0  0  0  0  0  0  0  0  0  0  0  0
  1  3  1  0  0  0  0
  1  5  2  0  0  0  0
  2  4  1  0  0  0  0
  2  6  2  0  0  0  0
  3  7  2  0  0  0  0
  4  8  2  0  0  0  0
  5  9  1  0  0  0  0
  6 11  1  0  0  0  0
  7 12  1  0  0  0  0
  8 13  1  0  0  0  0
  9 12  2  0  0  0  0
  9 17  1  0  0  0  0
 10 14  1  0  0  0  0
 10 15  2  0  0  0  0
 10 18  1  0  0  0  0
 11 13  2  0  0  0  0
 11 20  1  0  0  0  0
 12 23  1  0  0  0  0
 13 25  1  0  0  0  0
 14 19  1  0  0  0  0
 14 21  2  0  0  0  0
 15 22  1  0  0  0  0
 15 23  1  0  0  0  0
 16 20  2  0  0  0  0
 16 25  1  0  0  0  0
 16 26  1  0  0  0  0
 17 22  2  0  0  0  0
 17 26  1  0  0  0  0
 18 24  2  0  0  0  0
 21 23  1  0  0  0  0
  1 27  1  0  0  0  0
  2 28  1  0  0  0  0
  3 29  1  0  0  0  0
  4 30  1  0  0  0  0
  5 31  1  0  0  0  0
  6 32  1  0  0  0  0
  7 33  1  0  0  0  0
  8 34  1  0  0  0  0
 18 35  1  0  0  0  0
 19 36  1  0  0  0  0
 19 37  1  0  0  0  0
 19 38  1  0  0  0  0
M  END
> <id>
EN300-26617864

> <smiles>
CC1=NN2C(N=C(SC3=NC=4C=CC=CC4O3)C=5C=CC=CC52)=C1C=O

> <IUPAC Name>
5-(1,3-benzoxazol-2-ylsulfanyl)-2-methylpyrazolo[1,5-a]quinazoline-3-carbaldehyde

> <CAS>
380388-43-2

> <URL>
https://www.enaminestore.com/catalog/EN300-26617864

> <ROCS_ShapeQuery>
x0446_0A_x1080_0A_x0929_0A_x0812_0A_x0719_0A_x1140_0A_x0528_0A_x0310_0A

> <ROCS_TanimotoCombo>
0.410 

> <ROCS_ShapeTanimoto>
0.241 

> <ROCS_ColorTanimoto>
0.169 

> <ROCS_RefTversky>
0.224 

> <ROCS_RefColorTversky>
0.187 

> <ROCS_RefTverskyCombo>
0.411 

> <ROCS_FitTversky>
1.475 

> <ROCS_FitColorTversky>
0.640 

> <ROCS_FitTverskyCombo>
2.115 

> <ROCS_ColorScore>
-6.695

> <ROCS_Overlap>
2643.940

> <ROCS_Rank>
461                 

$$$$
untitled-dbase-555148_6
  -OEChem-02082415563D

 36 39  0     0  0  0  0  0  0999 V2000
   13.5599   18.3468   20.6766 C   0  0  0  0  0  0  0  0  0  0  0  0
   14.7119   17.5384   20.7765 C   0  0  0  0  0  0  0  0  0  0  0  0
   12.2832   17.8088   20.8640 C   0  0  0  0  0  0  0  0  0  0  0  0
   14.6124   16.1743   21.0660 C   0  0  0  0  0  0  0  0  0  0  0  0
    7.1317   13.2736   24.7262 C   0  0  0  0  0  0  0  0  0  0  0  0
    5.9650   12.8117   25.3211 C   0  0  0  0  0  0  0  0  0  0  0  0
    9.5533   11.0330   23.1669 C   0  0  0  0  0  0  0  0  0  0  0  0
    7.9686   12.2976   24.1669 C   0  0  0  0  0  0  0  0  0  0  0  0
   12.2070   16.4624   21.1519 C   0  0  0  0  0  0  0  0  0  0  0  0
   13.3446   15.6640   21.2504 C   0  0  0  0  0  0  0  0  0  0  0  0
    9.2164   12.3292   23.4839 C   0  0  0  0  0  0  0  0  0  0  0  0
    7.5800   10.9592   24.2444 C   0  0  0  0  0  0  0  0  0  0  0  0
    6.3957   10.5699   24.8562 C   0  0  0  0  0  0  0  0  0  0  0  0
   11.0350   15.6133   21.3887 C   0  0  0  0  0  0  0  0  0  0  0  0
   12.9133   14.2951   21.5511 C   0  0  0  0  0  0  0  0  0  0  0  0
   10.0473   13.5129   23.1466 C   0  0  0  0  0  0  0  0  0  0  0  0
    4.7672    9.0009   25.5925 C   0  0  0  0  0  0  0  0  0  0  0  0
    5.5899   11.5140   25.3954 N   0  0  0  0  0  0  0  0  0  0  0  0
    8.5588   10.2134   23.6303 N   0  0  0  0  0  0  0  0  0  0  0  0
   11.5605   14.3875   21.6533 N   0  0  0  0  0  0  0  0  0  0  0  0
    9.8812   15.9934   21.3570 O   0  0  0  0  0  0  0  0  0  0  0  0
   13.6573   13.3433   21.6832 O   0  0  0  0  0  0  0  0  0  0  0  0
   10.0690   14.5295   23.8236 O   0  0  0  0  0  0  0  0  0  0  0  0
    6.0034    9.2576   24.9388 O   0  0  0  0  0  0  0  0  0  0  0  0
   10.7736   13.3092   22.0022 O   0  0  0  0  0  0  0  0  0  0  0  0
   13.6694   19.4041   20.4489 H   0  0  0  0  0  0  0  0  0  0  0  0
   15.6910   17.9853   20.6242 H   0  0  0  0  0  0  0  0  0  0  0  0
   11.3991   18.4302   20.7845 H   0  0  0  0  0  0  0  0  0  0  0  0
   15.4975   15.5538   21.1397 H   0  0  0  0  0  0  0  0  0  0  0  0
    7.3724   14.3300   24.7008 H   0  0  0  0  0  0  0  0  0  0  0  0
    5.2699   13.5116   25.7750 H   0  0  0  0  0  0  0  0  0  0  0  0
   10.4090   10.6179   22.6522 H   0  0  0  0  0  0  0  0  0  0  0  0
    4.5700    7.9261   25.5919 H   0  0  0  0  0  0  0  0  0  0  0  0
    3.9633    9.5299   25.0744 H   0  0  0  0  0  0  0  0  0  0  0  0
    4.8297    9.3570   26.6236 H   0  0  0  0  0  0  0  0  0  0  0  0
    8.5462    9.2074   23.5340 H   0  0  0  0  0  0  0  0  0  0  0  0
  1  2  1  0  0  0  0
  1  3  2  0  0  0  0
  2  4  2  0  0  0  0
  3  9  1  0  0  0  0
  4 10  1  0  0  0  0
  5  6  1  0  0  0  0
  5  8  2  0  0  0  0
  6 18  2  0  0  0  0
  7 11  2  0  0  0  0
  7 19  1  0  0  0  0
  8 11  1  0  0  0  0
  8 12  1  0  0  0  0
  9 10  2  0  0  0  0
  9 14  1  0  0  0  0
 10 15  1  0  0  0  0
 11 16  1  0  0  0  0
 12 13  2  0  0  0  0
 12 19  1  0  0  0  0
 13 18  1  0  0  0  0
 13 24  1  0  0  0  0
 14 20  1  0  0  0  0
 14 21  2  0  0  0  0
 15 20  1  0  0  0  0
 15 22  2  0  0  0  0
 16 23  2  0  0  0  0
 16 25  1  0  0  0  0
 17 24  1  0  0  0  0
 20 25  1  0  0  0  0
  1 26  1  0  0  0  0
  2 27  1  0  0  0  0
  3 28  1  0  0  0  0
  4 29  1  0  0  0  0
  5 30  1  0  0  0  0
  6 31  1  0  0  0  0
  7 32  1  0  0  0  0
 17 33  1  0  0  0  0
 17 34  1  0  0  0  0
 17 35  1  0  0  0  0
 19 36  1  0  0  0  0
M  END
> <id>
EN300-6518383

> <smiles>
COC=1N=CC=C2C(=CNC12)C(=O)ON3C(=O)C=4C=CC=CC4C3=O

> <IUPAC Name>
1,3-dioxo-2,3-dihydro-1H-isoindol-2-yl 7-methoxy-1H-pyrrolo[2,3-c]pyridine-3-carboxylate

> <CAS>
2248297-95-0

> <URL>
https://www.enaminestore.com/catalog/EN300-6518383

> <ROCS_ShapeQuery>
x0446_0A_x1080_0A_x0929_0A_x0812_0A_x0719_0A_x1140_0A_x0528_0A_x0310_0A

> <ROCS_TanimotoCombo>
0.410 

> <ROCS_ShapeTanimoto>
0.233 

> <ROCS_ColorTanimoto>
0.177 

> <ROCS_RefTversky>
0.217 

> <ROCS_RefColorTversky>
0.198 

> <ROCS_RefTverskyCombo>
0.415 

> <ROCS_FitTversky>
1.460 

> <ROCS_FitColorTversky>
0.623 

> <ROCS_FitTverskyCombo>
2.083 

> <ROCS_ColorScore>
-7.107

> <ROCS_Overlap>
2567.646

> <ROCS_Rank>
462                 

$$$$
untitled-dbase-473206_7
  -OEChem-02082415563D

 28 29  0     1  0  0  0  0  0999 V2000
    8.2019   12.5472   24.6220 C   0  0  0  0  0  0  0  0  0  0  0  0
    8.8552   11.4334   25.4557 C   0  0  0  0  0  0  0  0  0  0  0  0
    9.9376   11.5644   23.3190 C   0  0  0  0  0  0  0  0  0  0  0  0
    7.7644   10.8288   22.8720 C   0  0  0  0  0  0  0  0  0  0  0  0
    8.5272   12.1230   23.1743 C   0  0  1  0  0  0  0  0  0  0  0  0
    9.4926   10.5538   24.3685 C   0  0  1  0  0  0  0  0  0  0  0  0
   10.5469    9.5936   24.8624 C   0  0  0  0  0  0  0  0  0  0  0  0
    8.3415   13.2170   22.1495 C   0  0  0  0  0  0  0  0  0  0  0  0
   10.8173   13.4297   21.2134 N   0  0  0  0  0  0  0  0  0  0  0  0
    9.3218   15.5154   21.3856 O   0  0  0  0  0  0  0  0  0  0  0  0
   10.2115   14.4485   23.4964 O   0  0  0  0  0  0  0  0  0  0  0  0
    8.4094    9.8462   23.7166 O   0  0  0  0  0  0  0  0  0  0  0  0
    9.7068   14.3340   22.1387 S   0  0  0  0  0  0  0  0  0  0  0  0
    7.1247   12.6162   24.8069 H   0  0  0  0  0  0  0  0  0  0  0  0
    8.6525   13.5157   24.8687 H   0  0  0  0  0  0  0  0  0  0  0  0
    9.6018   11.8559   26.1367 H   0  0  0  0  0  0  0  0  0  0  0  0
    8.1037   10.8904   26.0384 H   0  0  0  0  0  0  0  0  0  0  0  0
   10.3003   11.0972   22.3965 H   0  0  0  0  0  0  0  0  0  0  0  0
   10.6720   12.2893   23.6851 H   0  0  0  0  0  0  0  0  0  0  0  0
    6.7000   10.8793   23.1205 H   0  0  0  0  0  0  0  0  0  0  0  0
    7.8769   10.5048   21.8319 H   0  0  0  0  0  0  0  0  0  0  0  0
   10.9526    9.0041   24.0335 H   0  0  0  0  0  0  0  0  0  0  0  0
   10.1259    8.9022   25.5999 H   0  0  0  0  0  0  0  0  0  0  0  0
   11.3736   10.1352   25.3339 H   0  0  0  0  0  0  0  0  0  0  0  0
    7.4453   13.8074   22.3626 H   0  0  0  0  0  0  0  0  0  0  0  0
    8.2587   12.8012   21.1409 H   0  0  0  0  0  0  0  0  0  0  0  0
   11.0236   13.7558   20.2612 H   0  0  0  0  0  0  0  0  0  0  0  0
   11.6294   13.0290   21.6988 H   0  0  0  0  0  0  0  0  0  0  0  0
  1  2  1  0  0  0  0
  1  5  1  0  0  0  0
  2  6  1  0  0  0  0
  3  5  1  0  0  0  0
  3  6  1  0  0  0  0
  4  5  1  0  0  0  0
  4 12  1  0  0  0  0
  5  8  1  0  0  0  0
  6  7  1  0  0  0  0
  6 12  1  0  0  0  0
  8 13  1  0  0  0  0
  9 13  1  0  0  0  0
 10 13  2  0  0  0  0
 11 13  2  0  0  0  0
  1 14  1  0  0  0  0
  1 15  1  0  0  0  0
  2 16  1  0  0  0  0
  2 17  1  0  0  0  0
  3 18  1  0  0  0  0
  3 19  1  0  0  0  0
  4 20  1  0  0  0  0
  4 21  1  0  0  0  0
  7 22  1  0  0  0  0
  7 23  1  0  0  0  0
  7 24  1  0  0  0  0
  8 25  1  0  0  0  0
  8 26  1  0  0  0  0
  9 27  1  0  0  0  0
  9 28  1  0  0  0  0
M  END
> <id>
EN300-27733567

> <smiles>
CC1(CCC2(CS(=O)(=O)N)CO1)C2

> <IUPAC Name>
{1-methyl-2-oxabicyclo[2.2.1]heptan-4-yl}methanesulfonamide

> <CAS>
2580206-35-3

> <URL>
https://www.enaminestore.com/catalog/EN300-27733567

> <ROCS_ShapeQuery>
x0446_0A_x1080_0A_x0929_0A_x0812_0A_x0719_0A_x1140_0A_x0528_0A_x0310_0A

> <ROCS_TanimotoCombo>
0.410 

> <ROCS_ShapeTanimoto>
0.179 

> <ROCS_ColorTanimoto>
0.231 

> <ROCS_RefTversky>
0.167 

> <ROCS_RefColorTversky>
0.249 

> <ROCS_RefTverskyCombo>
0.416 

> <ROCS_FitTversky>
1.712 

> <ROCS_FitColorTversky>
0.762 

> <ROCS_FitTverskyCombo>
2.474 

> <ROCS_ColorScore>
-8.932

> <ROCS_Overlap>
1964.979

> <ROCS_Rank>
463                 

$$$$
untitled-dbase-572117_4
  -OEChem-02082415563D

 47 49  0     0  0  0  0  0  0999 V2000
   12.4058   15.5298   21.8571 C   0  0  0  0  0  0  0  0  0  0  0  0
   11.1232   15.3987   21.3248 C   0  0  0  0  0  0  0  0  0  0  0  0
   12.8271   14.6791   22.8792 C   0  0  0  0  0  0  0  0  0  0  0  0
   10.6831   13.5663   22.8367 C   0  0  0  0  0  0  0  0  0  0  0  0
   10.2618   14.4170   21.8146 C   0  0  0  0  0  0  0  0  0  0  0  0
   11.9657   13.6974   23.3690 C   0  0  0  0  0  0  0  0  0  0  0  0
    6.3369   12.4607   25.1479 C   0  0  0  0  0  0  0  0  0  0  0  0
    9.1721   11.3610   22.3943 C   0  0  0  0  0  0  0  0  0  0  0  0
   10.3356   11.2417   24.1665 C   0  0  0  0  0  0  0  0  0  0  0  0
    8.5702   13.0939   24.2064 C   0  0  0  0  0  0  0  0  0  0  0  0
    7.8773   10.6525   24.5022 C   0  0  0  0  0  0  0  0  0  0  0  0
    9.6998   12.4474   23.3960 C   0  0  0  0  0  0  0  0  0  0  0  0
    9.1177   10.4305   23.6424 C   0  0  0  0  0  0  0  0  0  0  0  0
    4.8595   13.6766   27.2741 C   0  0  0  0  0  0  0  0  0  0  0  0
    5.0855   15.8085   25.9652 C   0  0  0  0  0  0  0  0  0  0  0  0
    3.8417   13.8617   24.9797 C   0  0  0  0  0  0  0  0  0  0  0  0
    9.3907    8.9601   23.3779 C   0  0  0  0  0  0  0  0  0  0  0  0
    5.0010   14.2861   25.8801 C   0  0  0  0  0  0  0  0  0  0  0  0
    7.5637   12.0848   24.5798 N   0  0  0  0  0  0  0  0  0  0  0  0
    5.4580   11.6673   25.4801 O   0  0  0  0  0  0  0  0  0  0  0  0
    8.4160    8.4695   22.4722 O   0  0  0  0  0  0  0  0  0  0  0  0
    6.2237   13.8179   25.3001 O   0  0  0  0  0  0  0  0  0  0  0  0
    9.0309   14.2979   21.2978 F   0  0  0  0  0  0  0  0  0  0  0  0
   12.3777   12.8850   24.3521 F   0  0  0  0  0  0  0  0  0  0  0  0
   13.0765   16.2943   21.4754 H   0  0  0  0  0  0  0  0  0  0  0  0
   10.7951   16.0601   20.5288 H   0  0  0  0  0  0  0  0  0  0  0  0
   13.8253   14.7814   23.2941 H   0  0  0  0  0  0  0  0  0  0  0  0
    8.2192   11.5720   21.9025 H   0  0  0  0  0  0  0  0  0  0  0  0
    9.8969   11.0613   21.6288 H   0  0  0  0  0  0  0  0  0  0  0  0
   11.3103   10.9145   23.7767 H   0  0  0  0  0  0  0  0  0  0  0  0
   10.4251   11.3443   25.2544 H   0  0  0  0  0  0  0  0  0  0  0  0
    8.9565   13.5460   25.1279 H   0  0  0  0  0  0  0  0  0  0  0  0
    8.0612   13.8766   23.6311 H   0  0  0  0  0  0  0  0  0  0  0  0
    7.0032   10.1387   24.0849 H   0  0  0  0  0  0  0  0  0  0  0  0
    8.0276   10.2806   25.5227 H   0  0  0  0  0  0  0  0  0  0  0  0
    4.7985   12.5839   27.2173 H   0  0  0  0  0  0  0  0  0  0  0  0
    5.7026   13.9448   27.9191 H   0  0  0  0  0  0  0  0  0  0  0  0
    3.9344   14.0132   27.7559 H   0  0  0  0  0  0  0  0  0  0  0  0
    5.1871   16.2500   24.9672 H   0  0  0  0  0  0  0  0  0  0  0  0
    5.9707   16.1192   26.5318 H   0  0  0  0  0  0  0  0  0  0  0  0
    4.1991   16.2361   26.4449 H   0  0  0  0  0  0  0  0  0  0  0  0
    3.9430   14.2987   23.9797 H   0  0  0  0  0  0  0  0  0  0  0  0
    3.7882   12.7730   24.8772 H   0  0  0  0  0  0  0  0  0  0  0  0
    2.8864   14.2213   25.3789 H   0  0  0  0  0  0  0  0  0  0  0  0
    9.3308    8.3903   24.3080 H   0  0  0  0  0  0  0  0  0  0  0  0
   10.3821    8.8318   22.9375 H   0  0  0  0  0  0  0  0  0  0  0  0
    8.6155    7.5303   22.3225 H   0  0  0  0  0  0  0  0  0  0  0  0
  1  2  1  0  0  0  0
  1  3  2  0  0  0  0
  2  5  2  0  0  0  0
  3  6  1  0  0  0  0
  4  5  1  0  0  0  0
  4  6  2  0  0  0  0
  4 12  1  0  0  0  0
  5 23  1  0  0  0  0
  6 24  1  0  0  0  0
  7 19  1  0  0  0  0
  7 20  2  0  0  0  0
  7 22  1  0  0  0  0
  8 12  1  0  0  0  0
  8 13  1  0  0  0  0
  9 12  1  0  0  0  0
  9 13  1  0  0  0  0
 10 12  1  0  0  0  0
 10 19  1  0  0  0  0
 11 13  1  0  0  0  0
 11 19  1  0  0  0  0
 13 17  1  0  0  0  0
 14 18  1  0  0  0  0
 15 18  1  0  0  0  0
 16 18  1  0  0  0  0
 17 21  1  0  0  0  0
 18 22  1  0  0  0  0
  1 25  1  0  0  0  0
  2 26  1  0  0  0  0
  3 27  1  0  0  0  0
  8 28  1  0  0  0  0
  8 29  1  0  0  0  0
  9 30  1  0  0  0  0
  9 31  1  0  0  0  0
 10 32  1  0  0  0  0
 10 33  1  0  0  0  0
 11 34  1  0  0  0  0
 11 35  1  0  0  0  0
 14 36  1  0  0  0  0
 14 37  1  0  0  0  0
 14 38  1  0  0  0  0
 15 39  1  0  0  0  0
 15 40  1  0  0  0  0
 15 41  1  0  0  0  0
 16 42  1  0  0  0  0
 16 43  1  0  0  0  0
 16 44  1  0  0  0  0
 17 45  1  0  0  0  0
 17 46  1  0  0  0  0
 21 47  1  0  0  0  0
M  END
> <id>
EN300-43356305

> <smiles>
CC(C)(C)OC(=O)N1CC2(CO)CC(C2)(C1)C=3C(F)=CC=CC3F

> <IUPAC Name>
tert-butyl 1-(2,6-difluorophenyl)-5-(hydroxymethyl)-3-azabicyclo[3.1.1]heptane-3-carboxylate

> <URL>
https://www.enaminestore.com/catalog/EN300-43356305

> <ROCS_ShapeQuery>
x0446_0A_x1080_0A_x0929_0A_x0812_0A_x0719_0A_x1140_0A_x0528_0A_x0310_0A

> <ROCS_TanimotoCombo>
0.410 

> <ROCS_ShapeTanimoto>
0.267 

> <ROCS_ColorTanimoto>
0.143 

> <ROCS_RefTversky>
0.240 

> <ROCS_RefColorTversky>
0.168 

> <ROCS_RefTverskyCombo>
0.409 

> <ROCS_FitTversky>
1.724 

> <ROCS_FitColorTversky>
0.486 

> <ROCS_FitTverskyCombo>
2.210 

> <ROCS_ColorScore>
-6.038

> <ROCS_Overlap>
2840.151

> <ROCS_Rank>
464                 

$$$$
untitled-dbase-155198_5
  -OEChem-02082415563D

 39 40  0     1  0  0  0  0  0999 V2000
    7.4192   13.5059   22.9109 C   0  0  0  0  0  0  0  0  0  0  0  0
   10.4642   13.3631   22.9411 C   0  0  0  0  0  0  0  0  0  0  0  0
    9.1567   11.1672   25.4978 C   0  0  0  0  0  0  0  0  0  0  0  0
    8.9896    9.8696   24.6866 C   0  0  0  0  0  0  0  0  0  0  0  0
    8.2710   12.3225   25.0002 C   0  0  0  0  0  0  0  0  0  0  0  0
    7.5960   11.0297   22.9789 C   0  0  0  0  0  0  0  0  0  0  0  0
    9.9165   10.9338   22.5518 C   0  0  0  0  0  0  0  0  0  0  0  0
    8.7902   10.0989   23.1736 C   0  0  1  0  0  0  0  0  0  0  0  0
    8.2026   12.3543   23.4662 C   0  0  1  0  0  0  0  0  0  0  0  0
   13.1885   13.1521   23.7825 C   0  0  0  0  0  0  0  0  0  0  0  0
   13.7683   13.4516   21.3570 C   0  0  0  0  0  0  0  0  0  0  0  0
   12.5653   15.2792   22.5901 C   0  0  0  0  0  0  0  0  0  0  0  0
   12.7542   13.7691   22.4538 C   0  0  0  0  0  0  0  0  0  0  0  0
    9.5542   12.3143   22.8845 N   0  0  0  0  0  0  0  0  0  0  0  0
    7.2380   13.7232   21.7221 O   0  0  0  0  0  0  0  0  0  0  0  0
   10.3532   14.3418   23.6757 O   0  0  0  0  0  0  0  0  0  0  0  0
    6.9362   14.2829   23.9110 O   0  0  0  0  0  0  0  0  0  0  0  0
   11.5044   13.1863   22.0676 O   0  0  0  0  0  0  0  0  0  0  0  0
    8.9584   10.9730   26.5582 H   0  0  0  0  0  0  0  0  0  0  0  0
   10.2071   11.4809   25.4412 H   0  0  0  0  0  0  0  0  0  0  0  0
    9.8603    9.2252   24.8549 H   0  0  0  0  0  0  0  0  0  0  0  0
    8.1182    9.3263   25.0739 H   0  0  0  0  0  0  0  0  0  0  0  0
    7.2596   12.1995   25.4094 H   0  0  0  0  0  0  0  0  0  0  0  0
    8.6442   13.2728   25.4003 H   0  0  0  0  0  0  0  0  0  0  0  0
    7.3048   11.0784   21.9213 H   0  0  0  0  0  0  0  0  0  0  0  0
    6.7149   10.7198   23.5520 H   0  0  0  0  0  0  0  0  0  0  0  0
   10.9082   10.6763   22.9357 H   0  0  0  0  0  0  0  0  0  0  0  0
    9.9211   10.8519   21.4594 H   0  0  0  0  0  0  0  0  0  0  0  0
    8.6571    9.1432   22.6576 H   0  0  0  0  0  0  0  0  0  0  0  0
   12.4631   13.3778   24.5724 H   0  0  0  0  0  0  0  0  0  0  0  0
   13.2936   12.0649   23.7072 H   0  0  0  0  0  0  0  0  0  0  0  0
   14.1460   13.5704   24.1134 H   0  0  0  0  0  0  0  0  0  0  0  0
   13.4607   13.8923   20.4018 H   0  0  0  0  0  0  0  0  0  0  0  0
   13.8371   12.3705   21.1901 H   0  0  0  0  0  0  0  0  0  0  0  0
   14.7654   13.8279   21.6073 H   0  0  0  0  0  0  0  0  0  0  0  0
   12.2538   15.7220   21.6371 H   0  0  0  0  0  0  0  0  0  0  0  0
   11.8138   15.5249   23.3474 H   0  0  0  0  0  0  0  0  0  0  0  0
   13.5080   15.7666   22.8641 H   0  0  0  0  0  0  0  0  0  0  0  0
    6.4214   15.0441   23.5676 H   0  0  0  0  0  0  0  0  0  0  0  0
  1  9  1  1  0  0  0
  1 15  2  0  0  0  0
  1 17  1  0  0  0  0
  2 14  1  0  0  0  0
  2 16  2  0  0  0  0
  2 18  1  0  0  0  0
  3  4  1  0  0  0  0
  3  5  1  0  0  0  0
  4  8  1  0  0  0  0
  5  9  1  0  0  0  0
  6  8  1  1  0  0  0
  6  9  1  0  0  0  0
  7  8  1  0  0  0  0
  7 14  1  0  0  0  0
  9 14  1  0  0  0  0
 10 13  1  0  0  0  0
 11 13  1  0  0  0  0
 12 13  1  0  0  0  0
 13 18  1  0  0  0  0
  3 19  1  0  0  0  0
  3 20  1  0  0  0  0
  4 21  1  0  0  0  0
  4 22  1  0  0  0  0
  5 23  1  0  0  0  0
  5 24  1  0  0  0  0
  6 25  1  0  0  0  0
  6 26  1  0  0  0  0
  7 27  1  0  0  0  0
  7 28  1  0  0  0  0
  8 29  1  0  0  0  0
 10 30  1  0  0  0  0
 10 31  1  0  0  0  0
 10 32  1  0  0  0  0
 11 33  1  0  0  0  0
 11 34  1  0  0  0  0
 11 35  1  0  0  0  0
 12 36  1  0  0  0  0
 12 37  1  0  0  0  0
 12 38  1  0  0  0  0
 17 39  1  0  0  0  0
M  END
> <id>
EN300-20817860

> <smiles>
CC(C)(C)OC(=O)N1C[C@@H]2C[C@]1(CCC2)C(=O)O

> <MDLNUMBER>
MFCD28389123

> <IUPAC Name>
(1S,5R)-6-[(tert-butoxy)carbonyl]-6-azabicyclo[3.2.1]octane-5-carboxylic acid

> <CAS>
1932828-73-3

> <Purity>
95

> <URL>
https://www.enaminestore.com/catalog/EN300-20817860

> <ROCS_ShapeQuery>
x0446_0A_x1080_0A_x0929_0A_x0812_0A_x0719_0A_x1140_0A_x0528_0A_x0310_0A

> <ROCS_TanimotoCombo>
0.410 

> <ROCS_ShapeTanimoto>
0.231 

> <ROCS_ColorTanimoto>
0.178 

> <ROCS_RefTversky>
0.210 

> <ROCS_RefColorTversky>
0.203 

> <ROCS_RefTverskyCombo>
0.413 

> <ROCS_FitTversky>
1.789 

> <ROCS_FitColorTversky>
0.598 

> <ROCS_FitTverskyCombo>
2.387 

> <ROCS_ColorScore>
-7.276

> <ROCS_Overlap>
2479.273

> <ROCS_Rank>
465                 

$$$$
untitled-dbase-513013_8
  -OEChem-02082415563D

 32 34  0     0  0  0  0  0  0999 V2000
    8.5784   13.5089   22.6816 C   0  0  0  0  0  0  0  0  0  0  0  0
   12.5548    9.5922   22.8520 C   0  0  0  0  0  0  0  0  0  0  0  0
    9.0029   10.8855   22.3043 C   0  0  0  0  0  0  0  0  0  0  0  0
   10.1238   11.6750   23.8878 C   0  0  0  0  0  0  0  0  0  0  0  0
    7.3854   12.3787   25.4563 C   0  0  0  0  0  0  0  0  0  0  0  0
    6.2801   11.6000   23.8938 C   0  0  0  0  0  0  0  0  0  0  0  0
    8.7379   12.1133   23.2651 C   0  0  0  0  0  0  0  0  0  0  0  0
    7.7443   11.4717   24.2882 C   0  0  0  0  0  0  0  0  0  0  0  0
    9.4474   10.2586   23.6874 C   0  0  0  0  0  0  0  0  0  0  0  0
   10.2902    9.0159   23.7107 C   0  0  0  0  0  0  0  0  0  0  0  0
   13.3862    9.5079   21.6059 C   0  0  0  0  0  0  0  0  0  0  0  0
   11.2832    9.0567   22.6784 N   0  0  0  0  0  0  0  0  0  0  0  0
    7.7175   13.8402   21.8801 O   0  0  0  0  0  0  0  0  0  0  0  0
   12.9853   10.0894   23.8888 O   0  0  0  0  0  0  0  0  0  0  0  0
    6.0401   12.5616   24.9504 O   0  0  0  0  0  0  0  0  0  0  0  0
    8.2792   10.1547   24.5660 O   0  0  0  0  0  0  0  0  0  0  0  0
    9.5278   14.3436   23.1705 O   0  0  0  0  0  0  0  0  0  0  0  0
   12.7090    8.9257   20.5836 F   0  0  0  0  0  0  0  0  0  0  0  0
   14.5162    8.7802   21.7959 F   0  0  0  0  0  0  0  0  0  0  0  0
   13.7771   10.7324   21.1702 F   0  0  0  0  0  0  0  0  0  0  0  0
    8.1220   10.4328   21.8399 H   0  0  0  0  0  0  0  0  0  0  0  0
    9.7825   11.0148   21.5447 H   0  0  0  0  0  0  0  0  0  0  0  0
   11.0191   11.8860   23.2917 H   0  0  0  0  0  0  0  0  0  0  0  0
   10.3060   11.9710   24.9253 H   0  0  0  0  0  0  0  0  0  0  0  0
    7.3756   11.8949   26.4380 H   0  0  0  0  0  0  0  0  0  0  0  0
    7.9212   13.3293   25.5288 H   0  0  0  0  0  0  0  0  0  0  0  0
    6.0678   12.0230   22.9077 H   0  0  0  0  0  0  0  0  0  0  0  0
    5.6763   10.6982   24.0363 H   0  0  0  0  0  0  0  0  0  0  0  0
   10.7808    8.9463   24.6888 H   0  0  0  0  0  0  0  0  0  0  0  0
    9.6366    8.1491   23.5566 H   0  0  0  0  0  0  0  0  0  0  0  0
   11.0435    8.6708   21.7635 H   0  0  0  0  0  0  0  0  0  0  0  0
    9.4430   15.2497   22.8041 H   0  0  0  0  0  0  0  0  0  0  0  0
  1  7  1  0  0  0  0
  1 13  2  0  0  0  0
  1 17  1  0  0  0  0
  2 11  1  0  0  0  0
  2 12  1  0  0  0  0
  2 14  2  0  0  0  0
  3  7  1  0  0  0  0
  3  9  1  0  0  0  0
  4  7  1  0  0  0  0
  4  9  1  0  0  0  0
  5  8  1  0  0  0  0
  5 15  1  0  0  0  0
  6  8  1  0  0  0  0
  6 15  1  0  0  0  0
  7  8  1  0  0  0  0
  8 16  1  0  0  0  0
  9 10  1  0  0  0  0
  9 16  1  0  0  0  0
 10 12  1  0  0  0  0
 11 18  1  0  0  0  0
 11 19  1  0  0  0  0
 11 20  1  0  0  0  0
  3 21  1  0  0  0  0
  3 22  1  0  0  0  0
  4 23  1  0  0  0  0
  4 24  1  0  0  0  0
  5 25  1  0  0  0  0
  5 26  1  0  0  0  0
  6 27  1  0  0  0  0
  6 28  1  0  0  0  0
 10 29  1  0  0  0  0
 10 30  1  0  0  0  0
 12 31  1  0  0  0  0
 17 32  1  0  0  0  0
M  END
> <id>
EN300-28289183

> <smiles>
OC(=O)C1(CC2(CNC(=O)C(F)(F)F)C1)C3(COC3)O2

> <IUPAC Name>
4-[(2,2,2-trifluoroacetamido)methyl]-3-oxaspiro[bicyclo[2.1.1]hexane-2,3'-oxetane]-1-carboxylic acid

> <CAS>
2680787-33-9

> <URL>
https://www.enaminestore.com/catalog/EN300-28289183

> <ROCS_ShapeQuery>
x0446_0A_x1080_0A_x0929_0A_x0812_0A_x0719_0A_x1140_0A_x0528_0A_x0310_0A

> <ROCS_TanimotoCombo>
0.410 

> <ROCS_ShapeTanimoto>
0.213 

> <ROCS_ColorTanimoto>
0.197 

> <ROCS_RefTversky>
0.197 

> <ROCS_RefColorTversky>
0.238 

> <ROCS_RefTverskyCombo>
0.435 

> <ROCS_FitTversky>
1.563 

> <ROCS_FitColorTversky>
0.538 

> <ROCS_FitTverskyCombo>
2.102 

> <ROCS_ColorScore>
-8.573

> <ROCS_Overlap>
2331.037

> <ROCS_Rank>
466                 

$$$$
untitled-dbase-307638_7
  -OEChem-02082415563D

 30 32  0     0  0  0  0  0  0999 V2000
    8.1142   14.6377   22.4509 C   0  0  0  0  0  0  0  0  0  0  0  0
    9.0285   13.6202   22.5593 C   0  0  0  0  0  0  0  0  0  0  0  0
    6.8170   14.7030   23.0483 C   0  0  0  0  0  0  0  0  0  0  0  0
    9.8635   11.2222   22.5943 C   0  0  0  0  0  0  0  0  0  0  0  0
    9.4190   12.3983   24.7513 C   0  0  0  0  0  0  0  0  0  0  0  0
    9.2679    9.9564   23.2129 C   0  0  0  0  0  0  0  0  0  0  0  0
    8.8394   11.0907   25.2934 C   0  0  0  0  0  0  0  0  0  0  0  0
    7.6749   11.6287   23.3666 C   0  0  0  0  0  0  0  0  0  0  0  0
    9.0277   12.3351   23.2601 C   0  0  0  0  0  0  0  0  0  0  0  0
    4.4625   14.8896   22.5902 C   0  0  0  0  0  0  0  0  0  0  0  0
    8.6236   15.6310   21.6613 N   0  0  0  0  0  0  0  0  0  0  0  0
    9.8377   15.2594   21.2703 N   0  0  0  0  0  0  0  0  0  0  0  0
   10.0785   14.0534   21.8097 N   0  0  0  0  0  0  0  0  0  0  0  0
    8.1949   10.4541   24.1141 N   0  0  0  0  0  0  0  0  0  0  0  0
    6.5825   14.6673   24.2780 O   0  0  0  0  0  0  0  0  0  0  0  0
    5.8107   14.8142   22.1143 O   0  0  0  0  0  0  0  0  0  0  0  0
   10.9333   11.3228   22.8082 H   0  0  0  0  0  0  0  0  0  0  0  0
    9.7308   11.2155   21.5054 H   0  0  0  0  0  0  0  0  0  0  0  0
    8.9582   13.2583   25.2530 H   0  0  0  0  0  0  0  0  0  0  0  0
   10.5035   12.4599   24.8932 H   0  0  0  0  0  0  0  0  0  0  0  0
    8.8305    9.3193   22.4353 H   0  0  0  0  0  0  0  0  0  0  0  0
   10.0145    9.3551   23.7434 H   0  0  0  0  0  0  0  0  0  0  0  0
    9.6011   10.4497   25.7508 H   0  0  0  0  0  0  0  0  0  0  0  0
    8.0838   11.2959   26.0607 H   0  0  0  0  0  0  0  0  0  0  0  0
    6.9214   12.1864   23.9367 H   0  0  0  0  0  0  0  0  0  0  0  0
    7.2375   11.3488   22.4002 H   0  0  0  0  0  0  0  0  0  0  0  0
    3.7798   14.9742   21.7412 H   0  0  0  0  0  0  0  0  0  0  0  0
    4.3547   15.7572   23.2461 H   0  0  0  0  0  0  0  0  0  0  0  0
    4.2322   13.9806   23.1509 H   0  0  0  0  0  0  0  0  0  0  0  0
   10.9648   13.5996   21.6239 H   0  0  0  0  0  0  0  0  0  0  0  0
  1  2  2  0  0  0  0
  1  3  1  0  0  0  0
  1 11  1  0  0  0  0
  2  9  1  0  0  0  0
  2 13  1  0  0  0  0
  3 15  2  0  0  0  0
  3 16  1  0  0  0  0
  4  6  1  0  0  0  0
  4  9  1  0  0  0  0
  5  7  1  0  0  0  0
  5  9  1  0  0  0  0
  6 14  1  0  0  0  0
  7 14  1  0  0  0  0
  8  9  1  0  0  0  0
  8 14  1  0  0  0  0
 10 16  1  0  0  0  0
 11 12  2  0  0  0  0
 12 13  1  0  0  0  0
  4 17  1  0  0  0  0
  4 18  1  0  0  0  0
  5 19  1  0  0  0  0
  5 20  1  0  0  0  0
  6 21  1  0  0  0  0
  6 22  1  0  0  0  0
  7 23  1  0  0  0  0
  7 24  1  0  0  0  0
  8 25  1  0  0  0  0
  8 26  1  0  0  0  0
 10 27  1  0  0  0  0
 10 28  1  0  0  0  0
 10 29  1  0  0  0  0
 13 30  1  0  0  0  0
M  END
> <id>
EN300-786259

> <smiles>
COC(=O)C=1N=NNC1C2(CCN3CC2)C3

> <MDLNUMBER>
MFCD31462962

> <IUPAC Name>
methyl 5-{1-azabicyclo[2.2.1]heptan-4-yl}-1H-1,2,3-triazole-4-carboxylate

> <CAS>
2137664-42-5

> <URL>
https://www.enaminestore.com/catalog/EN300-786259

> <ROCS_ShapeQuery>
x0446_0A_x1080_0A_x0929_0A_x0812_0A_x0719_0A_x1140_0A_x0528_0A_x0310_0A

> <ROCS_TanimotoCombo>
0.410 

> <ROCS_ShapeTanimoto>
0.210 

> <ROCS_ColorTanimoto>
0.200 

> <ROCS_RefTversky>
0.193 

> <ROCS_RefColorTversky>
0.231 

> <ROCS_RefTverskyCombo>
0.424 

> <ROCS_FitTversky>
1.713 

> <ROCS_FitColorTversky>
0.596 

> <ROCS_FitTverskyCombo>
2.310 

> <ROCS_ColorScore>
-8.327

> <ROCS_Overlap>
2276.638

> <ROCS_Rank>
467                 

$$$$
untitled-dbase-391646_1
  -OEChem-02082415563D

 35 38  0     1  0  0  0  0  0999 V2000
    8.8491   14.5886   21.5579 C   0  0  0  0  0  0  0  0  0  0  0  0
   10.1807   15.9883   22.3484 C   0  0  0  0  0  0  0  0  0  0  0  0
    5.8547   10.9094   24.5236 C   0  0  0  0  0  0  0  0  0  0  0  0
   10.0102    9.8662   24.0260 C   0  0  0  0  0  0  0  0  0  0  0  0
    7.6764    9.9863   23.1190 C   0  0  0  0  0  0  0  0  0  0  0  0
    8.1681   10.8131   25.4373 C   0  0  0  0  0  0  0  0  0  0  0  0
    9.4611   11.4875   22.1930 C   0  0  0  0  0  0  0  0  0  0  0  0
    9.9367   12.3241   24.5076 C   0  0  0  0  0  0  0  0  0  0  0  0
    7.5964   12.4477   23.6166 C   0  0  0  0  0  0  0  0  0  0  0  0
    9.1687   10.0884   22.7623 C   0  0  1  0  0  0  0  0  0  0  0  0
    9.6563   10.9243   25.0796 C   0  0  2  0  0  0  0  0  0  0  0  0
    7.3117   11.0410   24.1806 C   0  0  0  0  0  0  0  0  0  0  0  0
    9.0956   12.6025   23.2191 C   0  0  0  0  0  0  0  0  0  0  0  0
    9.3411   15.8452   21.3493 N   0  0  0  0  0  0  0  0  0  0  0  0
   10.1807   14.8622   23.1110 N   0  0  0  0  0  0  0  0  0  0  0  0
    9.3314   13.9452   22.6232 N   0  0  0  0  0  0  0  0  0  0  0  0
    5.0892   10.0928   24.0332 O   0  0  0  0  0  0  0  0  0  0  0  0
    5.4976   11.8266   25.4556 O   0  0  0  0  0  0  0  0  0  0  0  0
   11.2297   17.4988   22.6967 Br  0  0  0  0  0  0  0  0  0  0  0  0
    8.1133   14.1436   20.9001 H   0  0  0  0  0  0  0  0  0  0  0  0
    9.8286    8.8611   24.4264 H   0  0  0  0  0  0  0  0  0  0  0  0
   11.0780    9.9224   23.7811 H   0  0  0  0  0  0  0  0  0  0  0  0
    7.0656   10.1240   22.2170 H   0  0  0  0  0  0  0  0  0  0  0  0
    7.4502    8.9777   23.4897 H   0  0  0  0  0  0  0  0  0  0  0  0
    7.9619    9.8255   25.8707 H   0  0  0  0  0  0  0  0  0  0  0  0
    7.9119   11.5465   26.2132 H   0  0  0  0  0  0  0  0  0  0  0  0
   10.5209   11.5638   21.9158 H   0  0  0  0  0  0  0  0  0  0  0  0
    8.8898   11.6353   21.2668 H   0  0  0  0  0  0  0  0  0  0  0  0
    9.7152   13.0857   25.2675 H   0  0  0  0  0  0  0  0  0  0  0  0
   11.0068   12.4235   24.2811 H   0  0  0  0  0  0  0  0  0  0  0  0
    6.9624   12.6397   22.7393 H   0  0  0  0  0  0  0  0  0  0  0  0
    7.3208   13.2153   24.3534 H   0  0  0  0  0  0  0  0  0  0  0  0
    9.4210    9.3287   22.0139 H   0  0  0  0  0  0  0  0  0  0  0  0
   10.2635   10.7657   25.9779 H   0  0  0  0  0  0  0  0  0  0  0  0
    4.5480   11.7581   25.6920 H   0  0  0  0  0  0  0  0  0  0  0  0
  1 14  2  0  0  0  0
  1 16  1  0  0  0  0
  2 14  1  0  0  0  0
  2 15  2  0  0  0  0
  2 19  1  0  0  0  0
  3 12  1  0  0  0  0
  3 17  2  0  0  0  0
  3 18  1  0  0  0  0
  4 10  1  0  0  0  0
  4 11  1  0  0  0  0
  5 10  1  0  0  0  0
  5 12  1  0  0  0  0
  6 11  1  0  0  0  0
  6 12  1  0  0  0  0
  7 10  1  0  0  0  0
  7 13  1  0  0  0  0
  8 11  1  0  0  0  0
  8 13  1  0  0  0  0
  9 12  1  0  0  0  0
  9 13  1  0  0  0  0
 13 16  1  0  0  0  0
 15 16  1  0  0  0  0
  1 20  1  0  0  0  0
  4 21  1  0  0  0  0
  4 22  1  0  0  0  0
  5 23  1  0  0  0  0
  5 24  1  0  0  0  0
  6 25  1  0  0  0  0
  6 26  1  0  0  0  0
  7 27  1  0  0  0  0
  7 28  1  0  0  0  0
  8 29  1  0  0  0  0
  8 30  1  0  0  0  0
  9 31  1  0  0  0  0
  9 32  1  0  0  0  0
 10 33  1  0  0  0  0
 11 34  1  0  0  0  0
 18 35  1  0  0  0  0
M  END
> <id>
EN300-227606

> <smiles>
OC(=O)C1(CC2CC3C1)CC(C2)(C3)N4C=NC(Br)=N4

> <MDLNUMBER>
MFCD02090844

> <IUPAC Name>
3-(3-bromo-1H-1,2,4-triazol-1-yl)adamantane-1-carboxylic acid

> <CAS>
676348-39-3

> <Purity>
95

> <URL>
https://www.enaminestore.com/catalog/EN300-227606

> <ROCS_ShapeQuery>
x0446_0A_x1080_0A_x0929_0A_x0812_0A_x0719_0A_x1140_0A_x0528_0A_x0310_0A

> <ROCS_TanimotoCombo>
0.410 

> <ROCS_ShapeTanimoto>
0.222 

> <ROCS_ColorTanimoto>
0.188 

> <ROCS_RefTversky>
0.204 

> <ROCS_RefColorTversky>
0.223 

> <ROCS_RefTverskyCombo>
0.427 

> <ROCS_FitTversky>
1.657 

> <ROCS_FitColorTversky>
0.548 

> <ROCS_FitTverskyCombo>
2.205 

> <ROCS_ColorScore>
-8.032

> <ROCS_Overlap>
2404.515

> <ROCS_Rank>
468                 

$$$$
untitled-dbase-528408_6
  -OEChem-02082415563D

 39 41  0     0  0  0  0  0  0999 V2000
    8.1603   14.7347   22.5239 C   0  0  0  0  0  0  0  0  0  0  0  0
    8.9631   13.6284   22.6448 C   0  0  0  0  0  0  0  0  0  0  0  0
    6.9149   14.9765   23.1828 C   0  0  0  0  0  0  0  0  0  0  0  0
    7.6061   10.4113   23.9740 C   0  0  0  0  0  0  0  0  0  0  0  0
    9.8531   10.8675   24.9984 C   0  0  0  0  0  0  0  0  0  0  0  0
    7.4224   11.9071   23.6969 C   0  0  0  0  0  0  0  0  0  0  0  0
    9.6788   12.3661   24.7281 C   0  0  0  0  0  0  0  0  0  0  0  0
    9.1161   10.2247   23.8240 C   0  0  0  0  0  0  0  0  0  0  0  0
    8.8630   12.3905   23.4196 C   0  0  0  0  0  0  0  0  0  0  0  0
    4.9951   16.8283   24.3058 C   0  0  0  0  0  0  0  0  0  0  0  0
    4.0505   16.9591   21.9820 C   0  0  0  0  0  0  0  0  0  0  0  0
    4.0220   14.7754   23.2225 C   0  0  0  0  0  0  0  0  0  0  0  0
    4.7850   16.0789   22.9908 C   0  0  0  0  0  0  0  0  0  0  0  0
    8.7281   15.6213   21.6515 N   0  0  0  0  0  0  0  0  0  0  0  0
    9.8698   15.0958   21.2208 N   0  0  0  0  0  0  0  0  0  0  0  0
   10.0088   13.9009   21.8175 N   0  0  0  0  0  0  0  0  0  0  0  0
    9.4289   11.1892   22.7554 N   0  0  0  0  0  0  0  0  0  0  0  0
    6.5952   14.5394   24.3120 O   0  0  0  0  0  0  0  0  0  0  0  0
    6.0667   15.7643   22.4360 O   0  0  0  0  0  0  0  0  0  0  0  0
    7.2424   10.1314   24.9676 H   0  0  0  0  0  0  0  0  0  0  0  0
    7.0601    9.8231   23.2273 H   0  0  0  0  0  0  0  0  0  0  0  0
   10.9181   10.6064   24.9908 H   0  0  0  0  0  0  0  0  0  0  0  0
    9.4361   10.5767   25.9678 H   0  0  0  0  0  0  0  0  0  0  0  0
    6.7665   12.0504   22.8292 H   0  0  0  0  0  0  0  0  0  0  0  0
    6.9679   12.4234   24.5499 H   0  0  0  0  0  0  0  0  0  0  0  0
    9.1575   12.8665   25.5520 H   0  0  0  0  0  0  0  0  0  0  0  0
   10.6597   12.8442   24.6140 H   0  0  0  0  0  0  0  0  0  0  0  0
    9.4174    9.1948   23.6198 H   0  0  0  0  0  0  0  0  0  0  0  0
    5.5220   16.1998   25.0326 H   0  0  0  0  0  0  0  0  0  0  0  0
    5.5714   17.7475   24.1586 H   0  0  0  0  0  0  0  0  0  0  0  0
    4.0347   17.0915   24.7636 H   0  0  0  0  0  0  0  0  0  0  0  0
    3.8976   16.4254   21.0370 H   0  0  0  0  0  0  0  0  0  0  0  0
    4.6396   17.8513   21.7408 H   0  0  0  0  0  0  0  0  0  0  0  0
    3.0747   17.2799   22.3608 H   0  0  0  0  0  0  0  0  0  0  0  0
    3.8712   14.2377   22.2794 H   0  0  0  0  0  0  0  0  0  0  0  0
    4.5529   14.1150   23.9158 H   0  0  0  0  0  0  0  0  0  0  0  0
    3.0234   14.9752   23.6276 H   0  0  0  0  0  0  0  0  0  0  0  0
   10.8281   13.3413   21.6131 H   0  0  0  0  0  0  0  0  0  0  0  0
   10.4390   11.2834   22.6440 H   0  0  0  0  0  0  0  0  0  0  0  0
  1  2  2  0  0  0  0
  1  3  1  0  0  0  0
  1 14  1  0  0  0  0
  2  9  1  0  0  0  0
  2 16  1  0  0  0  0
  3 18  2  0  0  0  0
  3 19  1  0  0  0  0
  4  6  1  0  0  0  0
  4  8  1  0  0  0  0
  5  7  1  0  0  0  0
  5  8  1  0  0  0  0
  6  9  1  0  0  0  0
  7  9  1  0  0  0  0
  8 17  1  0  0  0  0
  9 17  1  0  0  0  0
 10 13  1  0  0  0  0
 11 13  1  0  0  0  0
 12 13  1  0  0  0  0
 13 19  1  0  0  0  0
 14 15  2  0  0  0  0
 15 16  1  0  0  0  0
  4 20  1  0  0  0  0
  4 21  1  0  0  0  0
  5 22  1  0  0  0  0
  5 23  1  0  0  0  0
  6 24  1  0  0  0  0
  6 25  1  0  0  0  0
  7 26  1  0  0  0  0
  7 27  1  0  0  0  0
  8 28  1  0  0  0  0
 10 29  1  0  0  0  0
 10 30  1  0  0  0  0
 10 31  1  0  0  0  0
 11 32  1  0  0  0  0
 11 33  1  0  0  0  0
 11 34  1  0  0  0  0
 12 35  1  0  0  0  0
 12 36  1  0  0  0  0
 12 37  1  0  0  0  0
 16 38  1  0  0  0  0
 17 39  1  0  0  0  0
M  END
> <id>
EN300-786656

> <smiles>
CC(C)(C)OC(=O)C=1N=NNC1C2(CCC3CC2)N3

> <IUPAC Name>
tert-butyl 5-{7-azabicyclo[2.2.1]heptan-1-yl}-1H-1,2,3-triazole-4-carboxylate

> <CAS>
2138518-27-9

> <URL>
https://www.enaminestore.com/catalog/EN300-786656

> <ROCS_ShapeQuery>
x0446_0A_x1080_0A_x0929_0A_x0812_0A_x0719_0A_x1140_0A_x0528_0A_x0310_0A

> <ROCS_TanimotoCombo>
0.410 

> <ROCS_ShapeTanimoto>
0.208 

> <ROCS_ColorTanimoto>
0.202 

> <ROCS_RefTversky>
0.193 

> <ROCS_RefColorTversky>
0.242 

> <ROCS_RefTverskyCombo>
0.435 

> <ROCS_FitTversky>
1.569 

> <ROCS_FitColorTversky>
0.552 

> <ROCS_FitTverskyCombo>
2.121 

> <ROCS_ColorScore>
-8.728

> <ROCS_Overlap>
2279.861

> <ROCS_Rank>
469                 

$$$$
untitled-dbase-294384_3
  -OEChem-02082415563D

 45 49  0     0  0  0  0  0  0999 V2000
   10.1982   20.2516   22.7787 C   0  0  0  0  0  0  0  0  0  0  0  0
   10.5757   20.2417   24.1381 C   0  0  0  0  0  0  0  0  0  0  0  0
    9.9920   19.0589   22.0791 C   0  0  0  0  0  0  0  0  0  0  0  0
   10.7552   19.0389   24.8277 C   0  0  0  0  0  0  0  0  0  0  0  0
   10.1709   17.8838   22.7781 C   0  0  0  0  0  0  0  0  0  0  0  0
   10.5438   17.8740   24.1206 C   0  0  0  0  0  0  0  0  0  0  0  0
   10.0426   16.4925   22.3329 C   0  0  0  0  0  0  0  0  0  0  0  0
   10.6585   16.4764   24.5493 C   0  0  0  0  0  0  0  0  0  0  0  0
    8.9637   13.9239   23.8078 C   0  0  0  0  0  0  0  0  0  0  0  0
    7.5083   11.9425   25.9056 C   0  0  0  0  0  0  0  0  0  0  0  0
    6.3946   11.9698   23.6480 C   0  0  0  0  0  0  0  0  0  0  0  0
    9.2585   11.6112   22.4756 C   0  0  0  0  0  0  0  0  0  0  0  0
   10.1781   11.5883   24.3389 C   0  0  0  0  0  0  0  0  0  0  0  0
    6.2487   11.2620   26.4332 C   0  0  0  0  0  0  0  0  0  0  0  0
    5.2032   11.2870   24.3133 C   0  0  0  0  0  0  0  0  0  0  0  0
    8.9300   12.4023   23.8061 C   0  0  0  0  0  0  0  0  0  0  0  0
    7.6917   11.6746   24.4082 C   0  0  0  0  0  0  0  0  0  0  0  0
    9.3989   10.4678   23.5510 C   0  0  0  0  0  0  0  0  0  0  0  0
   10.0517    9.1619   23.2127 C   0  0  0  0  0  0  0  0  0  0  0  0
   10.3038   15.7608   23.4488 N   0  0  0  0  0  0  0  0  0  0  0  0
    9.7474   16.1457   21.2062 O   0  0  0  0  0  0  0  0  0  0  0  0
   10.9859   16.1135   25.6619 O   0  0  0  0  0  0  0  0  0  0  0  0
    8.0009   14.6294   24.0784 O   0  0  0  0  0  0  0  0  0  0  0  0
    5.1040   11.6646   25.6847 O   0  0  0  0  0  0  0  0  0  0  0  0
    8.0984   10.3075   24.1909 O   0  0  0  0  0  0  0  0  0  0  0  0
   10.2128   14.3518   23.4639 O   0  0  0  0  0  0  0  0  0  0  0  0
   10.0676   21.2029   22.2692 H   0  0  0  0  0  0  0  0  0  0  0  0
   10.7300   21.1855   24.6548 H   0  0  0  0  0  0  0  0  0  0  0  0
    9.7046   19.0677   21.0344 H   0  0  0  0  0  0  0  0  0  0  0  0
   11.0478   19.0325   25.8708 H   0  0  0  0  0  0  0  0  0  0  0  0
    7.4200   13.0227   26.0718 H   0  0  0  0  0  0  0  0  0  0  0  0
    8.3604   11.5854   26.4923 H   0  0  0  0  0  0  0  0  0  0  0  0
    6.4441   11.6318   22.6085 H   0  0  0  0  0  0  0  0  0  0  0  0
    6.2190   13.0521   23.6375 H   0  0  0  0  0  0  0  0  0  0  0  0
    8.4521   11.4867   21.7494 H   0  0  0  0  0  0  0  0  0  0  0  0
   10.1670   11.9038   21.9357 H   0  0  0  0  0  0  0  0  0  0  0  0
   11.1620   11.8792   23.9515 H   0  0  0  0  0  0  0  0  0  0  0  0
   10.2625   11.4423   25.4181 H   0  0  0  0  0  0  0  0  0  0  0  0
    6.3404   10.1700   26.4040 H   0  0  0  0  0  0  0  0  0  0  0  0
    6.0823   11.5496   27.4765 H   0  0  0  0  0  0  0  0  0  0  0  0
    4.2769   11.5922   23.8162 H   0  0  0  0  0  0  0  0  0  0  0  0
    5.2722   10.1953   24.2375 H   0  0  0  0  0  0  0  0  0  0  0  0
   10.0621    8.4863   24.0791 H   0  0  0  0  0  0  0  0  0  0  0  0
   11.0923    9.3090   22.8920 H   0  0  0  0  0  0  0  0  0  0  0  0
    9.5205    8.6512   22.3977 H   0  0  0  0  0  0  0  0  0  0  0  0
  1  2  1  0  0  0  0
  1  3  2  0  0  0  0
  2  4  2  0  0  0  0
  3  5  1  0  0  0  0
  4  6  1  0  0  0  0
  5  6  2  0  0  0  0
  5  7  1  0  0  0  0
  6  8  1  0  0  0  0
  7 20  1  0  0  0  0
  7 21  2  0  0  0  0
  8 20  1  0  0  0  0
  8 22  2  0  0  0  0
  9 16  1  0  0  0  0
  9 23  2  0  0  0  0
  9 26  1  0  0  0  0
 10 14  1  0  0  0  0
 10 17  1  0  0  0  0
 11 15  1  0  0  0  0
 11 17  1  0  0  0  0
 12 16  1  0  0  0  0
 12 18  1  0  0  0  0
 13 16  1  0  0  0  0
 13 18  1  0  0  0  0
 14 24  1  0  0  0  0
 15 24  1  0  0  0  0
 16 17  1  0  0  0  0
 17 25  1  0  0  0  0
 18 19  1  0  0  0  0
 18 25  1  0  0  0  0
 20 26  1  0  0  0  0
  1 27  1  0  0  0  0
  2 28  1  0  0  0  0
  3 29  1  0  0  0  0
  4 30  1  0  0  0  0
 10 31  1  0  0  0  0
 10 32  1  0  0  0  0
 11 33  1  0  0  0  0
 11 34  1  0  0  0  0
 12 35  1  0  0  0  0
 12 36  1  0  0  0  0
 13 37  1  0  0  0  0
 13 38  1  0  0  0  0
 14 39  1  0  0  0  0
 14 40  1  0  0  0  0
 15 41  1  0  0  0  0
 15 42  1  0  0  0  0
 19 43  1  0  0  0  0
 19 44  1  0  0  0  0
 19 45  1  0  0  0  0
M  END
> <id>
EN300-6526436

> <smiles>
CC1(CC2(C1)C(=O)ON3C(=O)C=4C=CC=CC4C3=O)OC52CCOCC5

> <IUPAC Name>
1,3-dioxo-2,3-dihydro-1H-isoindol-2-yl 4-methyl-3-oxaspiro[bicyclo[2.1.1]hexane-2,4'-oxane]-1-carboxylate

> <CAS>
2248384-62-3

> <URL>
https://www.enaminestore.com/catalog/EN300-6526436

> <ROCS_ShapeQuery>
x0446_0A_x1080_0A_x0929_0A_x0812_0A_x0719_0A_x1140_0A_x0528_0A_x0310_0A

> <ROCS_TanimotoCombo>
0.410 

> <ROCS_ShapeTanimoto>
0.214 

> <ROCS_ColorTanimoto>
0.196 

> <ROCS_RefTversky>
0.203 

> <ROCS_RefColorTversky>
0.236 

> <ROCS_RefTverskyCombo>
0.439 

> <ROCS_FitTversky>
1.344 

> <ROCS_FitColorTversky>
0.535 

> <ROCS_FitTverskyCombo>
1.879 

> <ROCS_ColorScore>
-8.502

> <ROCS_Overlap>
2402.240

> <ROCS_Rank>
470                 

$$$$
untitled-dbase-345459_4
  -OEChem-02082415563D

 46 50  0     0  0  0  0  0  0999 V2000
    8.1527   17.5137   20.2845 C   0  0  0  0  0  0  0  0  0  0  0  0
    6.7894   17.2536   20.1530 C   0  0  0  0  0  0  0  0  0  0  0  0
    9.1101   13.0286   24.4151 C   0  0  0  0  0  0  0  0  0  0  0  0
    7.0774   15.1326   21.2792 C   0  0  0  0  0  0  0  0  0  0  0  0
    6.6375   12.9077   25.2807 C   0  0  0  0  0  0  0  0  0  0  0  0
    7.8399   12.4974   24.6714 C   0  0  0  0  0  0  0  0  0  0  0  0
    8.9767   16.5768   20.9157 C   0  0  0  0  0  0  0  0  0  0  0  0
   10.0221   12.2095   23.7493 C   0  0  0  0  0  0  0  0  0  0  0  0
    8.4482   15.3749   21.4213 C   0  0  0  0  0  0  0  0  0  0  0  0
    6.2527   16.0663   20.6488 C   0  0  0  0  0  0  0  0  0  0  0  0
    7.5797   11.2033   24.2484 C   0  0  0  0  0  0  0  0  0  0  0  0
    9.6298   10.9272   23.3798 C   0  0  0  0  0  0  0  0  0  0  0  0
   10.4290   16.8443   21.0655 C   0  0  0  0  0  0  0  0  0  0  0  0
   11.5734   13.8337   22.7641 C   0  0  0  0  0  0  0  0  0  0  0  0
   10.5022   14.6609   22.1645 C   0  0  0  0  0  0  0  0  0  0  0  0
   11.3298   12.7315   23.4752 C   0  0  0  0  0  0  0  0  0  0  0  0
   12.8997   14.4614   22.4725 C   0  0  0  0  0  0  0  0  0  0  0  0
   12.5306   15.8626   22.0073 C   0  0  0  0  0  0  0  0  0  0  0  0
    4.3518    9.9226   23.4889 C   0  0  0  0  0  0  0  0  0  0  0  0
    5.1727    9.0356   25.7128 C   0  0  0  0  0  0  0  0  0  0  0  0
    5.5644    9.7122   24.3978 C   0  0  0  0  0  0  0  0  0  0  0  0
    5.6924   11.9622   25.2507 N   0  0  0  0  0  0  0  0  0  0  0  0
    8.4155   10.3696   23.6050 N   0  0  0  0  0  0  0  0  0  0  0  0
    9.2443   14.4034   22.0629 N   0  0  0  0  0  0  0  0  0  0  0  0
    6.2939   10.9387   24.6177 N   0  0  0  0  0  0  0  0  0  0  0  0
   11.1157   15.8186   21.6933 N   0  0  0  0  0  0  0  0  0  0  0  0
   10.9247   17.8910   20.6653 O   0  0  0  0  0  0  0  0  0  0  0  0
    4.5684   15.7506   20.4832 Cl  0  0  0  0  0  0  0  0  0  0  0  0
   10.6977    9.8509   22.5499 Cl  0  0  0  0  0  0  0  0  0  0  0  0
    8.5519   18.4447   19.8922 H   0  0  0  0  0  0  0  0  0  0  0  0
    6.1559   17.9870   19.6602 H   0  0  0  0  0  0  0  0  0  0  0  0
    9.3642   14.0376   24.7252 H   0  0  0  0  0  0  0  0  0  0  0  0
    6.6559   14.2066   21.6659 H   0  0  0  0  0  0  0  0  0  0  0  0
    6.4082   13.8567   25.7448 H   0  0  0  0  0  0  0  0  0  0  0  0
   12.1848   12.2053   23.9002 H   0  0  0  0  0  0  0  0  0  0  0  0
   13.4990   14.5089   23.3883 H   0  0  0  0  0  0  0  0  0  0  0  0
   13.4580   13.9197   21.7032 H   0  0  0  0  0  0  0  0  0  0  0  0
   12.7280   16.6287   22.7641 H   0  0  0  0  0  0  0  0  0  0  0  0
   13.0696   16.1417   21.0944 H   0  0  0  0  0  0  0  0  0  0  0  0
    3.6146   10.5952   23.9402 H   0  0  0  0  0  0  0  0  0  0  0  0
    3.8525    8.9689   23.2871 H   0  0  0  0  0  0  0  0  0  0  0  0
    4.6540   10.3548   22.5285 H   0  0  0  0  0  0  0  0  0  0  0  0
    4.4868    9.6674   26.2877 H   0  0  0  0  0  0  0  0  0  0  0  0
    6.0590    8.8520   26.3296 H   0  0  0  0  0  0  0  0  0  0  0  0
    4.6782    8.0728   25.5456 H   0  0  0  0  0  0  0  0  0  0  0  0
    6.2477    9.0314   23.8739 H   0  0  0  0  0  0  0  0  0  0  0  0
  1  2  2  0  0  0  0
  1  7  1  0  0  0  0
  2 10  1  0  0  0  0
  3  6  1  0  0  0  0
  3  8  2  0  0  0  0
  4  9  1  0  0  0  0
  4 10  2  0  0  0  0
  5  6  1  0  0  0  0
  5 22  2  0  0  0  0
  6 11  2  0  0  0  0
  7  9  2  0  0  0  0
  7 13  1  0  0  0  0
  8 12  1  0  0  0  0
  8 16  1  4  0  0  0
  9 24  1  0  0  0  0
 10 28  1  0  0  0  0
 11 23  1  0  0  0  0
 11 25  1  0  0  0  0
 12 23  2  0  0  0  0
 12 29  1  0  0  0  0
 13 26  1  0  0  0  0
 13 27  2  0  0  0  0
 14 15  1  0  0  0  0
 14 16  2  0  0  0  0
 14 17  1  0  0  0  0
 15 24  2  0  0  0  0
 15 26  1  0  0  0  0
 17 18  1  0  0  0  0
 18 26  1  0  0  0  0
 19 21  1  0  0  0  0
 20 21  1  0  0  0  0
 21 25  1  0  0  0  0
 22 25  1  0  0  0  0
  1 30  1  0  0  0  0
  2 31  1  0  0  0  0
  3 32  1  0  0  0  0
  4 33  1  0  0  0  0
  5 34  1  0  0  0  0
 16 35  1  0  0  0  0
 17 36  1  0  0  0  0
 17 37  1  0  0  0  0
 18 38  1  0  0  0  0
 18 39  1  0  0  0  0
 19 40  1  0  0  0  0
 19 41  1  0  0  0  0
 19 42  1  0  0  0  0
 20 43  1  0  0  0  0
 20 44  1  0  0  0  0
 20 45  1  0  0  0  0
 21 46  1  0  0  0  0
M  END
> <id>
EN300-26621184

> <smiles>
CC(C)N1N=CC=2C=C(C=C3CCN4C3=NC=5C=C(Cl)C=CC5C4=O)C(Cl)=NC12

> <IUPAC Name>
6-chloro-3-{[6-chloro-1-(propan-2-yl)-1H-pyrazolo[3,4-b]pyridin-5-yl]methylidene}-1H,2H,3H,9H-pyrrolo[2,1-b]quinazolin-9-one

> <CAS>
1030196-53-2

> <URL>
https://www.enaminestore.com/catalog/EN300-26621184

> <ROCS_ShapeQuery>
x0446_0A_x1080_0A_x0929_0A_x0812_0A_x0719_0A_x1140_0A_x0528_0A_x0310_0A

> <ROCS_TanimotoCombo>
0.410 

> <ROCS_ShapeTanimoto>
0.268 

> <ROCS_ColorTanimoto>
0.142 

> <ROCS_RefTversky>
0.245 

> <ROCS_RefColorTversky>
0.164 

> <ROCS_RefTverskyCombo>
0.409 

> <ROCS_FitTversky>
1.519 

> <ROCS_FitColorTversky>
0.515 

> <ROCS_FitTverskyCombo>
2.034 

> <ROCS_ColorScore>
-5.872

> <ROCS_Overlap>
2903.818

> <ROCS_Rank>
471                 

$$$$
untitled-dbase-428120_5
  -OEChem-02082415563D

 28 29  0     1  0  0  0  0  0999 V2000
   10.1012   10.4442   23.1537 C   0  0  0  0  0  0  0  0  0  0  0  0
    8.6519   11.6379   25.4165 C   0  0  0  0  0  0  0  0  0  0  0  0
    8.3171   10.2311   24.8942 C   0  0  0  0  0  0  0  0  0  0  0  0
    8.3793   12.7564   24.3970 C   0  0  0  0  0  0  0  0  0  0  0  0
    7.9178   11.1084   22.5845 C   0  0  0  0  0  0  0  0  0  0  0  0
    8.6549   10.0490   23.4087 C   0  0  1  0  0  0  0  0  0  0  0  0
    8.7323   12.3515   22.9476 C   0  0  1  0  0  0  0  0  0  0  0  0
    8.5203   13.4973   21.9696 C   0  0  0  0  0  0  0  0  0  0  0  0
   10.0817   11.8180   22.8859 N   0  0  0  0  0  0  0  0  0  0  0  0
   10.9954   13.8058   21.0586 N   0  0  0  0  0  0  0  0  0  0  0  0
   11.0724    9.7104   23.2332 O   0  0  0  0  0  0  0  0  0  0  0  0
    9.4582   15.8505   21.3292 O   0  0  0  0  0  0  0  0  0  0  0  0
   10.3600   14.6946   23.3874 O   0  0  0  0  0  0  0  0  0  0  0  0
    9.8604   14.6373   22.0229 S   0  0  0  0  0  0  0  0  0  0  0  0
    8.1040   11.8335   26.3454 H   0  0  0  0  0  0  0  0  0  0  0  0
    9.7162   11.6650   25.6853 H   0  0  0  0  0  0  0  0  0  0  0  0
    8.8552    9.4902   25.4970 H   0  0  0  0  0  0  0  0  0  0  0  0
    7.2460   10.0442   25.0401 H   0  0  0  0  0  0  0  0  0  0  0  0
    7.3150   13.0217   24.4471 H   0  0  0  0  0  0  0  0  0  0  0  0
    8.9377   13.6533   24.6923 H   0  0  0  0  0  0  0  0  0  0  0  0
    7.9905   10.8811   21.5128 H   0  0  0  0  0  0  0  0  0  0  0  0
    6.8570   11.1893   22.8453 H   0  0  0  0  0  0  0  0  0  0  0  0
    8.4481    9.0365   23.0533 H   0  0  0  0  0  0  0  0  0  0  0  0
    7.6117   14.0473   22.2160 H   0  0  0  0  0  0  0  0  0  0  0  0
    8.4499   13.1209   20.9489 H   0  0  0  0  0  0  0  0  0  0  0  0
   10.9171   12.3779   22.7475 H   0  0  0  0  0  0  0  0  0  0  0  0
   11.1997   14.1864   20.1263 H   0  0  0  0  0  0  0  0  0  0  0  0
   11.8137   13.3990   21.5281 H   0  0  0  0  0  0  0  0  0  0  0  0
  1  6  1  0  0  0  0
  1  9  1  0  0  0  0
  1 11  2  0  0  0  0
  2  3  1  0  0  0  0
  2  4  1  0  0  0  0
  3  6  1  0  0  0  0
  4  7  1  0  0  0  0
  5  6  1  0  0  0  0
  5  7  1  0  0  0  0
  7  8  1  0  0  0  0
  7  9  1  0  0  0  0
  8 14  1  0  0  0  0
 10 14  1  0  0  0  0
 12 14  2  0  0  0  0
 13 14  2  0  0  0  0
  2 15  1  0  0  0  0
  2 16  1  0  0  0  0
  3 17  1  0  0  0  0
  3 18  1  0  0  0  0
  4 19  1  0  0  0  0
  4 20  1  0  0  0  0
  5 21  1  0  0  0  0
  5 22  1  0  0  0  0
  6 23  1  0  0  0  0
  8 24  1  0  0  0  0
  8 25  1  0  0  0  0
  9 26  1  0  0  0  0
 10 27  1  0  0  0  0
 10 28  1  0  0  0  0
M  END
> <id>
EN300-37104543

> <smiles>
NS(=O)(=O)CC1(CC2CCC1)NC2=O

> <IUPAC Name>
{7-oxo-6-azabicyclo[3.2.1]octan-5-yl}methanesulfonamide

> <CAS>
2757927-41-4

> <URL>
https://www.enaminestore.com/catalog/EN300-37104543

> <ROCS_ShapeQuery>
x0446_0A_x1080_0A_x0929_0A_x0812_0A_x0719_0A_x1140_0A_x0528_0A_x0310_0A

> <ROCS_TanimotoCombo>
0.410 

> <ROCS_ShapeTanimoto>
0.197 

> <ROCS_ColorTanimoto>
0.213 

> <ROCS_RefTversky>
0.181 

> <ROCS_RefColorTversky>
0.235 

> <ROCS_RefTverskyCombo>
0.416 

> <ROCS_FitTversky>
1.797 

> <ROCS_FitColorTversky>
0.691 

> <ROCS_FitTverskyCombo>
2.488 

> <ROCS_ColorScore>
-8.432

> <ROCS_Overlap>
2137.731

> <ROCS_Rank>
472                 

$$$$
untitled-dbase-349227_2
  -OEChem-02082415563D

 43 44  0     1  0  0  0  0  0999 V2000
    9.5489   14.8628   22.5207 C   0  0  0  0  0  0  0  0  0  0  0  0
   10.1365   12.8962   23.9706 C   0  0  0  0  0  0  0  0  0  0  0  0
    8.8552   12.6015   21.8229 C   0  0  0  0  0  0  0  0  0  0  0  0
    8.2491   11.9606   25.4096 C   0  0  0  0  0  0  0  0  0  0  0  0
    6.8048   11.6392   22.9990 C   0  0  0  0  0  0  0  0  0  0  0  0
    9.4644   11.6304   24.5295 C   0  0  1  0  0  0  0  0  0  0  0  0
    8.1894   11.3441   22.4036 C   0  0  2  0  0  0  0  0  0  0  0  0
    9.1136   10.6317   23.4103 C   0  0  0  0  0  0  0  0  0  0  0  0
   10.3728   10.0621   22.7381 C   0  0  0  0  0  0  0  0  0  0  0  0
   11.0245   17.2107   21.8144 C   0  0  0  0  0  0  0  0  0  0  0  0
   12.2338   16.8810   23.9911 C   0  0  0  0  0  0  0  0  0  0  0  0
   12.3860   15.1289   22.1981 C   0  0  0  0  0  0  0  0  0  0  0  0
   11.4965   16.1882   22.8472 C   0  0  0  0  0  0  0  0  0  0  0  0
    9.4463   13.4947   22.8210 N   0  0  0  0  0  0  0  0  0  0  0  0
    8.9895   15.4065   21.5699 O   0  0  0  0  0  0  0  0  0  0  0  0
    7.0069   13.9539   24.2291 O   0  0  0  0  0  0  0  0  0  0  0  0
    5.6472   12.1296   25.2867 O   0  0  0  0  0  0  0  0  0  0  0  0
    8.4348    9.5088   23.9847 O   0  0  0  0  0  0  0  0  0  0  0  0
   10.3476   15.5398   23.4045 O   0  0  0  0  0  0  0  0  0  0  0  0
    6.8139   12.5494   24.5317 S   0  0  0  0  0  0  0  0  0  0  0  0
   10.2487   13.6362   24.7702 H   0  0  0  0  0  0  0  0  0  0  0  0
   11.1521   12.6639   23.6288 H   0  0  0  0  0  0  0  0  0  0  0  0
    9.6702   12.3164   21.1469 H   0  0  0  0  0  0  0  0  0  0  0  0
    8.1374   13.1581   21.2093 H   0  0  0  0  0  0  0  0  0  0  0  0
    7.9302   11.0639   25.9535 H   0  0  0  0  0  0  0  0  0  0  0  0
    8.4984   12.7187   26.1597 H   0  0  0  0  0  0  0  0  0  0  0  0
    6.1843   12.2040   22.2947 H   0  0  0  0  0  0  0  0  0  0  0  0
    6.2827   10.6978   23.2051 H   0  0  0  0  0  0  0  0  0  0  0  0
   10.1886   11.1517   25.2038 H   0  0  0  0  0  0  0  0  0  0  0  0
    8.0038   10.6606   21.5629 H   0  0  0  0  0  0  0  0  0  0  0  0
   10.0804    9.3655   21.9585 H   0  0  0  0  0  0  0  0  0  0  0  0
   10.9744    9.5465   23.4801 H   0  0  0  0  0  0  0  0  0  0  0  0
   10.9473   10.8745   22.3039 H   0  0  0  0  0  0  0  0  0  0  0  0
   10.4948   16.7173   20.9916 H   0  0  0  0  0  0  0  0  0  0  0  0
   10.3576   17.9559   22.2601 H   0  0  0  0  0  0  0  0  0  0  0  0
   11.8762   17.7335   21.3643 H   0  0  0  0  0  0  0  0  0  0  0  0
   12.5742   16.1512   24.7346 H   0  0  0  0  0  0  0  0  0  0  0  0
   11.5698   17.5740   24.5205 H   0  0  0  0  0  0  0  0  0  0  0  0
   13.1032   17.4406   23.6312 H   0  0  0  0  0  0  0  0  0  0  0  0
   12.7246   14.3954   22.9388 H   0  0  0  0  0  0  0  0  0  0  0  0
   11.8608   14.5958   21.3990 H   0  0  0  0  0  0  0  0  0  0  0  0
   13.2901   15.5837   21.7776 H   0  0  0  0  0  0  0  0  0  0  0  0
    8.2348    8.9109   23.2505 H   0  0  0  0  0  0  0  0  0  0  0  0
  1 14  1  0  0  0  0
  1 15  2  0  0  0  0
  1 19  1  0  0  0  0
  2  6  1  6  0  0  0
  2 14  1  0  0  0  0
  3  7  1  0  0  0  0
  3 14  1  0  0  0  0
  4  6  1  0  0  0  0
  4 20  1  0  0  0  0
  5  7  1  6  0  0  0
  5 20  1  0  0  0  0
  6  8  1  0  0  0  0
  7  8  1  0  0  0  0
  8  9  1  0  0  0  0
  8 18  1  1  0  0  0
 10 13  1  0  0  0  0
 11 13  1  0  0  0  0
 12 13  1  0  0  0  0
 13 19  1  0  0  0  0
 16 20  2  0  0  0  0
 17 20  2  0  0  0  0
  2 21  1  0  0  0  0
  2 22  1  0  0  0  0
  3 23  1  0  0  0  0
  3 24  1  0  0  0  0
  4 25  1  0  0  0  0
  4 26  1  0  0  0  0
  5 27  1  0  0  0  0
  5 28  1  0  0  0  0
  6 29  1  0  0  0  0
  7 30  1  0  0  0  0
  9 31  1  0  0  0  0
  9 32  1  0  0  0  0
  9 33  1  0  0  0  0
 10 34  1  0  0  0  0
 10 35  1  0  0  0  0
 10 36  1  0  0  0  0
 11 37  1  0  0  0  0
 11 38  1  0  0  0  0
 11 39  1  0  0  0  0
 12 40  1  0  0  0  0
 12 41  1  0  0  0  0
 12 42  1  0  0  0  0
 18 43  1  0  0  0  0
M  END
> <id>
EN300-26665825

> <smiles>
CC(C)(C)OC(=O)N1C[C@H]2CS(=O)(=O)C[C@@H](C1)[C@]2(C)O

> <IUPAC Name>
tert-butyl (1R,5S,9s)-9-hydroxy-9-methyl-3,3-dioxo-3lambda6-thia-7-azabicyclo[3.3.1]nonane-7-carboxylate

> <CAS>
2413847-68-2

> <URL>
https://www.enaminestore.com/catalog/EN300-26665825

> <ROCS_ShapeQuery>
x0446_0A_x1080_0A_x0929_0A_x0812_0A_x0719_0A_x1140_0A_x0528_0A_x0310_0A

> <ROCS_TanimotoCombo>
0.410 

> <ROCS_ShapeTanimoto>
0.236 

> <ROCS_ColorTanimoto>
0.174 

> <ROCS_RefTversky>
0.214 

> <ROCS_RefColorTversky>
0.189 

> <ROCS_RefTverskyCombo>
0.403 

> <ROCS_FitTversky>
1.755 

> <ROCS_FitColorTversky>
0.693 

> <ROCS_FitTverskyCombo>
2.448 

> <ROCS_ColorScore>
-6.747

> <ROCS_Overlap>
2525.863

> <ROCS_Rank>
473                 

$$$$
untitled-dbase-254207_3
  -OEChem-02082415563D

123128  0     1  0  0  0  0  0999 V2000
    7.9640   12.6455   24.3782 C   0  0  0  0  0  0  0  0  0  0  0  0
    7.1162   13.6186   24.8958 C   0  0  0  0  0  0  0  0  0  0  0  0
    7.5896   11.3062   24.5509 C   0  0  0  0  0  0  0  0  0  0  0  0
    5.6122   11.9640   25.8116 C   0  0  0  0  0  0  0  0  0  0  0  0
    5.9647   13.2798   25.5880 C   0  0  0  0  0  0  0  0  0  0  0  0
    6.4276   10.9699   25.2771 C   0  0  0  0  0  0  0  0  0  0  0  0
   11.0013    8.6531   18.9522 C   0  0  0  0  0  0  0  0  0  0  0  0
   11.3940    7.6952   19.9603 C   0  0  0  0  0  0  0  0  0  0  0  0
    9.7479    9.0298   18.6498 C   0  0  0  0  0  0  0  0  0  0  0  0
    2.9649   15.3290   23.2894 C   0  0  0  0  0  0  0  0  0  0  0  0
    3.6952   15.7921   24.3108 C   0  0  0  0  0  0  0  0  0  0  0  0
    9.1987   12.9303   23.6472 C   0  0  0  0  0  0  0  0  0  0  0  0
    8.3759   10.2070   23.9506 C   0  0  0  0  0  0  0  0  0  0  0  0
    7.0811   15.0701   24.8461 C   0  0  0  0  0  0  0  0  0  0  0  0
   11.5199    7.9357   21.2762 C   0  0  0  0  0  0  0  0  0  0  0  0
    9.9599   11.8097   23.0208 C   0  0  0  0  0  0  0  0  0  0  0  0
    9.5852   10.5317   23.1311 C   0  0  0  0  0  0  0  0  0  0  0  0
   11.3144    9.3262   21.7763 C   0  0  0  0  0  0  0  0  0  0  0  0
    4.2663   14.9092   18.6382 C   0  0  0  0  0  0  0  0  0  0  0  0
   12.1647   14.3186   23.4693 C   0  0  0  0  0  0  0  0  0  0  0  0
   10.8154   14.6349   21.3278 C   0  0  0  0  0  0  0  0  0  0  0  0
   13.2812   14.8310   22.5601 C   0  0  0  0  0  0  0  0  0  0  0  0
   11.4356   16.0285   21.4469 C   0  0  0  0  0  0  0  0  0  0  0  0
    8.4606    8.5087   19.2523 C   0  0  1  0  0  0  0  0  0  0  0  0
    3.4921   14.9800   21.9205 C   0  0  1  0  0  0  0  0  0  0  0  0
    4.4146   13.7236   21.8389 C   0  0  2  0  0  0  0  0  0  0  0  0
    7.0837   10.6918   18.4646 C   0  0  2  0  0  0  0  0  0  0  0  0
    5.9909   12.3803   20.2110 C   0  0  1  0  0  0  0  0  0  0  0  0
    7.3951    9.6105   19.5477 C   0  0  1  0  0  0  0  0  0  0  0  0
    4.7945   13.3821   20.3645 C   0  0  2  0  0  0  0  0  0  0  0  0
    5.9081   11.6545   18.8368 C   0  0  2  0  0  0  0  0  0  0  0  0
    5.7469   15.5138   25.4062 C   0  0  2  0  0  0  0  0  0  0  0  0
   10.9380   13.8715   22.6562 C   0  0  0  0  0  0  0  0  0  0  0  0
    4.3820   11.6255   26.5828 C   0  0  0  0  0  0  0  0  0  0  0  0
   11.9430    6.9070   22.2764 C   0  0  0  0  0  0  0  0  0  0  0  0
    4.7083   16.1945   18.0068 C   0  0  0  0  0  0  0  0  0  0  0  0
    7.9448    7.3223   18.4231 C   0  0  0  0  0  0  0  0  0  0  0  0
    3.7727   12.4980   22.5116 C   0  0  0  0  0  0  0  0  0  0  0  0
    6.8038   10.1004   17.0727 C   0  0  0  0  0  0  0  0  0  0  0  0
    7.3348   13.0952   20.3945 C   0  0  0  0  0  0  0  0  0  0  0  0
    5.9200   16.6097   26.4469 C   0  0  0  0  0  0  0  0  0  0  0  0
   15.0064   17.5575   20.3303 C   0  0  0  0  0  0  0  0  0  0  0  0
   15.3686   18.7743   22.5012 C   0  0  0  0  0  0  0  0  0  0  0  0
    1.9026   16.0942   20.5977 C   0  0  0  0  0  0  0  0  0  0  0  0
   13.3611   17.2396   22.2445 C   0  0  0  0  0  0  0  0  0  0  0  0
   14.8180   17.5062   21.8472 C   0  0  0  0  0  0  0  0  0  0  0  0
    9.7155   14.1231   23.4787 N   0  0  0  0  0  0  0  0  0  0  0  0
   10.1791    9.4206   22.5607 N   0  0  0  0  0  0  0  0  0  0  0  0
   10.9843   12.4491   22.4019 N   0  0  0  0  0  0  0  0  0  0  0  0
   12.8796   15.9655   21.7167 N   0  0  0  0  0  0  0  0  0  0  0  0
    8.0294    9.0410   24.1196 O   0  0  0  0  0  0  0  0  0  0  0  0
    7.9394   15.8053   24.3983 O   0  0  0  0  0  0  0  0  0  0  0  0
   12.1104   10.2029   21.4636 O   0  0  0  0  0  0  0  0  0  0  0  0
    3.2973   14.2610   18.2667 O   0  0  0  0  0  0  0  0  0  0  0  0
    5.1953   14.3281   26.0190 O   0  0  0  0  0  0  0  0  0  0  0  0
    5.0444   15.9974   24.2503 O   0  0  0  0  0  0  0  0  0  0  0  0
    6.0352    9.6694   25.4386 O   0  0  0  0  0  0  0  0  0  0  0  0
    6.1940    8.9800   19.9984 O   0  0  0  0  0  0  0  0  0  0  0  0
    4.6685   10.9360   18.8072 O   0  0  0  0  0  0  0  0  0  0  0  0
    5.1031   14.5935   19.6685 O   0  0  0  0  0  0  0  0  0  0  0  0
    2.3762   14.8328   21.0368 O   0  0  0  0  0  0  0  0  0  0  0  0
   11.8011    9.0211   18.3577 H   0  0  0  0  0  0  0  0  0  0  0  0
   11.6572    6.7448   19.5711 H   0  0  0  0  0  0  0  0  0  0  0  0
    9.6500    9.7513   17.8646 H   0  0  0  0  0  0  0  0  0  0  0  0
    1.8902   15.2094   23.4449 H   0  0  0  0  0  0  0  0  0  0  0  0
    3.2381   16.0516   25.2609 H   0  0  0  0  0  0  0  0  0  0  0  0
   12.5454   13.4724   24.0541 H   0  0  0  0  0  0  0  0  0  0  0  0
   11.8889   15.1070   24.1783 H   0  0  0  0  0  0  0  0  0  0  0  0
    9.7681   14.7337   21.0358 H   0  0  0  0  0  0  0  0  0  0  0  0
   11.3330   14.0847   20.5374 H   0  0  0  0  0  0  0  0  0  0  0  0
   14.1684   15.0962   23.1706 H   0  0  0  0  0  0  0  0  0  0  0  0
   13.6049   13.9911   21.9149 H   0  0  0  0  0  0  0  0  0  0  0  0
   11.2611   16.5592   20.4994 H   0  0  0  0  0  0  0  0  0  0  0  0
   10.9169   16.6038   22.2297 H   0  0  0  0  0  0  0  0  0  0  0  0
    8.7154    8.0553   20.2305 H   0  0  0  0  0  0  0  0  0  0  0  0
    4.0831   15.8491   21.5267 H   0  0  0  0  0  0  0  0  0  0  0  0
    5.3407   13.9555   22.3840 H   0  0  0  0  0  0  0  0  0  0  0  0
    7.9488   11.3068   18.3923 H   0  0  0  0  0  0  0  0  0  0  0  0
    5.8970   11.6169   20.9684 H   0  0  0  0  0  0  0  0  0  0  0  0
    7.7722   10.1685   20.3979 H   0  0  0  0  0  0  0  0  0  0  0  0
    3.9068   12.9569   19.8875 H   0  0  0  0  0  0  0  0  0  0  0  0
    5.8283   12.4306   18.0663 H   0  0  0  0  0  0  0  0  0  0  0  0
    3.5210   11.5368   25.9090 H   0  0  0  0  0  0  0  0  0  0  0  0
    4.4992   10.6778   27.1242 H   0  0  0  0  0  0  0  0  0  0  0  0
    4.1587   12.3947   27.3335 H   0  0  0  0  0  0  0  0  0  0  0  0
   13.0257    6.9231   22.3763 H   0  0  0  0  0  0  0  0  0  0  0  0
   11.6214    5.9230   21.9427 H   0  0  0  0  0  0  0  0  0  0  0  0
   11.4840    7.1262   23.2377 H   0  0  0  0  0  0  0  0  0  0  0  0
    4.2177   17.0377   18.4993 H   0  0  0  0  0  0  0  0  0  0  0  0
    4.4751   16.1827   16.9391 H   0  0  0  0  0  0  0  0  0  0  0  0
    5.7904   16.3032   18.1250 H   0  0  0  0  0  0  0  0  0  0  0  0
    7.6627    7.6630   17.4285 H   0  0  0  0  0  0  0  0  0  0  0  0
    7.0760    6.8828   18.9098 H   0  0  0  0  0  0  0  0  0  0  0  0
    8.7246    6.5680   18.3346 H   0  0  0  0  0  0  0  0  0  0  0  0
    2.8546   12.2469   21.9922 H   0  0  0  0  0  0  0  0  0  0  0  0
    3.5554   12.7337   23.5475 H   0  0  0  0  0  0  0  0  0  0  0  0
    4.4626   11.6628   22.4621 H   0  0  0  0  0  0  0  0  0  0  0  0
    5.9219    9.4647   17.1148 H   0  0  0  0  0  0  0  0  0  0  0  0
    7.6569    9.5088   16.7473 H   0  0  0  0  0  0  0  0  0  0  0  0
    6.6324   10.9046   16.3602 H   0  0  0  0  0  0  0  0  0  0  0  0
    7.4354   13.8638   19.6362 H   0  0  0  0  0  0  0  0  0  0  0  0
    8.1381   12.3738   20.2946 H   0  0  0  0  0  0  0  0  0  0  0  0
    7.3664   13.5458   21.3803 H   0  0  0  0  0  0  0  0  0  0  0  0
    4.9475   16.9133   26.8359 H   0  0  0  0  0  0  0  0  0  0  0  0
    6.4070   17.4769   25.9996 H   0  0  0  0  0  0  0  0  0  0  0  0
    6.5330   16.2478   27.2730 H   0  0  0  0  0  0  0  0  0  0  0  0
   14.4432   18.3796   19.8770 H   0  0  0  0  0  0  0  0  0  0  0  0
   16.0630   17.7020   20.0798 H   0  0  0  0  0  0  0  0  0  0  0  0
   14.6791   16.6215   19.8657 H   0  0  0  0  0  0  0  0  0  0  0  0
   14.8245   19.6674   22.1767 H   0  0  0  0  0  0  0  0  0  0  0  0
   16.4236   18.9141   22.2419 H   0  0  0  0  0  0  0  0  0  0  0  0
   15.2994   18.7104   23.5923 H   0  0  0  0  0  0  0  0  0  0  0  0
    1.0526   15.9515   19.9260 H   0  0  0  0  0  0  0  0  0  0  0  0
    2.7050   16.6254   20.0795 H   0  0  0  0  0  0  0  0  0  0  0  0
    1.5844   16.6763   21.4658 H   0  0  0  0  0  0  0  0  0  0  0  0
   13.2546   17.2256   23.3346 H   0  0  0  0  0  0  0  0  0  0  0  0
   12.7142   18.0350   21.8582 H   0  0  0  0  0  0  0  0  0  0  0  0
   15.4111   16.6608   22.2202 H   0  0  0  0  0  0  0  0  0  0  0  0
    9.6965    8.5190   22.7522 H   0  0  0  0  0  0  0  0  0  0  0  0
   11.7290   11.9621   21.9081 H   0  0  0  0  0  0  0  0  0  0  0  0
    6.6600    9.0778   24.9936 H   0  0  0  0  0  0  0  0  0  0  0  0
    6.4303    8.4927   20.8005 H   0  0  0  0  0  0  0  0  0  0  0  0
    4.5691   10.6017   17.9036 H   0  0  0  0  0  0  0  0  0  0  0  0
  1  2  2  0  0  0  0
  1  3  1  0  0  0  0
  1 12  1  0  0  0  0
  2  5  1  0  0  0  0
  2 14  1  0  0  0  0
  3  6  2  0  0  0  0
  3 13  1  0  0  0  0
  4  5  2  0  0  0  0
  4  6  1  0  0  0  0
  4 34  1  0  0  0  0
  5 55  1  0  0  0  0
  6 57  1  0  0  0  0
  7  8  1  0  0  0  0
  7  9  2  0  0  0  0
  8 15  2  0  0  0  0
  9 24  1  0  0  0  0
 10 11  2  0  0  0  0
 10 25  1  0  0  0  0
 11 56  1  0  0  0  0
 12 16  1  0  0  0  0
 12 47  2  0  0  0  0
 13 17  1  0  0  0  0
 13 51  2  0  0  0  0
 14 32  1  0  0  0  0
 14 52  2  0  0  0  0
 15 18  1  0  0  0  0
 15 35  1  0  0  0  0
 16 17  2  0  0  0  0
 16 49  1  0  0  0  0
 17 48  1  0  0  0  0
 18 48  1  0  0  0  0
 18 53  2  0  0  0  0
 19 36  1  0  0  0  0
 19 54  2  0  0  0  0
 19 60  1  0  0  0  0
 20 22  1  0  0  0  0
 20 33  1  0  0  0  0
 21 23  1  0  0  0  0
 21 33  1  0  0  0  0
 22 50  1  0  0  0  0
 23 50  1  0  0  0  0
 24 29  1  0  0  0  0
 24 37  1  6  0  0  0
 25 26  1  0  0  0  0
 25 61  1  1  0  0  0
 26 30  1  0  0  0  0
 26 38  1  6  0  0  0
 27 29  1  0  0  0  0
 27 31  1  0  0  0  0
 27 39  1  1  0  0  0
 28 30  1  0  0  0  0
 28 31  1  0  0  0  0
 28 40  1  1  0  0  0
 29 58  1  6  0  0  0
 30 60  1  6  0  0  0
 31 59  1  1  0  0  0
 32 41  1  1  0  0  0
 32 55  1  0  0  0  0
 32 56  1  0  0  0  0
 33 47  1  0  0  0  0
 33 49  1  0  0  0  0
 42 46  1  0  0  0  0
 43 46  1  0  0  0  0
 44 61  1  0  0  0  0
 45 46  1  0  0  0  0
 45 50  1  0  0  0  0
  7 62  1  0  0  0  0
  8 63  1  0  0  0  0
  9 64  1  0  0  0  0
 10 65  1  0  0  0  0
 11 66  1  0  0  0  0
 20 67  1  0  0  0  0
 20 68  1  0  0  0  0
 21 69  1  0  0  0  0
 21 70  1  0  0  0  0
 22 71  1  0  0  0  0
 22 72  1  0  0  0  0
 23 73  1  0  0  0  0
 23 74  1  0  0  0  0
 24 75  1  0  0  0  0
 25 76  1  0  0  0  0
 26 77  1  0  0  0  0
 27 78  1  0  0  0  0
 28 79  1  0  0  0  0
 29 80  1  0  0  0  0
 30 81  1  0  0  0  0
 31 82  1  0  0  0  0
 34 83  1  0  0  0  0
 34 84  1  0  0  0  0
 34 85  1  0  0  0  0
 35 86  1  0  0  0  0
 35 87  1  0  0  0  0
 35 88  1  0  0  0  0
 36 89  1  0  0  0  0
 36 90  1  0  0  0  0
 36 91  1  0  0  0  0
 37 92  1  0  0  0  0
 37 93  1  0  0  0  0
 37 94  1  0  0  0  0
 38 95  1  0  0  0  0
 38 96  1  0  0  0  0
 38 97  1  0  0  0  0
 39 98  1  0  0  0  0
 39 99  1  0  0  0  0
 39100  1  0  0  0  0
 40101  1  0  0  0  0
 40102  1  0  0  0  0
 40103  1  0  0  0  0
 41104  1  0  0  0  0
 41105  1  0  0  0  0
 41106  1  0  0  0  0
 42107  1  0  0  0  0
 42108  1  0  0  0  0
 42109  1  0  0  0  0
 43110  1  0  0  0  0
 43111  1  0  0  0  0
 43112  1  0  0  0  0
 44113  1  0  0  0  0
 44114  1  0  0  0  0
 44115  1  0  0  0  0
 45116  1  0  0  0  0
 45117  1  0  0  0  0
 46118  1  0  0  0  0
 48119  1  0  0  0  0
 49120  1  0  0  0  0
 57121  1  0  0  0  0
 58122  1  0  0  0  0
 59123  1  0  0  0  0
M  END
> <id>
EN300-21992155

> <smiles>
CO[C@H]1/C=C\O[C@@]2(C)OC=3C(C2=O)=C4C5=NC6(CCN(CC(C)C)CC6)NC5=C(NC(=O)\C(=C/C=C\[C@H](C)[C@H](O)[C@@H](C)[C@@H](O)[C@@H](C)[C@H](OC(=O)C)[C@@H]1C)\C)C(=O)C4=C(O)C3C

> <MDLNUMBER>
MFCD00866816

> <IUPAC Name>
(7S,11S,12R,13S,14R,15R,16R,17S,18S,19Z,21Z)-2,15,17-trihydroxy-11-methoxy-3,7,12,14,16,18,22-heptamethyl-1'-(2-methylpropyl)-6,23,32-trioxo-8,33-dioxa-24,27,29-triazaspiro[pentacyclo[23.6.1.1^{4,7}.0^{5,31}.0^{26,30}]tritriacontane-28,4'-piperidin]-1,3,5(31),9,19,21,25,29-octaen-13-yl acetate

> <CAS>
1820583-66-1

> <URL>
https://www.enaminestore.com/catalog/EN300-21992155

> <ROCS_ShapeQuery>
x0446_0A_x1080_0A_x0929_0A_x0812_0A_x0719_0A_x1140_0A_x0528_0A_x0310_0A

> <ROCS_TanimotoCombo>
0.410 

> <ROCS_ShapeTanimoto>
0.292 

> <ROCS_ColorTanimoto>
0.118 

> <ROCS_RefTversky>
0.288 

> <ROCS_RefColorTversky>
0.177 

> <ROCS_RefTverskyCombo>
0.464 

> <ROCS_FitTversky>
1.057 

> <ROCS_FitColorTversky>
0.261 

> <ROCS_FitTverskyCombo>
1.318 

> <ROCS_ColorScore>
-6.453

> <ROCS_Overlap>
3421.988

> <ROCS_Rank>
474                 

$$$$
untitled-dbase-80864_3
  -OEChem-02082415563D

123128  0     1  0  0  0  0  0999 V2000
    7.9640   12.6455   24.3782 C   0  0  0  0  0  0  0  0  0  0  0  0
    7.1162   13.6186   24.8958 C   0  0  0  0  0  0  0  0  0  0  0  0
    7.5896   11.3062   24.5509 C   0  0  0  0  0  0  0  0  0  0  0  0
    5.6122   11.9640   25.8116 C   0  0  0  0  0  0  0  0  0  0  0  0
    5.9647   13.2798   25.5880 C   0  0  0  0  0  0  0  0  0  0  0  0
    6.4276   10.9699   25.2771 C   0  0  0  0  0  0  0  0  0  0  0  0
   11.0013    8.6531   18.9522 C   0  0  0  0  0  0  0  0  0  0  0  0
   11.3940    7.6952   19.9603 C   0  0  0  0  0  0  0  0  0  0  0  0
    9.7479    9.0298   18.6498 C   0  0  0  0  0  0  0  0  0  0  0  0
    2.9649   15.3290   23.2894 C   0  0  0  0  0  0  0  0  0  0  0  0
    3.6952   15.7921   24.3108 C   0  0  0  0  0  0  0  0  0  0  0  0
    9.1987   12.9303   23.6472 C   0  0  0  0  0  0  0  0  0  0  0  0
    8.3759   10.2070   23.9506 C   0  0  0  0  0  0  0  0  0  0  0  0
    7.0811   15.0701   24.8461 C   0  0  0  0  0  0  0  0  0  0  0  0
   11.5199    7.9357   21.2762 C   0  0  0  0  0  0  0  0  0  0  0  0
    9.9599   11.8097   23.0208 C   0  0  0  0  0  0  0  0  0  0  0  0
    9.5852   10.5317   23.1311 C   0  0  0  0  0  0  0  0  0  0  0  0
   11.3144    9.3262   21.7763 C   0  0  0  0  0  0  0  0  0  0  0  0
    4.2663   14.9092   18.6382 C   0  0  0  0  0  0  0  0  0  0  0  0
   12.1647   14.3186   23.4693 C   0  0  0  0  0  0  0  0  0  0  0  0
   10.8154   14.6349   21.3278 C   0  0  0  0  0  0  0  0  0  0  0  0
   13.2812   14.8310   22.5601 C   0  0  0  0  0  0  0  0  0  0  0  0
   11.4356   16.0285   21.4469 C   0  0  0  0  0  0  0  0  0  0  0  0
    8.4606    8.5087   19.2523 C   0  0  1  0  0  0  0  0  0  0  0  0
    3.4921   14.9800   21.9205 C   0  0  1  0  0  0  0  0  0  0  0  0
    4.4146   13.7236   21.8389 C   0  0  2  0  0  0  0  0  0  0  0  0
    7.0837   10.6918   18.4646 C   0  0  2  0  0  0  0  0  0  0  0  0
    5.9909   12.3803   20.2110 C   0  0  1  0  0  0  0  0  0  0  0  0
    7.3951    9.6105   19.5477 C   0  0  1  0  0  0  0  0  0  0  0  0
    4.7945   13.3821   20.3645 C   0  0  2  0  0  0  0  0  0  0  0  0
    5.9081   11.6545   18.8368 C   0  0  2  0  0  0  0  0  0  0  0  0
    5.7469   15.5138   25.4062 C   0  0  2  0  0  0  0  0  0  0  0  0
   10.9380   13.8715   22.6562 C   0  0  0  0  0  0  0  0  0  0  0  0
    4.3820   11.6255   26.5828 C   0  0  0  0  0  0  0  0  0  0  0  0
   11.9430    6.9070   22.2764 C   0  0  0  0  0  0  0  0  0  0  0  0
    4.7083   16.1945   18.0068 C   0  0  0  0  0  0  0  0  0  0  0  0
    7.9448    7.3223   18.4231 C   0  0  0  0  0  0  0  0  0  0  0  0
    3.7727   12.4980   22.5116 C   0  0  0  0  0  0  0  0  0  0  0  0
    6.8038   10.1004   17.0727 C   0  0  0  0  0  0  0  0  0  0  0  0
    7.3348   13.0952   20.3945 C   0  0  0  0  0  0  0  0  0  0  0  0
    5.9200   16.6097   26.4469 C   0  0  0  0  0  0  0  0  0  0  0  0
   15.0064   17.5575   20.3303 C   0  0  0  0  0  0  0  0  0  0  0  0
   15.3686   18.7743   22.5012 C   0  0  0  0  0  0  0  0  0  0  0  0
    1.9026   16.0942   20.5977 C   0  0  0  0  0  0  0  0  0  0  0  0
   13.3611   17.2396   22.2445 C   0  0  0  0  0  0  0  0  0  0  0  0
   14.8180   17.5062   21.8472 C   0  0  0  0  0  0  0  0  0  0  0  0
    9.7155   14.1231   23.4787 N   0  0  0  0  0  0  0  0  0  0  0  0
   10.1791    9.4206   22.5607 N   0  0  0  0  0  0  0  0  0  0  0  0
   10.9843   12.4491   22.4019 N   0  0  0  0  0  0  0  0  0  0  0  0
   12.8796   15.9655   21.7167 N   0  0  0  0  0  0  0  0  0  0  0  0
    8.0294    9.0410   24.1196 O   0  0  0  0  0  0  0  0  0  0  0  0
    7.9394   15.8053   24.3983 O   0  0  0  0  0  0  0  0  0  0  0  0
   12.1104   10.2029   21.4636 O   0  0  0  0  0  0  0  0  0  0  0  0
    3.2973   14.2610   18.2667 O   0  0  0  0  0  0  0  0  0  0  0  0
    5.1953   14.3281   26.0190 O   0  0  0  0  0  0  0  0  0  0  0  0
    5.0444   15.9974   24.2503 O   0  0  0  0  0  0  0  0  0  0  0  0
    6.0352    9.6694   25.4386 O   0  0  0  0  0  0  0  0  0  0  0  0
    6.1940    8.9800   19.9984 O   0  0  0  0  0  0  0  0  0  0  0  0
    4.6685   10.9360   18.8072 O   0  0  0  0  0  0  0  0  0  0  0  0
    5.1031   14.5935   19.6685 O   0  0  0  0  0  0  0  0  0  0  0  0
    2.3762   14.8328   21.0368 O   0  0  0  0  0  0  0  0  0  0  0  0
   11.8011    9.0211   18.3577 H   0  0  0  0  0  0  0  0  0  0  0  0
   11.6572    6.7448   19.5711 H   0  0  0  0  0  0  0  0  0  0  0  0
    9.6500    9.7513   17.8646 H   0  0  0  0  0  0  0  0  0  0  0  0
    1.8902   15.2094   23.4449 H   0  0  0  0  0  0  0  0  0  0  0  0
    3.2381   16.0516   25.2609 H   0  0  0  0  0  0  0  0  0  0  0  0
   12.5454   13.4724   24.0541 H   0  0  0  0  0  0  0  0  0  0  0  0
   11.8889   15.1070   24.1783 H   0  0  0  0  0  0  0  0  0  0  0  0
    9.7681   14.7337   21.0358 H   0  0  0  0  0  0  0  0  0  0  0  0
   11.3330   14.0847   20.5374 H   0  0  0  0  0  0  0  0  0  0  0  0
   14.1684   15.0962   23.1706 H   0  0  0  0  0  0  0  0  0  0  0  0
   13.6049   13.9911   21.9149 H   0  0  0  0  0  0  0  0  0  0  0  0
   11.2611   16.5592   20.4994 H   0  0  0  0  0  0  0  0  0  0  0  0
   10.9169   16.6038   22.2297 H   0  0  0  0  0  0  0  0  0  0  0  0
    8.7154    8.0553   20.2305 H   0  0  0  0  0  0  0  0  0  0  0  0
    4.0831   15.8491   21.5267 H   0  0  0  0  0  0  0  0  0  0  0  0
    5.3407   13.9555   22.3840 H   0  0  0  0  0  0  0  0  0  0  0  0
    7.9488   11.3068   18.3923 H   0  0  0  0  0  0  0  0  0  0  0  0
    5.8970   11.6169   20.9684 H   0  0  0  0  0  0  0  0  0  0  0  0
    7.7722   10.1685   20.3979 H   0  0  0  0  0  0  0  0  0  0  0  0
    3.9068   12.9569   19.8875 H   0  0  0  0  0  0  0  0  0  0  0  0
    5.8283   12.4306   18.0663 H   0  0  0  0  0  0  0  0  0  0  0  0
    3.5210   11.5368   25.9090 H   0  0  0  0  0  0  0  0  0  0  0  0
    4.4992   10.6778   27.1242 H   0  0  0  0  0  0  0  0  0  0  0  0
    4.1587   12.3947   27.3335 H   0  0  0  0  0  0  0  0  0  0  0  0
   13.0257    6.9231   22.3763 H   0  0  0  0  0  0  0  0  0  0  0  0
   11.6214    5.9230   21.9427 H   0  0  0  0  0  0  0  0  0  0  0  0
   11.4840    7.1262   23.2377 H   0  0  0  0  0  0  0  0  0  0  0  0
    4.2177   17.0377   18.4993 H   0  0  0  0  0  0  0  0  0  0  0  0
    4.4751   16.1827   16.9391 H   0  0  0  0  0  0  0  0  0  0  0  0
    5.7904   16.3032   18.1250 H   0  0  0  0  0  0  0  0  0  0  0  0
    7.6627    7.6630   17.4285 H   0  0  0  0  0  0  0  0  0  0  0  0
    7.0760    6.8828   18.9098 H   0  0  0  0  0  0  0  0  0  0  0  0
    8.7246    6.5680   18.3346 H   0  0  0  0  0  0  0  0  0  0  0  0
    2.8546   12.2469   21.9922 H   0  0  0  0  0  0  0  0  0  0  0  0
    3.5554   12.7337   23.5475 H   0  0  0  0  0  0  0  0  0  0  0  0
    4.4626   11.6628   22.4621 H   0  0  0  0  0  0  0  0  0  0  0  0
    5.9219    9.4647   17.1148 H   0  0  0  0  0  0  0  0  0  0  0  0
    7.6569    9.5088   16.7473 H   0  0  0  0  0  0  0  0  0  0  0  0
    6.6324   10.9046   16.3602 H   0  0  0  0  0  0  0  0  0  0  0  0
    7.4354   13.8638   19.6362 H   0  0  0  0  0  0  0  0  0  0  0  0
    8.1381   12.3738   20.2946 H   0  0  0  0  0  0  0  0  0  0  0  0
    7.3664   13.5458   21.3803 H   0  0  0  0  0  0  0  0  0  0  0  0
    4.9475   16.9133   26.8359 H   0  0  0  0  0  0  0  0  0  0  0  0
    6.4070   17.4769   25.9996 H   0  0  0  0  0  0  0  0  0  0  0  0
    6.5330   16.2478   27.2730 H   0  0  0  0  0  0  0  0  0  0  0  0
   14.4432   18.3796   19.8770 H   0  0  0  0  0  0  0  0  0  0  0  0
   16.0630   17.7020   20.0798 H   0  0  0  0  0  0  0  0  0  0  0  0
   14.6791   16.6215   19.8657 H   0  0  0  0  0  0  0  0  0  0  0  0
   14.8245   19.6674   22.1767 H   0  0  0  0  0  0  0  0  0  0  0  0
   16.4236   18.9141   22.2419 H   0  0  0  0  0  0  0  0  0  0  0  0
   15.2994   18.7104   23.5923 H   0  0  0  0  0  0  0  0  0  0  0  0
    1.0526   15.9515   19.9260 H   0  0  0  0  0  0  0  0  0  0  0  0
    2.7050   16.6254   20.0795 H   0  0  0  0  0  0  0  0  0  0  0  0
    1.5844   16.6763   21.4658 H   0  0  0  0  0  0  0  0  0  0  0  0
   13.2546   17.2256   23.3346 H   0  0  0  0  0  0  0  0  0  0  0  0
   12.7142   18.0350   21.8582 H   0  0  0  0  0  0  0  0  0  0  0  0
   15.4111   16.6608   22.2202 H   0  0  0  0  0  0  0  0  0  0  0  0
    9.6965    8.5190   22.7522 H   0  0  0  0  0  0  0  0  0  0  0  0
   11.7290   11.9621   21.9081 H   0  0  0  0  0  0  0  0  0  0  0  0
    6.6600    9.0778   24.9936 H   0  0  0  0  0  0  0  0  0  0  0  0
    6.4303    8.4927   20.8005 H   0  0  0  0  0  0  0  0  0  0  0  0
    4.5691   10.6017   17.9036 H   0  0  0  0  0  0  0  0  0  0  0  0
  1  2  2  0  0  0  0
  1  3  1  0  0  0  0
  1 12  1  0  0  0  0
  2  5  1  0  0  0  0
  2 14  1  0  0  0  0
  3  6  2  0  0  0  0
  3 13  1  0  0  0  0
  4  5  2  0  0  0  0
  4  6  1  0  0  0  0
  4 34  1  0  0  0  0
  5 55  1  0  0  0  0
  6 57  1  0  0  0  0
  7  8  1  0  0  0  0
  7  9  2  0  0  0  0
  8 15  2  0  0  0  0
  9 24  1  0  0  0  0
 10 11  2  0  0  0  0
 10 25  1  0  0  0  0
 11 56  1  4  0  0  0
 12 16  1  0  0  0  0
 12 47  2  0  0  0  0
 13 17  1  0  0  0  0
 13 51  2  0  0  0  0
 14 32  1  0  0  0  0
 14 52  2  0  0  0  0
 15 18  1  0  0  0  0
 15 35  1  0  0  0  0
 16 17  2  0  0  0  0
 16 49  1  0  0  0  0
 17 48  1  0  0  0  0
 18 48  1  0  0  0  0
 18 53  2  0  0  0  0
 19 36  1  0  0  0  0
 19 54  2  0  0  0  0
 19 60  1  0  0  0  0
 20 22  1  0  0  0  0
 20 33  1  0  0  0  0
 21 23  1  0  0  0  0
 21 33  1  0  0  0  0
 22 50  1  0  0  0  0
 23 50  1  0  0  0  0
 24 29  1  0  0  0  0
 24 37  1  6  0  0  0
 25 26  1  0  0  0  0
 25 61  1  1  0  0  0
 26 30  1  0  0  0  0
 26 38  1  6  0  0  0
 27 29  1  0  0  0  0
 27 31  1  0  0  0  0
 27 39  1  1  0  0  0
 28 30  1  0  0  0  0
 28 31  1  0  0  0  0
 28 40  1  1  0  0  0
 29 58  1  6  0  0  0
 30 60  1  6  0  0  0
 31 59  1  1  0  0  0
 32 41  1  1  0  0  0
 32 55  1  0  0  0  0
 32 56  1  0  0  0  0
 33 47  1  0  0  0  0
 33 49  1  0  0  0  0
 42 46  1  0  0  0  0
 43 46  1  0  0  0  0
 44 61  1  0  0  0  0
 45 46  1  0  0  0  0
 45 50  1  0  0  0  0
  7 62  1  0  0  0  0
  8 63  1  0  0  0  0
  9 64  1  0  0  0  0
 10 65  1  0  0  0  0
 11 66  1  0  0  0  0
 20 67  1  0  0  0  0
 20 68  1  0  0  0  0
 21 69  1  0  0  0  0
 21 70  1  0  0  0  0
 22 71  1  0  0  0  0
 22 72  1  0  0  0  0
 23 73  1  0  0  0  0
 23 74  1  0  0  0  0
 24 75  1  0  0  0  0
 25 76  1  0  0  0  0
 26 77  1  0  0  0  0
 27 78  1  0  0  0  0
 28 79  1  0  0  0  0
 29 80  1  0  0  0  0
 30 81  1  0  0  0  0
 31 82  1  0  0  0  0
 34 83  1  0  0  0  0
 34 84  1  0  0  0  0
 34 85  1  0  0  0  0
 35 86  1  0  0  0  0
 35 87  1  0  0  0  0
 35 88  1  0  0  0  0
 36 89  1  0  0  0  0
 36 90  1  0  0  0  0
 36 91  1  0  0  0  0
 37 92  1  0  0  0  0
 37 93  1  0  0  0  0
 37 94  1  0  0  0  0
 38 95  1  0  0  0  0
 38 96  1  0  0  0  0
 38 97  1  0  0  0  0
 39 98  1  0  0  0  0
 39 99  1  0  0  0  0
 39100  1  0  0  0  0
 40101  1  0  0  0  0
 40102  1  0  0  0  0
 40103  1  0  0  0  0
 41104  1  0  0  0  0
 41105  1  0  0  0  0
 41106  1  0  0  0  0
 42107  1  0  0  0  0
 42108  1  0  0  0  0
 42109  1  0  0  0  0
 43110  1  0  0  0  0
 43111  1  0  0  0  0
 43112  1  0  0  0  0
 44113  1  0  0  0  0
 44114  1  0  0  0  0
 44115  1  0  0  0  0
 45116  1  0  0  0  0
 45117  1  0  0  0  0
 46118  1  0  0  0  0
 48119  1  0  0  0  0
 49120  1  0  0  0  0
 57121  1  0  0  0  0
 58122  1  0  0  0  0
 59123  1  0  0  0  0
M  END
> <id>
EN300-332970

> <smiles>
CO[C@H]1C=CO[C@@]2(C)OC=3C(C2=O)=C4C5=NC6(CCN(CC(C)C)CC6)NC5=C(NC(=O)/C(=C\C=C/[C@H](C)[C@H](O)[C@@H](C)[C@@H](O)[C@@H](C)[C@H](OC(=O)C)[C@@H]1C)/C)C(=O)C4=C(O)C3C

> <MDLNUMBER>
MFCD27579704

> <IUPAC Name>
(7S,11S,12R,13S,14R,15R,16R,17S,18S,19Z,21Z)-2,15,17-trihydroxy-11-methoxy-3,7,12,14,16,18,22-heptamethyl-1'-(2-methylpropyl)-6,23,32-trioxo-8,33-dioxa-24,27,29-triazaspiro[pentacyclo[23.6.1.1^{4,7}.0^{5,31}.0^{26,30}]tritriacontane-28,4'-piperidin]-1,3,5(31),9,19,21,25,29-octaen-13-yl acetate

> <CAS>
1820583-66-1

> <URL>
https://www.enaminestore.com/catalog/EN300-332970

> <ROCS_ShapeQuery>
x0446_0A_x1080_0A_x0929_0A_x0812_0A_x0719_0A_x1140_0A_x0528_0A_x0310_0A

> <ROCS_TanimotoCombo>
0.410 

> <ROCS_ShapeTanimoto>
0.292 

> <ROCS_ColorTanimoto>
0.118 

> <ROCS_RefTversky>
0.288 

> <ROCS_RefColorTversky>
0.177 

> <ROCS_RefTverskyCombo>
0.464 

> <ROCS_FitTversky>
1.057 

> <ROCS_FitColorTversky>
0.261 

> <ROCS_FitTverskyCombo>
1.318 

> <ROCS_ColorScore>
-6.453

> <ROCS_Overlap>
3421.988

> <ROCS_Rank>
475                 

$$$$
untitled-dbase-62604_3
  -OEChem-02082415563D

123128  0     1  0  0  0  0  0999 V2000
    7.9640   12.6455   24.3782 C   0  0  0  0  0  0  0  0  0  0  0  0
    7.1162   13.6186   24.8958 C   0  0  0  0  0  0  0  0  0  0  0  0
    7.5896   11.3062   24.5509 C   0  0  0  0  0  0  0  0  0  0  0  0
    5.6122   11.9640   25.8116 C   0  0  0  0  0  0  0  0  0  0  0  0
    5.9647   13.2798   25.5880 C   0  0  0  0  0  0  0  0  0  0  0  0
    6.4276   10.9699   25.2771 C   0  0  0  0  0  0  0  0  0  0  0  0
   11.0013    8.6531   18.9522 C   0  0  0  0  0  0  0  0  0  0  0  0
   11.3940    7.6952   19.9603 C   0  0  0  0  0  0  0  0  0  0  0  0
    9.7479    9.0298   18.6498 C   0  0  0  0  0  0  0  0  0  0  0  0
    2.9649   15.3290   23.2894 C   0  0  0  0  0  0  0  0  0  0  0  0
    3.6952   15.7921   24.3108 C   0  0  0  0  0  0  0  0  0  0  0  0
    9.1987   12.9303   23.6472 C   0  0  0  0  0  0  0  0  0  0  0  0
    8.3759   10.2070   23.9506 C   0  0  0  0  0  0  0  0  0  0  0  0
    7.0811   15.0701   24.8461 C   0  0  0  0  0  0  0  0  0  0  0  0
   11.5199    7.9357   21.2762 C   0  0  0  0  0  0  0  0  0  0  0  0
    9.9599   11.8097   23.0208 C   0  0  0  0  0  0  0  0  0  0  0  0
    9.5852   10.5317   23.1311 C   0  0  0  0  0  0  0  0  0  0  0  0
   11.3144    9.3262   21.7763 C   0  0  0  0  0  0  0  0  0  0  0  0
    4.2663   14.9092   18.6382 C   0  0  0  0  0  0  0  0  0  0  0  0
   12.1647   14.3186   23.4693 C   0  0  0  0  0  0  0  0  0  0  0  0
   10.8154   14.6349   21.3278 C   0  0  0  0  0  0  0  0  0  0  0  0
   13.2812   14.8310   22.5601 C   0  0  0  0  0  0  0  0  0  0  0  0
   11.4356   16.0285   21.4469 C   0  0  0  0  0  0  0  0  0  0  0  0
    8.4606    8.5087   19.2523 C   0  0  1  0  0  0  0  0  0  0  0  0
    3.4921   14.9800   21.9205 C   0  0  1  0  0  0  0  0  0  0  0  0
    4.4146   13.7236   21.8389 C   0  0  2  0  0  0  0  0  0  0  0  0
    7.0837   10.6918   18.4646 C   0  0  2  0  0  0  0  0  0  0  0  0
    5.9909   12.3803   20.2110 C   0  0  1  0  0  0  0  0  0  0  0  0
    7.3951    9.6105   19.5477 C   0  0  1  0  0  0  0  0  0  0  0  0
    4.7945   13.3821   20.3645 C   0  0  2  0  0  0  0  0  0  0  0  0
    5.9081   11.6545   18.8368 C   0  0  2  0  0  0  0  0  0  0  0  0
    5.7469   15.5138   25.4062 C   0  0  2  0  0  0  0  0  0  0  0  0
   10.9380   13.8715   22.6562 C   0  0  0  0  0  0  0  0  0  0  0  0
    4.3820   11.6255   26.5828 C   0  0  0  0  0  0  0  0  0  0  0  0
   11.9430    6.9070   22.2764 C   0  0  0  0  0  0  0  0  0  0  0  0
    4.7083   16.1945   18.0068 C   0  0  0  0  0  0  0  0  0  0  0  0
    7.9448    7.3223   18.4231 C   0  0  0  0  0  0  0  0  0  0  0  0
    3.7727   12.4980   22.5116 C   0  0  0  0  0  0  0  0  0  0  0  0
    6.8038   10.1004   17.0727 C   0  0  0  0  0  0  0  0  0  0  0  0
    7.3348   13.0952   20.3945 C   0  0  0  0  0  0  0  0  0  0  0  0
    5.9200   16.6097   26.4469 C   0  0  0  0  0  0  0  0  0  0  0  0
   15.0064   17.5575   20.3303 C   0  0  0  0  0  0  0  0  0  0  0  0
   15.3686   18.7743   22.5012 C   0  0  0  0  0  0  0  0  0  0  0  0
    1.9026   16.0942   20.5977 C   0  0  0  0  0  0  0  0  0  0  0  0
   13.3611   17.2396   22.2445 C   0  0  0  0  0  0  0  0  0  0  0  0
   14.8180   17.5062   21.8472 C   0  0  0  0  0  0  0  0  0  0  0  0
    9.7155   14.1231   23.4787 N   0  0  0  0  0  0  0  0  0  0  0  0
   10.1791    9.4206   22.5607 N   0  0  0  0  0  0  0  0  0  0  0  0
   10.9843   12.4491   22.4019 N   0  0  0  0  0  0  0  0  0  0  0  0
   12.8796   15.9655   21.7167 N   0  0  0  0  0  0  0  0  0  0  0  0
    8.0294    9.0410   24.1196 O   0  0  0  0  0  0  0  0  0  0  0  0
    7.9394   15.8053   24.3983 O   0  0  0  0  0  0  0  0  0  0  0  0
   12.1104   10.2029   21.4636 O   0  0  0  0  0  0  0  0  0  0  0  0
    3.2973   14.2610   18.2667 O   0  0  0  0  0  0  0  0  0  0  0  0
    5.1953   14.3281   26.0190 O   0  0  0  0  0  0  0  0  0  0  0  0
    5.0444   15.9974   24.2503 O   0  0  0  0  0  0  0  0  0  0  0  0
    6.0352    9.6694   25.4386 O   0  0  0  0  0  0  0  0  0  0  0  0
    6.1940    8.9800   19.9984 O   0  0  0  0  0  0  0  0  0  0  0  0
    4.6685   10.9360   18.8072 O   0  0  0  0  0  0  0  0  0  0  0  0
    5.1031   14.5935   19.6685 O   0  0  0  0  0  0  0  0  0  0  0  0
    2.3762   14.8328   21.0368 O   0  0  0  0  0  0  0  0  0  0  0  0
   11.8011    9.0211   18.3577 H   0  0  0  0  0  0  0  0  0  0  0  0
   11.6572    6.7448   19.5711 H   0  0  0  0  0  0  0  0  0  0  0  0
    9.6500    9.7513   17.8646 H   0  0  0  0  0  0  0  0  0  0  0  0
    1.8902   15.2094   23.4449 H   0  0  0  0  0  0  0  0  0  0  0  0
    3.2381   16.0516   25.2609 H   0  0  0  0  0  0  0  0  0  0  0  0
   12.5454   13.4724   24.0541 H   0  0  0  0  0  0  0  0  0  0  0  0
   11.8889   15.1070   24.1783 H   0  0  0  0  0  0  0  0  0  0  0  0
    9.7681   14.7337   21.0358 H   0  0  0  0  0  0  0  0  0  0  0  0
   11.3330   14.0847   20.5374 H   0  0  0  0  0  0  0  0  0  0  0  0
   14.1684   15.0962   23.1706 H   0  0  0  0  0  0  0  0  0  0  0  0
   13.6049   13.9911   21.9149 H   0  0  0  0  0  0  0  0  0  0  0  0
   11.2611   16.5592   20.4994 H   0  0  0  0  0  0  0  0  0  0  0  0
   10.9169   16.6038   22.2297 H   0  0  0  0  0  0  0  0  0  0  0  0
    8.7154    8.0553   20.2305 H   0  0  0  0  0  0  0  0  0  0  0  0
    4.0831   15.8491   21.5267 H   0  0  0  0  0  0  0  0  0  0  0  0
    5.3407   13.9555   22.3840 H   0  0  0  0  0  0  0  0  0  0  0  0
    7.9488   11.3068   18.3923 H   0  0  0  0  0  0  0  0  0  0  0  0
    5.8970   11.6169   20.9684 H   0  0  0  0  0  0  0  0  0  0  0  0
    7.7722   10.1685   20.3979 H   0  0  0  0  0  0  0  0  0  0  0  0
    3.9068   12.9569   19.8875 H   0  0  0  0  0  0  0  0  0  0  0  0
    5.8283   12.4306   18.0663 H   0  0  0  0  0  0  0  0  0  0  0  0
    3.5210   11.5368   25.9090 H   0  0  0  0  0  0  0  0  0  0  0  0
    4.4992   10.6778   27.1242 H   0  0  0  0  0  0  0  0  0  0  0  0
    4.1587   12.3947   27.3335 H   0  0  0  0  0  0  0  0  0  0  0  0
   13.0257    6.9231   22.3763 H   0  0  0  0  0  0  0  0  0  0  0  0
   11.6214    5.9230   21.9427 H   0  0  0  0  0  0  0  0  0  0  0  0
   11.4840    7.1262   23.2377 H   0  0  0  0  0  0  0  0  0  0  0  0
    4.2177   17.0377   18.4993 H   0  0  0  0  0  0  0  0  0  0  0  0
    4.4751   16.1827   16.9391 H   0  0  0  0  0  0  0  0  0  0  0  0
    5.7904   16.3032   18.1250 H   0  0  0  0  0  0  0  0  0  0  0  0
    7.6627    7.6630   17.4285 H   0  0  0  0  0  0  0  0  0  0  0  0
    7.0760    6.8828   18.9098 H   0  0  0  0  0  0  0  0  0  0  0  0
    8.7246    6.5680   18.3346 H   0  0  0  0  0  0  0  0  0  0  0  0
    2.8546   12.2469   21.9922 H   0  0  0  0  0  0  0  0  0  0  0  0
    3.5554   12.7337   23.5475 H   0  0  0  0  0  0  0  0  0  0  0  0
    4.4626   11.6628   22.4621 H   0  0  0  0  0  0  0  0  0  0  0  0
    5.9219    9.4647   17.1148 H   0  0  0  0  0  0  0  0  0  0  0  0
    7.6569    9.5088   16.7473 H   0  0  0  0  0  0  0  0  0  0  0  0
    6.6324   10.9046   16.3602 H   0  0  0  0  0  0  0  0  0  0  0  0
    7.4354   13.8638   19.6362 H   0  0  0  0  0  0  0  0  0  0  0  0
    8.1381   12.3738   20.2946 H   0  0  0  0  0  0  0  0  0  0  0  0
    7.3664   13.5458   21.3803 H   0  0  0  0  0  0  0  0  0  0  0  0
    4.9475   16.9133   26.8359 H   0  0  0  0  0  0  0  0  0  0  0  0
    6.4070   17.4769   25.9996 H   0  0  0  0  0  0  0  0  0  0  0  0
    6.5330   16.2478   27.2730 H   0  0  0  0  0  0  0  0  0  0  0  0
   14.4432   18.3796   19.8770 H   0  0  0  0  0  0  0  0  0  0  0  0
   16.0630   17.7020   20.0798 H   0  0  0  0  0  0  0  0  0  0  0  0
   14.6791   16.6215   19.8657 H   0  0  0  0  0  0  0  0  0  0  0  0
   14.8245   19.6674   22.1767 H   0  0  0  0  0  0  0  0  0  0  0  0
   16.4236   18.9141   22.2419 H   0  0  0  0  0  0  0  0  0  0  0  0
   15.2994   18.7104   23.5923 H   0  0  0  0  0  0  0  0  0  0  0  0
    1.0526   15.9515   19.9260 H   0  0  0  0  0  0  0  0  0  0  0  0
    2.7050   16.6254   20.0795 H   0  0  0  0  0  0  0  0  0  0  0  0
    1.5844   16.6763   21.4658 H   0  0  0  0  0  0  0  0  0  0  0  0
   13.2546   17.2256   23.3346 H   0  0  0  0  0  0  0  0  0  0  0  0
   12.7142   18.0350   21.8582 H   0  0  0  0  0  0  0  0  0  0  0  0
   15.4111   16.6608   22.2202 H   0  0  0  0  0  0  0  0  0  0  0  0
    9.6965    8.5190   22.7522 H   0  0  0  0  0  0  0  0  0  0  0  0
   11.7290   11.9621   21.9081 H   0  0  0  0  0  0  0  0  0  0  0  0
    6.6600    9.0778   24.9936 H   0  0  0  0  0  0  0  0  0  0  0  0
    6.4303    8.4927   20.8005 H   0  0  0  0  0  0  0  0  0  0  0  0
    4.5691   10.6017   17.9036 H   0  0  0  0  0  0  0  0  0  0  0  0
  1  2  2  0  0  0  0
  1  3  1  0  0  0  0
  1 12  1  0  0  0  0
  2  5  1  0  0  0  0
  2 14  1  0  0  0  0
  3  6  2  0  0  0  0
  3 13  1  0  0  0  0
  4  5  2  0  0  0  0
  4  6  1  0  0  0  0
  4 34  1  0  0  0  0
  5 55  1  0  0  0  0
  6 57  1  0  0  0  0
  7  8  1  0  0  0  0
  7  9  2  0  0  0  0
  8 15  2  0  0  0  0
  9 24  1  0  0  0  0
 10 11  2  0  0  0  0
 10 25  1  0  0  0  0
 11 56  1  0  0  0  0
 12 16  1  0  0  0  0
 12 47  2  0  0  0  0
 13 17  1  0  0  0  0
 13 51  2  0  0  0  0
 14 32  1  0  0  0  0
 14 52  2  0  0  0  0
 15 18  1  0  0  0  0
 15 35  1  0  0  0  0
 16 17  2  0  0  0  0
 16 49  1  0  0  0  0
 17 48  1  0  0  0  0
 18 48  1  0  0  0  0
 18 53  2  0  0  0  0
 19 36  1  0  0  0  0
 19 54  2  0  0  0  0
 19 60  1  0  0  0  0
 20 22  1  0  0  0  0
 20 33  1  0  0  0  0
 21 23  1  0  0  0  0
 21 33  1  0  0  0  0
 22 50  1  0  0  0  0
 23 50  1  0  0  0  0
 24 29  1  0  0  0  0
 24 37  1  6  0  0  0
 25 26  1  0  0  0  0
 25 61  1  1  0  0  0
 26 30  1  0  0  0  0
 26 38  1  6  0  0  0
 27 29  1  0  0  0  0
 27 31  1  0  0  0  0
 27 39  1  1  0  0  0
 28 30  1  0  0  0  0
 28 31  1  0  0  0  0
 28 40  1  1  0  0  0
 29 58  1  6  0  0  0
 30 60  1  6  0  0  0
 31 59  1  1  0  0  0
 32 41  1  1  0  0  0
 32 55  1  0  0  0  0
 32 56  1  0  0  0  0
 33 47  1  0  0  0  0
 33 49  1  0  0  0  0
 42 46  1  0  0  0  0
 43 46  1  0  0  0  0
 44 61  1  0  0  0  0
 45 46  1  0  0  0  0
 45 50  1  0  0  0  0
  7 62  1  0  0  0  0
  8 63  1  0  0  0  0
  9 64  1  0  0  0  0
 10 65  1  0  0  0  0
 11 66  1  0  0  0  0
 20 67  1  0  0  0  0
 20 68  1  0  0  0  0
 21 69  1  0  0  0  0
 21 70  1  0  0  0  0
 22 71  1  0  0  0  0
 22 72  1  0  0  0  0
 23 73  1  0  0  0  0
 23 74  1  0  0  0  0
 24 75  1  0  0  0  0
 25 76  1  0  0  0  0
 26 77  1  0  0  0  0
 27 78  1  0  0  0  0
 28 79  1  0  0  0  0
 29 80  1  0  0  0  0
 30 81  1  0  0  0  0
 31 82  1  0  0  0  0
 34 83  1  0  0  0  0
 34 84  1  0  0  0  0
 34 85  1  0  0  0  0
 35 86  1  0  0  0  0
 35 87  1  0  0  0  0
 35 88  1  0  0  0  0
 36 89  1  0  0  0  0
 36 90  1  0  0  0  0
 36 91  1  0  0  0  0
 37 92  1  0  0  0  0
 37 93  1  0  0  0  0
 37 94  1  0  0  0  0
 38 95  1  0  0  0  0
 38 96  1  0  0  0  0
 38 97  1  0  0  0  0
 39 98  1  0  0  0  0
 39 99  1  0  0  0  0
 39100  1  0  0  0  0
 40101  1  0  0  0  0
 40102  1  0  0  0  0
 40103  1  0  0  0  0
 41104  1  0  0  0  0
 41105  1  0  0  0  0
 41106  1  0  0  0  0
 42107  1  0  0  0  0
 42108  1  0  0  0  0
 42109  1  0  0  0  0
 43110  1  0  0  0  0
 43111  1  0  0  0  0
 43112  1  0  0  0  0
 44113  1  0  0  0  0
 44114  1  0  0  0  0
 44115  1  0  0  0  0
 45116  1  0  0  0  0
 45117  1  0  0  0  0
 46118  1  0  0  0  0
 48119  1  0  0  0  0
 49120  1  0  0  0  0
 57121  1  0  0  0  0
 58122  1  0  0  0  0
 59123  1  0  0  0  0
M  END
> <id>
EN300-260899

> <smiles>
CO[C@H]1/C=C/O[C@@]2(C)OC=3C(C2=O)=C4C5=NC6(CCN(CC(C)C)CC6)NC5=C(NC(=O)/C(=C\C=C\[C@H](C)[C@H](O)[C@@H](C)[C@@H](O)[C@@H](C)[C@H](OC(=O)C)[C@@H]1C)/C)C(=O)C4=C(O)C3C

> <IUPAC Name>
(7S,11S,12R,13S,14R,15R,16R,17S,18S,19Z,21Z)-2,15,17-trihydroxy-11-methoxy-3,7,12,14,16,18,22-heptamethyl-1'-(2-methylpropyl)-6,23,32-trioxo-8,33-dioxa-24,27,29-triazaspiro[pentacyclo[23.6.1.1^{4,7}.0^{5,31}.0^{26,30}]tritriacontane-28,4'-piperidin]-1,3,5(31),9,19,21,25,29-octaen-13-yl acetate

> <CAS>
72559-06-9

> <URL>
https://www.enaminestore.com/catalog/EN300-260899

> <ROCS_ShapeQuery>
x0446_0A_x1080_0A_x0929_0A_x0812_0A_x0719_0A_x1140_0A_x0528_0A_x0310_0A

> <ROCS_TanimotoCombo>
0.410 

> <ROCS_ShapeTanimoto>
0.292 

> <ROCS_ColorTanimoto>
0.118 

> <ROCS_RefTversky>
0.288 

> <ROCS_RefColorTversky>
0.177 

> <ROCS_RefTverskyCombo>
0.464 

> <ROCS_FitTversky>
1.057 

> <ROCS_FitColorTversky>
0.261 

> <ROCS_FitTverskyCombo>
1.318 

> <ROCS_ColorScore>
-6.453

> <ROCS_Overlap>
3421.988

> <ROCS_Rank>
476                 

$$$$
untitled-dbase-351278_0
  -OEChem-02082415563D

 25 27  0     1  0  0  0  0  0999 V2000
    9.7027   12.7253   23.9669 C   0  0  0  0  0  0  0  0  0  0  0  0
    7.1272   12.8371   22.4843 C   0  0  0  0  0  0  0  0  0  0  0  0
    6.3039   11.9984   24.4759 C   0  0  0  0  0  0  0  0  0  0  0  0
    9.2164   12.2211   25.3113 C   0  0  0  0  0  0  0  0  0  0  0  0
   10.1145   10.4624   23.1546 C   0  0  0  0  0  0  0  0  0  0  0  0
    9.5458    9.8921   24.4695 C   0  0  0  0  0  0  0  0  0  0  0  0
    9.4219   11.7881   22.7999 C   0  0  1  0  0  0  0  0  0  0  0  0
    7.9058   11.5645   22.7181 C   0  0  1  0  0  0  0  0  0  0  0  0
    7.3671   11.0139   24.0533 C   0  0  1  0  0  0  0  0  0  0  0  0
    8.5139   10.8679   25.0753 C   0  0  2  0  0  0  0  0  0  0  0  0
    6.2316   12.9785   23.5163 N   0  0  0  0  0  0  0  0  0  0  0  0
   10.2783   13.8009   23.8334 O   0  0  0  0  0  0  0  0  0  0  0  0
    7.2871   13.5963   21.5400 O   0  0  0  0  0  0  0  0  0  0  0  0
    5.6439   11.9230   25.5018 O   0  0  0  0  0  0  0  0  0  0  0  0
   10.0786   12.0984   25.9747 H   0  0  0  0  0  0  0  0  0  0  0  0
    8.5318   12.9566   25.7431 H   0  0  0  0  0  0  0  0  0  0  0  0
   11.1946   10.6186   23.2654 H   0  0  0  0  0  0  0  0  0  0  0  0
    9.9800    9.7341   22.3461 H   0  0  0  0  0  0  0  0  0  0  0  0
    9.0787    8.9182   24.2792 H   0  0  0  0  0  0  0  0  0  0  0  0
   10.3627    9.7138   25.1789 H   0  0  0  0  0  0  0  0  0  0  0  0
    9.8238   12.2175   21.8767 H   0  0  0  0  0  0  0  0  0  0  0  0
    7.6659   10.8700   21.9035 H   0  0  0  0  0  0  0  0  0  0  0  0
    6.8783   10.0457   23.8873 H   0  0  0  0  0  0  0  0  0  0  0  0
    8.1344   10.4780   26.0265 H   0  0  0  0  0  0  0  0  0  0  0  0
    5.5901   13.7611   23.5807 H   0  0  0  0  0  0  0  0  0  0  0  0
  1  4  1  0  0  0  0
  1  7  1  0  0  0  0
  1 12  2  0  0  0  0
  2  8  1  6  0  0  0
  2 11  1  0  0  0  0
  2 13  2  0  0  0  0
  3  9  1  6  0  0  0
  3 11  1  0  0  0  0
  3 14  2  0  0  0  0
  4 10  1  0  0  0  0
  5  6  1  0  0  0  0
  5  7  1  1  0  0  0
  6 10  1  1  0  0  0
  7  8  1  0  0  0  0
  8  9  1  0  0  0  0
  9 10  1  0  0  0  0
  4 15  1  0  0  0  0
  4 16  1  0  0  0  0
  5 17  1  0  0  0  0
  5 18  1  0  0  0  0
  6 19  1  0  0  0  0
  6 20  1  0  0  0  0
  7 21  1  0  0  0  0
  8 22  1  0  0  0  0
  9 23  1  0  0  0  0
 10 24  1  0  0  0  0
 11 25  1  0  0  0  0
M  END
> <id>
EN300-26863602

> <smiles>
O=C1NC(=O)[C@@H]2[C@H]1[C@H]3CC[C@@H]2C(=O)C3 |&1:5,6,7,10,r|

> <IUPAC Name>
rac-(1R,2S,6R,7R)-4-azatricyclo[5.2.2.0,2,6]undecane-3,5,8-trione

> <CAS>
1932117-92-4

> <Purity>
95

> <URL>
https://www.enaminestore.com/catalog/EN300-26863602

> <ROCS_ShapeQuery>
x0446_0A_x1080_0A_x0929_0A_x0812_0A_x0719_0A_x1140_0A_x0528_0A_x0310_0A

> <ROCS_TanimotoCombo>
0.410 

> <ROCS_ShapeTanimoto>
0.195 

> <ROCS_ColorTanimoto>
0.215 

> <ROCS_RefTversky>
0.180 

> <ROCS_RefColorTversky>
0.238 

> <ROCS_RefTverskyCombo>
0.418 

> <ROCS_FitTversky>
1.723 

> <ROCS_FitColorTversky>
0.688 

> <ROCS_FitTverskyCombo>
2.411 

> <ROCS_ColorScore>
-8.535

> <ROCS_Overlap>
2127.264

> <ROCS_Rank>
477                 

$$$$
untitled-dbase-96252_2
  -OEChem-02082415563D

 27 29  0     0  0  0  0  0  0999 V2000
    6.3305   15.1885   25.8638 C   0  0  0  0  0  0  0  0  0  0  0  0
    6.3091   16.1436   24.8475 C   0  0  0  0  0  0  0  0  0  0  0  0
    6.9130   13.9415   25.6368 C   0  0  0  0  0  0  0  0  0  0  0  0
    6.8700   15.8518   23.6042 C   0  0  0  0  0  0  0  0  0  0  0  0
    7.5065   11.0782   24.2689 C   0  0  0  0  0  0  0  0  0  0  0  0
    7.4739   13.6497   24.3935 C   0  0  0  0  0  0  0  0  0  0  0  0
    8.0643   12.3615   24.1896 C   0  0  0  0  0  0  0  0  0  0  0  0
    7.4525   14.6048   23.3772 C   0  0  0  0  0  0  0  0  0  0  0  0
    9.3831   12.1529   23.8559 C   0  0  0  0  0  0  0  0  0  0  0  0
   11.8373   11.0122   23.2016 C   0  0  0  0  0  0  0  0  0  0  0  0
   10.7837   10.2203   23.4247 C   0  0  0  0  0  0  0  0  0  0  0  0
   11.5576   12.4643   23.3357 C   0  0  0  0  0  0  0  0  0  0  0  0
    8.0277   14.3418   22.0629 C   0  0  0  0  0  0  0  0  0  0  0  0
    8.3870   10.1125   24.0089 N   0  0  0  0  0  0  0  0  0  0  0  0
   10.4201   13.0120   23.6397 N   0  0  0  0  0  0  0  0  0  0  0  0
    9.5479   10.7707   23.7532 N   0  0  0  0  0  0  0  0  0  0  0  0
    7.6727   13.4429   21.2974 O   0  0  0  0  0  0  0  0  0  0  0  0
    9.0249   15.2124   21.7522 O   0  0  0  0  0  0  0  0  0  0  0  0
    5.8940   15.4172   26.8317 H   0  0  0  0  0  0  0  0  0  0  0  0
    5.8549   17.1142   25.0247 H   0  0  0  0  0  0  0  0  0  0  0  0
    6.9204   13.2086   26.4403 H   0  0  0  0  0  0  0  0  0  0  0  0
    6.8459   16.6050   22.8207 H   0  0  0  0  0  0  0  0  0  0  0  0
    6.4902   10.7969   24.5065 H   0  0  0  0  0  0  0  0  0  0  0  0
   12.8249   10.6602   22.9429 H   0  0  0  0  0  0  0  0  0  0  0  0
   10.8446    9.1406   23.3610 H   0  0  0  0  0  0  0  0  0  0  0  0
   12.4245   13.1202   23.1522 H   0  0  0  0  0  0  0  0  0  0  0  0
    9.4179   15.0444   20.8692 H   0  0  0  0  0  0  0  0  0  0  0  0
  1  2  1  0  0  0  0
  1  3  2  0  0  0  0
  2  4  2  0  0  0  0
  3  6  1  0  0  0  0
  4  8  1  0  0  0  0
  5  7  1  0  0  0  0
  5 14  2  0  0  0  0
  6  7  1  0  0  0  0
  6  8  2  0  0  0  0
  7  9  2  0  0  0  0
  8 13  1  0  0  0  0
  9 15  1  0  0  0  0
  9 16  1  0  0  0  0
 10 11  2  0  0  0  0
 10 12  1  0  0  0  0
 11 16  1  0  0  0  0
 12 15  2  0  0  0  0
 13 17  2  0  0  0  0
 13 18  1  0  0  0  0
 14 16  1  0  0  0  0
  1 19  1  0  0  0  0
  2 20  1  0  0  0  0
  3 21  1  0  0  0  0
  4 22  1  0  0  0  0
  5 23  1  0  0  0  0
 10 24  1  0  0  0  0
 11 25  1  0  0  0  0
 12 26  1  0  0  0  0
 18 27  1  0  0  0  0
M  END
> <id>
EN300-738410

> <smiles>
OC(=O)C=1C=CC=CC1C=2C=NN3C=CC=NC23

> <MDLNUMBER>
MFCD31450883

> <IUPAC Name>
2-{pyrazolo[1,5-a]pyrimidin-3-yl}benzoic acid

> <CAS>
2138304-42-2

> <URL>
https://www.enaminestore.com/catalog/EN300-738410

> <ROCS_ShapeQuery>
x0446_0A_x1080_0A_x0929_0A_x0812_0A_x0719_0A_x1140_0A_x0528_0A_x0310_0A

> <ROCS_TanimotoCombo>
0.410 

> <ROCS_ShapeTanimoto>
0.231 

> <ROCS_ColorTanimoto>
0.178 

> <ROCS_RefTversky>
0.211 

> <ROCS_RefColorTversky>
0.192 

> <ROCS_RefTverskyCombo>
0.402 

> <ROCS_FitTversky>
1.743 

> <ROCS_FitColorTversky>
0.721 

> <ROCS_FitTverskyCombo>
2.464 

> <ROCS_ColorScore>
-6.845

> <ROCS_Overlap>
2486.397

> <ROCS_Rank>
478                 

$$$$
untitled-dbase-346501_0
  -OEChem-02082415563D

 43 46  0     0  0  0  0  0  0999 V2000
   13.2573    9.7247   22.5505 C   0  0  0  0  0  0  0  0  0  0  0  0
   12.3901    8.7027   22.9420 C   0  0  0  0  0  0  0  0  0  0  0  0
   12.8371   11.0587   22.5655 C   0  0  0  0  0  0  0  0  0  0  0  0
   11.0931    9.0036   23.3524 C   0  0  0  0  0  0  0  0  0  0  0  0
   11.5392   11.3743   22.9749 C   0  0  0  0  0  0  0  0  0  0  0  0
    7.6725   11.9848   24.2225 C   0  0  0  0  0  0  0  0  0  0  0  0
   10.6826   10.3372   23.3639 C   0  0  0  0  0  0  0  0  0  0  0  0
    7.4022   10.6234   24.4438 C   0  0  0  0  0  0  0  0  0  0  0  0
    8.9771   12.0222   23.7786 C   0  0  0  0  0  0  0  0  0  0  0  0
   11.0096   12.7810   23.0195 C   0  0  0  0  0  0  0  0  0  0  0  0
    6.8177   13.1208   24.4020 C   0  0  0  0  0  0  0  0  0  0  0  0
   11.8910   16.8087   22.9630 C   0  0  0  0  0  0  0  0  0  0  0  0
   11.5594   16.7539   21.4717 C   0  0  0  0  0  0  0  0  0  0  0  0
   13.0604   15.9054   23.3502 C   0  0  0  0  0  0  0  0  0  0  0  0
   10.9874   15.4251   20.9819 C   0  0  0  0  0  0  0  0  0  0  0  0
   12.6569   14.4634   23.6458 C   0  0  0  0  0  0  0  0  0  0  0  0
   11.8863   14.2214   21.2498 C   0  0  0  0  0  0  0  0  0  0  0  0
    6.1487   10.0163   24.9247 C   0  0  0  0  0  0  0  0  0  0  0  0
    8.4465    9.8406   24.1668 N   0  0  0  0  0  0  0  0  0  0  0  0
    9.7841   13.0475   23.4078 N   0  0  0  0  0  0  0  0  0  0  0  0
    9.3951   10.7110   23.7635 N   0  0  0  0  0  0  0  0  0  0  0  0
   11.8232   13.8071   22.6468 N   0  0  0  0  0  0  0  0  0  0  0  0
    7.1650   14.2952   24.1730 O   0  0  0  0  0  0  0  0  0  0  0  0
   14.2673    9.4816   22.2317 H   0  0  0  0  0  0  0  0  0  0  0  0
   12.7284    7.6706   22.9261 H   0  0  0  0  0  0  0  0  0  0  0  0
   13.5462   11.8176   22.2527 H   0  0  0  0  0  0  0  0  0  0  0  0
   10.4340    8.1947   23.6528 H   0  0  0  0  0  0  0  0  0  0  0  0
    5.7725   12.9482   24.7709 H   0  0  0  0  0  0  0  0  0  0  0  0
   12.1697   17.8435   23.1990 H   0  0  0  0  0  0  0  0  0  0  0  0
   11.0033   16.5794   23.5642 H   0  0  0  0  0  0  0  0  0  0  0  0
   10.8288   17.5419   21.2503 H   0  0  0  0  0  0  0  0  0  0  0  0
   12.4574   16.9977   20.8902 H   0  0  0  0  0  0  0  0  0  0  0  0
   13.8418   15.9349   22.5814 H   0  0  0  0  0  0  0  0  0  0  0  0
   13.5213   16.3100   24.2606 H   0  0  0  0  0  0  0  0  0  0  0  0
    9.9953   15.2601   21.4203 H   0  0  0  0  0  0  0  0  0  0  0  0
   10.8311   15.5053   19.8988 H   0  0  0  0  0  0  0  0  0  0  0  0
   13.5657   13.8630   23.7874 H   0  0  0  0  0  0  0  0  0  0  0  0
   12.1349   14.4559   24.6136 H   0  0  0  0  0  0  0  0  0  0  0  0
   11.5702   13.3955   20.6010 H   0  0  0  0  0  0  0  0  0  0  0  0
   12.9243   14.4346   20.9703 H   0  0  0  0  0  0  0  0  0  0  0  0
    5.4813    9.7587   24.0848 H   0  0  0  0  0  0  0  0  0  0  0  0
    6.3283    9.0925   25.5026 H   0  0  0  0  0  0  0  0  0  0  0  0
    5.5911   10.6908   25.5984 H   0  0  0  0  0  0  0  0  0  0  0  0
  1  2  1  0  0  0  0
  1  3  2  0  0  0  0
  2  4  2  0  0  0  0
  3  5  1  0  0  0  0
  4  7  1  0  0  0  0
  5  7  2  0  0  0  0
  5 10  1  0  0  0  0
  6  8  1  0  0  0  0
  6  9  2  0  0  0  0
  6 11  1  0  0  0  0
  7 21  1  0  0  0  0
  8 18  1  0  0  0  0
  8 19  2  0  0  0  0
  9 20  1  0  0  0  0
  9 21  1  0  0  0  0
 10 20  2  0  0  0  0
 10 22  1  0  0  0  0
 11 23  2  0  0  0  0
 12 13  1  0  0  0  0
 12 14  1  0  0  0  0
 13 15  1  0  0  0  0
 14 16  1  0  0  0  0
 15 17  1  0  0  0  0
 16 22  1  0  0  0  0
 17 22  1  0  0  0  0
 19 21  1  0  0  0  0
  1 24  1  0  0  0  0
  2 25  1  0  0  0  0
  3 26  1  0  0  0  0
  4 27  1  0  0  0  0
 11 28  1  0  0  0  0
 12 29  1  0  0  0  0
 12 30  1  0  0  0  0
 13 31  1  0  0  0  0
 13 32  1  0  0  0  0
 14 33  1  0  0  0  0
 14 34  1  0  0  0  0
 15 35  1  0  0  0  0
 15 36  1  0  0  0  0
 16 37  1  0  0  0  0
 16 38  1  0  0  0  0
 17 39  1  0  0  0  0
 17 40  1  0  0  0  0
 18 41  1  0  0  0  0
 18 42  1  0  0  0  0
 18 43  1  0  0  0  0
M  END
> <id>
EN300-26613948

> <smiles>
CC1=NN2C(N=C(N3CCCCCC3)C=4C=CC=CC42)=C1C=O

> <IUPAC Name>
5-(azepan-1-yl)-2-methylpyrazolo[1,5-a]quinazoline-3-carbaldehyde

> <CAS>
380388-51-2

> <URL>
https://www.enaminestore.com/catalog/EN300-26613948

> <ROCS_ShapeQuery>
x0446_0A_x1080_0A_x0929_0A_x0812_0A_x0719_0A_x1140_0A_x0528_0A_x0310_0A

> <ROCS_TanimotoCombo>
0.410 

> <ROCS_ShapeTanimoto>
0.260 

> <ROCS_ColorTanimoto>
0.150 

> <ROCS_RefTversky>
0.235 

> <ROCS_RefColorTversky>
0.161 

> <ROCS_RefTverskyCombo>
0.396 

> <ROCS_FitTversky>
1.698 

> <ROCS_FitColorTversky>
0.674 

> <ROCS_FitTverskyCombo>
2.372 

> <ROCS_ColorScore>
-5.756

> <ROCS_Overlap>
2776.051

> <ROCS_Rank>
479                 

$$$$
untitled-dbase-65920_2
  -OEChem-02082415563D

 32 35  0     0  0  0  0  0  0999 V2000
   13.1334   15.4068   20.1283 C   0  0  0  0  0  0  0  0  0  0  0  0
   14.0321   15.1874   21.1922 C   0  0  0  0  0  0  0  0  0  0  0  0
    5.9233   12.6771   23.4331 C   0  0  0  0  0  0  0  0  0  0  0  0
   11.7520   15.4024   20.3419 C   0  0  0  0  0  0  0  0  0  0  0  0
   13.5671   14.9597   22.4906 C   0  0  0  0  0  0  0  0  0  0  0  0
    6.7489   13.7642   23.7706 C   0  0  0  0  0  0  0  0  0  0  0  0
    6.4376   11.3789   23.3923 C   0  0  0  0  0  0  0  0  0  0  0  0
   11.3160   15.1759   21.6311 C   0  0  0  0  0  0  0  0  0  0  0  0
   12.2002   14.9604   22.6780 C   0  0  0  0  0  0  0  0  0  0  0  0
    8.0987   13.5663   24.0710 C   0  0  0  0  0  0  0  0  0  0  0  0
    7.7734   11.2096   23.6932 C   0  0  0  0  0  0  0  0  0  0  0  0
    8.5824   12.2750   24.0236 C   0  0  0  0  0  0  0  0  0  0  0  0
    9.9564   15.1105   22.1655 C   0  0  0  0  0  0  0  0  0  0  0  0
   11.4184   14.7541   23.8970 C   0  0  0  0  0  0  0  0  0  0  0  0
    9.7553   10.4764   24.0768 C   0  0  0  0  0  0  0  0  0  0  0  0
    8.9821   14.7262   24.4295 C   0  0  0  0  0  0  0  0  0  0  0  0
   10.0981   14.8610   23.5147 N   0  0  0  0  0  0  0  0  0  0  0  0
    8.9509   15.2565   21.4958 O   0  0  0  0  0  0  0  0  0  0  0  0
   11.9074   14.5369   24.9901 O   0  0  0  0  0  0  0  0  0  0  0  0
    8.4452   10.0251   23.7044 O   0  0  0  0  0  0  0  0  0  0  0  0
    9.8633   11.8922   24.2834 O   0  0  0  0  0  0  0  0  0  0  0  0
   10.6308   10.1117   23.1069 F   0  0  0  0  0  0  0  0  0  0  0  0
   10.1239    9.8429   25.2183 F   0  0  0  0  0  0  0  0  0  0  0  0
   13.5228   15.5814   19.1285 H   0  0  0  0  0  0  0  0  0  0  0  0
   15.1014   15.1956   20.9975 H   0  0  0  0  0  0  0  0  0  0  0  0
    4.8759   12.8510   23.2015 H   0  0  0  0  0  0  0  0  0  0  0  0
   11.0615   15.5706   19.5237 H   0  0  0  0  0  0  0  0  0  0  0  0
   14.2581   14.7910   23.3079 H   0  0  0  0  0  0  0  0  0  0  0  0
    6.3223   14.7641   23.7957 H   0  0  0  0  0  0  0  0  0  0  0  0
    5.8044   10.5386   23.1319 H   0  0  0  0  0  0  0  0  0  0  0  0
    8.4154   15.6634   24.4106 H   0  0  0  0  0  0  0  0  0  0  0  0
    9.3892   14.6126   25.4397 H   0  0  0  0  0  0  0  0  0  0  0  0
  1  2  1  0  0  0  0
  1  4  2  0  0  0  0
  2  5  2  0  0  0  0
  3  6  1  0  0  0  0
  3  7  2  0  0  0  0
  4  8  1  0  0  0  0
  5  9  1  0  0  0  0
  6 10  2  0  0  0  0
  7 11  1  0  0  0  0
  8  9  2  0  0  0  0
  8 13  1  0  0  0  0
  9 14  1  0  0  0  0
 10 12  1  0  0  0  0
 10 16  1  0  0  0  0
 11 12  2  0  0  0  0
 11 20  1  0  0  0  0
 12 21  1  0  0  0  0
 13 17  1  0  0  0  0
 13 18  2  0  0  0  0
 14 17  1  0  0  0  0
 14 19  2  0  0  0  0
 15 20  1  0  0  0  0
 15 21  1  0  0  0  0
 15 22  1  0  0  0  0
 15 23  1  0  0  0  0
 16 17  1  0  0  0  0
  1 24  1  0  0  0  0
  2 25  1  0  0  0  0
  3 26  1  0  0  0  0
  4 27  1  0  0  0  0
  5 28  1  0  0  0  0
  6 29  1  0  0  0  0
  7 30  1  0  0  0  0
 16 31  1  0  0  0  0
 16 32  1  0  0  0  0
M  END
> <id>
EN300-307058

> <smiles>
FC1(F)OC=2C=CC=C(CN3C(=O)C=4C=CC=CC4C3=O)C2O1

> <MDLNUMBER>
MFCD30178375

> <IUPAC Name>
2-[(2,2-difluoro-1,3-dioxaindan-4-yl)methyl]-2,3-dihydro-1H-isoindole-1,3-dione

> <CAS>
531508-60-8

> <Purity>
95

> <URL>
https://www.enaminestore.com/catalog/EN300-307058

> <ROCS_ShapeQuery>
x0446_0A_x1080_0A_x0929_0A_x0812_0A_x0719_0A_x1140_0A_x0528_0A_x0310_0A

> <ROCS_TanimotoCombo>
0.410 

> <ROCS_ShapeTanimoto>
0.235 

> <ROCS_ColorTanimoto>
0.174 

> <ROCS_RefTversky>
0.218 

> <ROCS_RefColorTversky>
0.188 

> <ROCS_RefTverskyCombo>
0.405 

> <ROCS_FitTversky>
1.536 

> <ROCS_FitColorTversky>
0.706 

> <ROCS_FitTverskyCombo>
2.242 

> <ROCS_ColorScore>
-6.714

> <ROCS_Overlap>
2571.221

> <ROCS_Rank>
480                 

$$$$
untitled-dbase-514751_0
  -OEChem-02082415563D

 31 33  0     1  0  0  0  0  0999 V2000
   12.3810   14.0239   22.2155 C   0  0  0  0  0  0  0  0  0  0  0  0
   11.6222   13.0293   22.8323 C   0  0  0  0  0  0  0  0  0  0  0  0
   11.7510   15.1354   21.6556 C   0  0  0  0  0  0  0  0  0  0  0  0
    9.6033   14.2575   22.3293 C   0  0  0  0  0  0  0  0  0  0  0  0
   10.2334   13.1460   22.8892 C   0  0  0  0  0  0  0  0  0  0  0  0
   10.3622   15.2522   21.7125 C   0  0  0  0  0  0  0  0  0  0  0  0
    6.9122   12.9028   24.0834 C   0  0  0  0  0  0  0  0  0  0  0  0
    9.9750   11.2061   24.7533 C   0  0  0  0  0  0  0  0  0  0  0  0
    8.8020   11.0020   22.6142 C   0  0  0  0  0  0  0  0  0  0  0  0
    8.2641   12.4030   24.6038 C   0  0  1  0  0  0  0  0  0  0  0  0
    8.4502   10.8472   24.8210 C   0  0  1  0  0  0  0  0  0  0  0  0
    9.4099   12.0672   23.5588 C   0  0  2  0  0  0  0  0  0  0  0  0
    8.3250   16.3925   21.2596 C   0  0  0  0  0  0  0  0  0  0  0  0
    6.0612   12.2027   23.5553 O   0  0  0  0  0  0  0  0  0  0  0  0
    8.1206   10.1782   23.5759 O   0  0  0  0  0  0  0  0  0  0  0  0
    6.7849   14.2370   24.2859 O   0  0  0  0  0  0  0  0  0  0  0  0
    9.7476   16.3366   21.1660 O   0  0  0  0  0  0  0  0  0  0  0  0
   13.4623   13.9332   22.1713 H   0  0  0  0  0  0  0  0  0  0  0  0
   12.1197   12.1664   23.2661 H   0  0  0  0  0  0  0  0  0  0  0  0
   12.3478   15.9065   21.1760 H   0  0  0  0  0  0  0  0  0  0  0  0
    8.5209   14.3504   22.3718 H   0  0  0  0  0  0  0  0  0  0  0  0
   10.3976   11.7480   25.6067 H   0  0  0  0  0  0  0  0  0  0  0  0
   10.6454   10.3838   24.4853 H   0  0  0  0  0  0  0  0  0  0  0  0
    8.0807   11.4185   21.9049 H   0  0  0  0  0  0  0  0  0  0  0  0
    9.5629   10.4108   22.0958 H   0  0  0  0  0  0  0  0  0  0  0  0
    8.5819   13.0268   25.4526 H   0  0  0  0  0  0  0  0  0  0  0  0
    8.0536   10.3744   25.7189 H   0  0  0  0  0  0  0  0  0  0  0  0
    7.9635   17.3078   20.7846 H   0  0  0  0  0  0  0  0  0  0  0  0
    8.0270   16.3727   22.3109 H   0  0  0  0  0  0  0  0  0  0  0  0
    7.9007   15.5263   20.7463 H   0  0  0  0  0  0  0  0  0  0  0  0
    5.9255   14.5771   23.9573 H   0  0  0  0  0  0  0  0  0  0  0  0
  1  2  1  0  0  0  0
  1  3  2  0  0  0  0
  2  5  2  0  0  0  0
  3  6  1  0  0  0  0
  4  5  1  0  0  0  0
  4  6  2  0  0  0  0
  5 12  1  1  0  0  0
  6 17  1  0  0  0  0
  7 10  1  6  0  0  0
  7 14  2  0  0  0  0
  7 16  1  0  0  0  0
  8 11  1  1  0  0  0
  8 12  1  0  0  0  0
  9 12  1  0  0  0  0
  9 15  1  0  0  0  0
 10 11  1  0  0  0  0
 10 12  1  0  0  0  0
 11 15  1  0  0  0  0
 13 17  1  0  0  0  0
  1 18  1  0  0  0  0
  2 19  1  0  0  0  0
  3 20  1  0  0  0  0
  4 21  1  0  0  0  0
  8 22  1  0  0  0  0
  8 23  1  0  0  0  0
  9 24  1  0  0  0  0
  9 25  1  0  0  0  0
 10 26  1  0  0  0  0
 11 27  1  0  0  0  0
 13 28  1  0  0  0  0
 13 29  1  0  0  0  0
 13 30  1  0  0  0  0
 16 31  1  0  0  0  0
M  END
> <id>
EN300-28221254

> <smiles>
COC=1C=CC=C(C1)[C@@]2(C[C@@H]3OC2)[C@H]3C(=O)O |&1:8,10,13,r|

> <IUPAC Name>
rac-(1R,4S,5S)-4-(3-methoxyphenyl)-2-oxabicyclo[2.1.1]hexane-5-carboxylic acid

> <CAS>
2679950-07-1

> <Purity>
95

> <URL>
https://www.enaminestore.com/catalog/EN300-28221254

> <ROCS_ShapeQuery>
x0446_0A_x1080_0A_x0929_0A_x0812_0A_x0719_0A_x1140_0A_x0528_0A_x0310_0A

> <ROCS_TanimotoCombo>
0.410 

> <ROCS_ShapeTanimoto>
0.228 

> <ROCS_ColorTanimoto>
0.182 

> <ROCS_RefTversky>
0.207 

> <ROCS_RefColorTversky>
0.214 

> <ROCS_RefTverskyCombo>
0.421 

> <ROCS_FitTversky>
1.804 

> <ROCS_FitColorTversky>
0.550 

> <ROCS_FitTverskyCombo>
2.353 

> <ROCS_ColorScore>
-7.695

> <ROCS_Overlap>
2439.475

> <ROCS_Rank>
481                 

$$$$
untitled-dbase-105425_5
  -OEChem-02082415563D

 56 61  0     1  0  0  0  0  0999 V2000
    4.2123   11.1467   18.3541 C   0  0  0  0  0  0  0  0  0  0  0  0
    6.4306   16.1253   20.8193 C   0  0  0  0  0  0  0  0  0  0  0  0
    3.3234   10.5523   19.2649 C   0  0  0  0  0  0  0  0  0  0  0  0
    5.8749   16.2781   22.1004 C   0  0  0  0  0  0  0  0  0  0  0  0
    4.8812   12.3320   18.6732 C   0  0  0  0  0  0  0  0  0  0  0  0
    6.0863   15.0369   20.0126 C   0  0  0  0  0  0  0  0  0  0  0  0
    3.0870   11.1303   20.5135 C   0  0  0  0  0  0  0  0  0  0  0  0
    4.9652   15.3448   22.6006 C   0  0  0  0  0  0  0  0  0  0  0  0
    4.6471   12.9060   19.9123 C   0  0  0  0  0  0  0  0  0  0  0  0
    5.1837   14.1102   20.5086 C   0  0  0  0  0  0  0  0  0  0  0  0
    3.7562   12.3019   20.8280 C   0  0  0  0  0  0  0  0  0  0  0  0
    4.6310   14.2646   21.8000 C   0  0  0  0  0  0  0  0  0  0  0  0
   11.6081   14.0816   23.3615 C   0  0  0  0  0  0  0  0  0  0  0  0
   12.4563   15.2744   23.5565 C   0  0  0  0  0  0  0  0  0  0  0  0
    6.1250   11.7403   24.3438 C   0  0  0  0  0  0  0  0  0  0  0  0
   10.1631   14.2098   23.1017 C   0  0  0  0  0  0  0  0  0  0  0  0
    8.8945    9.8324   23.0827 C   0  0  0  0  0  0  0  0  0  0  0  0
    9.2706    9.9837   24.5704 C   0  0  0  0  0  0  0  0  0  0  0  0
    8.7098   12.2741   22.3402 C   0  0  0  0  0  0  0  0  0  0  0  0
    9.3357   12.5275   24.8438 C   0  0  0  0  0  0  0  0  0  0  0  0
    3.6663   13.1271   22.1038 C   0  0  0  0  0  0  0  0  0  0  0  0
    7.9543   11.0067   22.7929 C   0  0  2  0  0  0  0  0  0  0  0  0
    8.5186   11.2330   25.0426 C   0  0  1  0  0  0  0  0  0  0  0  0
    9.7686   12.7602   23.3653 C   0  0  0  0  0  0  0  0  0  0  0  0
    4.0599   12.3413   23.3364 C   0  0  0  0  0  0  0  0  0  0  0  0
   12.0930   12.8897   23.3685 N   0  0  0  0  0  0  0  0  0  0  0  0
    7.4098   11.2936   24.1054 N   0  0  0  0  0  0  0  0  0  0  0  0
   13.4497   15.2944   24.2490 O   0  0  0  0  0  0  0  0  0  0  0  0
    5.6735   11.9805   25.4612 O   0  0  0  0  0  0  0  0  0  0  0  0
   10.9960   12.0244   23.1306 O   0  0  0  0  0  0  0  0  0  0  0  0
   11.9445   16.2995   22.8511 O   0  0  0  0  0  0  0  0  0  0  0  0
    5.4082   11.8831   23.1867 O   0  0  0  0  0  0  0  0  0  0  0  0
    4.3799   10.6789   17.3874 H   0  0  0  0  0  0  0  0  0  0  0  0
    7.1369   16.8646   20.4506 H   0  0  0  0  0  0  0  0  0  0  0  0
    2.8130    9.6326   18.9912 H   0  0  0  0  0  0  0  0  0  0  0  0
    6.1571   17.1347   22.7068 H   0  0  0  0  0  0  0  0  0  0  0  0
    5.5636   12.7802   17.9587 H   0  0  0  0  0  0  0  0  0  0  0  0
    6.5224   14.9333   19.0245 H   0  0  0  0  0  0  0  0  0  0  0  0
    2.3965   10.6703   21.2117 H   0  0  0  0  0  0  0  0  0  0  0  0
    4.5349   15.4695   23.5882 H   0  0  0  0  0  0  0  0  0  0  0  0
    9.6774   14.9333   23.7596 H   0  0  0  0  0  0  0  0  0  0  0  0
   10.0286   14.5071   22.0566 H   0  0  0  0  0  0  0  0  0  0  0  0
    9.7740    9.8144   22.4321 H   0  0  0  0  0  0  0  0  0  0  0  0
    8.3643    8.8824   22.9435 H   0  0  0  0  0  0  0  0  0  0  0  0
    8.9168    9.1022   25.1186 H   0  0  0  0  0  0  0  0  0  0  0  0
   10.3522   10.0498   24.7209 H   0  0  0  0  0  0  0  0  0  0  0  0
    9.1883   12.0762   21.3730 H   0  0  0  0  0  0  0  0  0  0  0  0
    7.9689   13.0688   22.1803 H   0  0  0  0  0  0  0  0  0  0  0  0
    8.7153   13.3688   25.1791 H   0  0  0  0  0  0  0  0  0  0  0  0
   10.2155   12.4928   25.4981 H   0  0  0  0  0  0  0  0  0  0  0  0
    2.6519   13.5323   22.1987 H   0  0  0  0  0  0  0  0  0  0  0  0
    7.1697   10.7503   22.0744 H   0  0  0  0  0  0  0  0  0  0  0  0
    8.1812   11.1470   26.0796 H   0  0  0  0  0  0  0  0  0  0  0  0
    3.4051   11.4740   23.4639 H   0  0  0  0  0  0  0  0  0  0  0  0
    3.9986   12.9709   24.2290 H   0  0  0  0  0  0  0  0  0  0  0  0
   12.4829   17.1127   22.9564 H   0  0  0  0  0  0  0  0  0  0  0  0
  1  3  1  0  0  0  0
  1  5  2  0  0  0  0
  2  4  1  0  0  0  0
  2  6  2  0  0  0  0
  3  7  2  0  0  0  0
  4  8  2  0  0  0  0
  5  9  1  0  0  0  0
  6 10  1  0  0  0  0
  7 11  1  0  0  0  0
  8 12  1  0  0  0  0
  9 10  1  0  0  0  0
  9 11  2  0  0  0  0
 10 12  2  0  0  0  0
 11 21  1  0  0  0  0
 12 21  1  0  0  0  0
 13 14  1  0  0  0  0
 13 16  1  0  0  0  0
 13 26  2  0  0  0  0
 14 28  2  0  0  0  0
 14 31  1  0  0  0  0
 15 27  1  0  0  0  0
 15 29  2  0  0  0  0
 15 32  1  0  0  0  0
 16 24  1  0  0  0  0
 17 18  1  0  0  0  0
 17 22  1  0  0  0  0
 18 23  1  0  0  0  0
 19 22  1  0  0  0  0
 19 24  1  0  0  0  0
 20 23  1  0  0  0  0
 20 24  1  0  0  0  0
 21 25  1  0  0  0  0
 22 27  1  0  0  0  0
 23 27  1  0  0  0  0
 24 30  1  0  0  0  0
 25 32  1  0  0  0  0
 26 30  1  0  0  0  0
  1 33  1  0  0  0  0
  2 34  1  0  0  0  0
  3 35  1  0  0  0  0
  4 36  1  0  0  0  0
  5 37  1  0  0  0  0
  6 38  1  0  0  0  0
  7 39  1  0  0  0  0
  8 40  1  0  0  0  0
 16 41  1  0  0  0  0
 16 42  1  0  0  0  0
 17 43  1  0  0  0  0
 17 44  1  0  0  0  0
 18 45  1  0  0  0  0
 18 46  1  0  0  0  0
 19 47  1  0  0  0  0
 19 48  1  0  0  0  0
 20 49  1  0  0  0  0
 20 50  1  0  0  0  0
 21 51  1  0  0  0  0
 22 52  1  0  0  0  0
 23 53  1  0  0  0  0
 25 54  1  0  0  0  0
 25 55  1  0  0  0  0
 31 56  1  0  0  0  0
M  END
> <id>
EN300-1083187

> <smiles>
OC(=O)C1=NOC2(C1)CC3CCC(C2)N3C(=O)OCC4C=5C=CC=CC5C=6C=CC=CC46

> <IUPAC Name>
8-{[(9H-fluoren-9-yl)methoxy]carbonyl}-3'H-8-azaspiro[bicyclo[3.2.1]octane-3,2'-[1,5]oxazole]-4'-carboxylic acid

> <CAS>
2649023-36-7

> <URL>
https://www.enaminestore.com/catalog/EN300-1083187

> <ROCS_ShapeQuery>
x0446_0A_x1080_0A_x0929_0A_x0812_0A_x0719_0A_x1140_0A_x0528_0A_x0310_0A

> <ROCS_TanimotoCombo>
0.410 

> <ROCS_ShapeTanimoto>
0.255 

> <ROCS_ColorTanimoto>
0.155 

> <ROCS_RefTversky>
0.238 

> <ROCS_RefColorTversky>
0.194 

> <ROCS_RefTverskyCombo>
0.432 

> <ROCS_FitTversky>
1.375 

> <ROCS_FitColorTversky>
0.437 

> <ROCS_FitTverskyCombo>
1.812 

> <ROCS_ColorScore>
-6.981

> <ROCS_Overlap>
2820.193

> <ROCS_Rank>
482                 

$$$$
untitled-dbase-279358_3
  -OEChem-02082415563D

 32 35  0     0  0  0  0  0  0999 V2000
   14.3029   16.5100   21.0229 C   0  0  0  0  0  0  0  0  0  0  0  0
   13.2710   17.1115   20.2720 C   0  0  0  0  0  0  0  0  0  0  0  0
   14.0214   15.5285   21.9779 C   0  0  0  0  0  0  0  0  0  0  0  0
   11.9351   16.7447   20.4596 C   0  0  0  0  0  0  0  0  0  0  0  0
    6.7467    9.7154   24.6734 C   0  0  0  0  0  0  0  0  0  0  0  0
    7.7894    9.1763   23.9138 C   0  0  0  0  0  0  0  0  0  0  0  0
    7.1884   13.2738   24.4730 C   0  0  0  0  0  0  0  0  0  0  0  0
    6.0714   13.1379   25.2644 C   0  0  0  0  0  0  0  0  0  0  0  0
    7.6026   11.9582   24.1359 C   0  0  0  0  0  0  0  0  0  0  0  0
   12.6981   15.1787   22.1453 C   0  0  0  0  0  0  0  0  0  0  0  0
   11.6790   15.7728   21.4038 C   0  0  0  0  0  0  0  0  0  0  0  0
    8.6430   11.3945   23.3768 C   0  0  0  0  0  0  0  0  0  0  0  0
    6.6944   11.1056   24.7552 C   0  0  0  0  0  0  0  0  0  0  0  0
    8.7218    9.9987   23.2762 C   0  0  0  0  0  0  0  0  0  0  0  0
   12.0875   14.2068   23.0579 C   0  0  0  0  0  0  0  0  0  0  0  0
   10.4049   15.1879   21.8339 C   0  0  0  0  0  0  0  0  0  0  0  0
    9.6419   12.2546   22.6931 C   0  0  0  0  0  0  0  0  0  0  0  0
   10.7612   14.2614   22.7631 N   0  0  0  0  0  0  0  0  0  0  0  0
   12.6959   13.5261   23.8600 O   0  0  0  0  0  0  0  0  0  0  0  0
    9.3135   15.4989   21.3992 O   0  0  0  0  0  0  0  0  0  0  0  0
   10.2023   11.9340   21.6560 O   0  0  0  0  0  0  0  0  0  0  0  0
    5.7634   11.8266   25.4414 O   0  0  0  0  0  0  0  0  0  0  0  0
    9.8384   13.4320   23.3667 O   0  0  0  0  0  0  0  0  0  0  0  0
    9.7044    9.4336   22.5588 F   0  0  0  0  0  0  0  0  0  0  0  0
   15.3320   16.8172   20.8554 H   0  0  0  0  0  0  0  0  0  0  0  0
   13.5211   17.8729   19.5376 H   0  0  0  0  0  0  0  0  0  0  0  0
   14.8145   15.0690   22.5558 H   0  0  0  0  0  0  0  0  0  0  0  0
   11.1431   17.2093   19.8843 H   0  0  0  0  0  0  0  0  0  0  0  0
    6.0202    9.0838   25.1708 H   0  0  0  0  0  0  0  0  0  0  0  0
    7.8767    8.0970   23.8179 H   0  0  0  0  0  0  0  0  0  0  0  0
    7.6466   14.2071   24.1775 H   0  0  0  0  0  0  0  0  0  0  0  0
    5.4139   13.8414   25.7541 H   0  0  0  0  0  0  0  0  0  0  0  0
  1  2  1  0  0  0  0
  1  3  2  0  0  0  0
  2  4  2  0  0  0  0
  3 10  1  0  0  0  0
  4 11  1  0  0  0  0
  5  6  2  0  0  0  0
  5 13  1  0  0  0  0
  6 14  1  0  0  0  0
  7  8  2  0  0  0  0
  7  9  1  0  0  0  0
  8 22  1  0  0  0  0
  9 12  1  0  0  0  0
  9 13  2  0  0  0  0
 10 11  2  0  0  0  0
 10 15  1  0  0  0  0
 11 16  1  0  0  0  0
 12 14  2  0  0  0  0
 12 17  1  0  0  0  0
 13 22  1  0  0  0  0
 14 24  1  0  0  0  0
 15 18  1  0  0  0  0
 15 19  2  0  0  0  0
 16 18  1  0  0  0  0
 16 20  2  0  0  0  0
 17 21  2  0  0  0  0
 17 23  1  0  0  0  0
 18 23  1  0  0  0  0
  1 25  1  0  0  0  0
  2 26  1  0  0  0  0
  3 27  1  0  0  0  0
  4 28  1  0  0  0  0
  5 29  1  0  0  0  0
  6 30  1  0  0  0  0
  7 31  1  0  0  0  0
  8 32  1  0  0  0  0
M  END
> <id>
EN300-6517384

> <smiles>
FC=1C=CC=2OC=CC2C1C(=O)ON3C(=O)C=4C=CC=CC4C3=O

> <IUPAC Name>
1,3-dioxo-2,3-dihydro-1H-isoindol-2-yl 5-fluoro-1-benzofuran-4-carboxylate

> <CAS>
2248355-20-4

> <URL>
https://www.enaminestore.com/catalog/EN300-6517384

> <ROCS_ShapeQuery>
x0446_0A_x1080_0A_x0929_0A_x0812_0A_x0719_0A_x1140_0A_x0528_0A_x0310_0A

> <ROCS_TanimotoCombo>
0.410 

> <ROCS_ShapeTanimoto>
0.260 

> <ROCS_ColorTanimoto>
0.150 

> <ROCS_RefTversky>
0.236 

> <ROCS_RefColorTversky>
0.165 

> <ROCS_RefTverskyCombo>
0.401 

> <ROCS_FitTversky>
1.623 

> <ROCS_FitColorTversky>
0.620 

> <ROCS_FitTverskyCombo>
2.243 

> <ROCS_ColorScore>
-5.888

> <ROCS_Overlap>
2794.115

> <ROCS_Rank>
483                 

$$$$
untitled-dbase-255607_4
  -OEChem-02082415563D

 40 42  0     0  0  0  0  0  0999 V2000
   13.3603   18.5437   20.9319 C   0  0  0  0  0  0  0  0  0  0  0  0
   14.5124   17.7377   21.0478 C   0  0  0  0  0  0  0  0  0  0  0  0
   12.0809   17.9957   21.0631 C   0  0  0  0  0  0  0  0  0  0  0  0
   14.4104   16.3660   21.2974 C   0  0  0  0  0  0  0  0  0  0  0  0
   12.0020   16.6417   21.3123 C   0  0  0  0  0  0  0  0  0  0  0  0
   13.1398   15.8456   21.4266 C   0  0  0  0  0  0  0  0  0  0  0  0
   10.8273   15.7817   21.4879 C   0  0  0  0  0  0  0  0  0  0  0  0
   12.7059   14.4674   21.6764 C   0  0  0  0  0  0  0  0  0  0  0  0
    9.4822   12.1512   23.6167 C   0  0  0  0  0  0  0  0  0  0  0  0
    8.2835   12.2680   24.2145 C   0  0  0  0  0  0  0  0  0  0  0  0
    7.5218   10.9860   24.3806 C   0  0  0  0  0  0  0  0  0  0  0  0
    9.9655   10.8096   23.1796 C   0  0  0  0  0  0  0  0  0  0  0  0
   10.3319   13.3306   23.3725 C   0  0  0  0  0  0  0  0  0  0  0  0
    6.5659   13.9931   23.7910 C   0  0  0  0  0  0  0  0  0  0  0  0
    6.1474   10.1527   26.2573 C   0  0  0  0  0  0  0  0  0  0  0  0
    7.6438   13.5219   24.7396 C   0  0  0  0  0  0  0  0  0  0  0  0
    6.1563   11.0344   25.0353 C   0  0  0  0  0  0  0  0  0  0  0  0
    7.9304    9.8172   24.0069 N   0  0  0  0  0  0  0  0  0  0  0  0
    9.1372    9.7448   23.4184 N   0  0  0  0  0  0  0  0  0  0  0  0
   11.3501   14.5513   21.7367 N   0  0  0  0  0  0  0  0  0  0  0  0
    9.6732   16.1576   21.4287 O   0  0  0  0  0  0  0  0  0  0  0  0
   13.4500   13.5155   21.8074 O   0  0  0  0  0  0  0  0  0  0  0  0
   11.0597   10.6829   22.6315 O   0  0  0  0  0  0  0  0  0  0  0  0
   10.7443   14.0499   24.2629 O   0  0  0  0  0  0  0  0  0  0  0  0
   10.5389   13.4350   22.0378 O   0  0  0  0  0  0  0  0  0  0  0  0
   13.4718   19.6072   20.7362 H   0  0  0  0  0  0  0  0  0  0  0  0
   15.4937   18.1927   20.9396 H   0  0  0  0  0  0  0  0  0  0  0  0
   11.1966   18.6152   20.9714 H   0  0  0  0  0  0  0  0  0  0  0  0
   15.2958   15.7475   21.3834 H   0  0  0  0  0  0  0  0  0  0  0  0
    6.9974   14.2087   22.8088 H   0  0  0  0  0  0  0  0  0  0  0  0
    6.0823   14.9032   24.1619 H   0  0  0  0  0  0  0  0  0  0  0  0
    5.7881   13.2326   23.6646 H   0  0  0  0  0  0  0  0  0  0  0  0
    6.3531    9.1182   25.9659 H   0  0  0  0  0  0  0  0  0  0  0  0
    5.1768   10.1812   26.7640 H   0  0  0  0  0  0  0  0  0  0  0  0
    6.9083   10.4629   26.9811 H   0  0  0  0  0  0  0  0  0  0  0  0
    7.2305   13.3022   25.7248 H   0  0  0  0  0  0  0  0  0  0  0  0
    8.4271   14.2738   24.8438 H   0  0  0  0  0  0  0  0  0  0  0  0
    5.9548   12.0719   25.2887 H   0  0  0  0  0  0  0  0  0  0  0  0
    5.4366   10.6953   24.2946 H   0  0  0  0  0  0  0  0  0  0  0  0
    9.4158    8.8088   23.1419 H   0  0  0  0  0  0  0  0  0  0  0  0
  1  2  1  0  0  0  0
  1  3  2  0  0  0  0
  2  4  2  0  0  0  0
  3  5  1  0  0  0  0
  4  6  1  0  0  0  0
  5  6  2  0  0  0  0
  5  7  1  0  0  0  0
  6  8  1  0  0  0  0
  7 20  1  0  0  0  0
  7 21  2  0  0  0  0
  8 20  1  0  0  0  0
  8 22  2  0  0  0  0
  9 10  2  0  0  0  0
  9 12  1  0  0  0  0
  9 13  1  0  0  0  0
 10 11  1  0  0  0  0
 10 16  1  0  0  0  0
 11 17  1  0  0  0  0
 11 18  2  0  0  0  0
 12 19  1  0  0  0  0
 12 23  2  0  0  0  0
 13 24  2  0  0  0  0
 13 25  1  0  0  0  0
 14 16  1  0  0  0  0
 15 17  1  0  0  0  0
 18 19  1  0  0  0  0
 20 25  1  0  0  0  0
  1 26  1  0  0  0  0
  2 27  1  0  0  0  0
  3 28  1  0  0  0  0
  4 29  1  0  0  0  0
 14 30  1  0  0  0  0
 14 31  1  0  0  0  0
 14 32  1  0  0  0  0
 15 33  1  0  0  0  0
 15 34  1  0  0  0  0
 15 35  1  0  0  0  0
 16 36  1  0  0  0  0
 16 37  1  0  0  0  0
 17 38  1  0  0  0  0
 17 39  1  0  0  0  0
 19 40  1  0  0  0  0
M  END
> <id>
EN300-6518644

> <smiles>
CCC1=NNC(=O)C(C(=O)ON2C(=O)C=3C=CC=CC3C2=O)=C1CC

> <IUPAC Name>
1,3-dioxo-2,3-dihydro-1H-isoindol-2-yl 5,6-diethyl-3-oxo-2,3-dihydropyridazine-4-carboxylate

> <CAS>
2248327-57-1

> <URL>
https://www.enaminestore.com/catalog/EN300-6518644

> <ROCS_ShapeQuery>
x0446_0A_x1080_0A_x0929_0A_x0812_0A_x0719_0A_x1140_0A_x0528_0A_x0310_0A

> <ROCS_TanimotoCombo>
0.410 

> <ROCS_ShapeTanimoto>
0.260 

> <ROCS_ColorTanimoto>
0.149 

> <ROCS_RefTversky>
0.237 

> <ROCS_RefColorTversky>
0.175 

> <ROCS_RefTverskyCombo>
0.411 

> <ROCS_FitTversky>
1.621 

> <ROCS_FitColorTversky>
0.509 

> <ROCS_FitTverskyCombo>
2.130 

> <ROCS_ColorScore>
-6.269

> <ROCS_Overlap>
2796.565

> <ROCS_Rank>
484                 

$$$$
untitled-dbase-263454_0
  -OEChem-02082415563D

 48 51  0     0  0  0  0  0  0999 V2000
    9.6702   14.2262   22.1057 C   0  0  0  0  0  0  0  0  0  0  0  0
    7.8745   11.5014   24.9375 C   0  0  0  0  0  0  0  0  0  0  0  0
    8.0796   10.2537   22.7712 C   0  0  0  0  0  0  0  0  0  0  0  0
   10.0747   10.4980   24.2709 C   0  0  0  0  0  0  0  0  0  0  0  0
    7.7800   12.7433   22.7607 C   0  0  0  0  0  0  0  0  0  0  0  0
    9.7785   12.9880   24.2630 C   0  0  0  0  0  0  0  0  0  0  0  0
    9.9835   11.7396   22.0931 C   0  0  0  0  0  0  0  0  0  0  0  0
   11.4565   15.7869   21.4086 C   0  0  0  0  0  0  0  0  0  0  0  0
   12.1210   13.6776   22.4920 C   0  0  0  0  0  0  0  0  0  0  0  0
   12.4926   16.5244   22.2561 C   0  0  0  0  0  0  0  0  0  0  0  0
   13.1496   14.4552   23.3150 C   0  0  0  0  0  0  0  0  0  0  0  0
    7.3950   11.4372   23.4770 C   0  0  0  0  0  0  0  0  0  0  0  0
    9.4015   11.6828   24.9854 C   0  0  0  0  0  0  0  0  0  0  0  0
    9.6079   10.4287   22.8064 C   0  0  0  0  0  0  0  0  0  0  0  0
    9.3094   12.9346   22.7953 C   0  0  0  0  0  0  0  0  0  0  0  0
   15.1589   17.5300   22.6120 C   0  0  0  0  0  0  0  0  0  0  0  0
   14.6253   16.3604   23.3670 C   0  0  0  0  0  0  0  0  0  0  0  0
   11.0256   14.5487   22.0560 N   0  0  0  0  0  0  0  0  0  0  0  0
   13.6209   15.6411   22.5847 N   0  0  0  0  0  0  0  0  0  0  0  0
    8.7739   14.9276   21.6299 O   0  0  0  0  0  0  0  0  0  0  0  0
    7.3822   12.3328   25.4569 H   0  0  0  0  0  0  0  0  0  0  0  0
    7.5904   10.5827   25.4650 H   0  0  0  0  0  0  0  0  0  0  0  0
    7.7992    9.3131   23.2610 H   0  0  0  0  0  0  0  0  0  0  0  0
    7.7343   10.1869   21.7322 H   0  0  0  0  0  0  0  0  0  0  0  0
   11.1656   10.6070   24.3114 H   0  0  0  0  0  0  0  0  0  0  0  0
    9.8294    9.5616   24.7867 H   0  0  0  0  0  0  0  0  0  0  0  0
    7.4216   12.7211   21.7231 H   0  0  0  0  0  0  0  0  0  0  0  0
    7.2768   13.5932   23.2405 H   0  0  0  0  0  0  0  0  0  0  0  0
    9.3248   13.8441   24.7795 H   0  0  0  0  0  0  0  0  0  0  0  0
   10.8645   13.1421   24.3109 H   0  0  0  0  0  0  0  0  0  0  0  0
   11.0745   11.8633   22.0899 H   0  0  0  0  0  0  0  0  0  0  0  0
    9.6768   11.6923   21.0399 H   0  0  0  0  0  0  0  0  0  0  0  0
   10.5603   16.4072   21.2738 H   0  0  0  0  0  0  0  0  0  0  0  0
   11.8715   15.6032   20.4142 H   0  0  0  0  0  0  0  0  0  0  0  0
   12.6105   13.2126   21.6317 H   0  0  0  0  0  0  0  0  0  0  0  0
   11.6754   12.8750   23.0905 H   0  0  0  0  0  0  0  0  0  0  0  0
   12.8361   17.4191   21.7217 H   0  0  0  0  0  0  0  0  0  0  0  0
   12.0053   16.8596   23.1786 H   0  0  0  0  0  0  0  0  0  0  0  0
   12.6726   14.7644   24.2539 H   0  0  0  0  0  0  0  0  0  0  0  0
   13.9875   13.7944   23.5781 H   0  0  0  0  0  0  0  0  0  0  0  0
    6.3077   11.3062   23.4495 H   0  0  0  0  0  0  0  0  0  0  0  0
    9.7369   11.7260   26.0275 H   0  0  0  0  0  0  0  0  0  0  0  0
   10.0893    9.5827   22.3037 H   0  0  0  0  0  0  0  0  0  0  0  0
   14.3356   18.2190   22.3725 H   0  0  0  0  0  0  0  0  0  0  0  0
   15.9071   18.0524   23.2263 H   0  0  0  0  0  0  0  0  0  0  0  0
   15.6282   17.1815   21.6801 H   0  0  0  0  0  0  0  0  0  0  0  0
   15.4542   15.6767   23.6026 H   0  0  0  0  0  0  0  0  0  0  0  0
   14.1660   16.7155   24.3014 H   0  0  0  0  0  0  0  0  0  0  0  0
  1 15  1  0  0  0  0
  1 18  1  0  0  0  0
  1 20  2  0  0  0  0
  2 12  1  0  0  0  0
  2 13  1  0  0  0  0
  3 12  1  0  0  0  0
  3 14  1  0  0  0  0
  4 13  1  0  0  0  0
  4 14  1  0  0  0  0
  5 12  1  0  0  0  0
  5 15  1  0  0  0  0
  6 13  1  0  0  0  0
  6 15  1  0  0  0  0
  7 14  1  0  0  0  0
  7 15  1  0  0  0  0
  8 10  1  0  0  0  0
  8 18  1  0  0  0  0
  9 11  1  0  0  0  0
  9 18  1  0  0  0  0
 10 19  1  0  0  0  0
 11 19  1  0  0  0  0
 16 17  1  0  0  0  0
 17 19  1  0  0  0  0
  2 21  1  0  0  0  0
  2 22  1  0  0  0  0
  3 23  1  0  0  0  0
  3 24  1  0  0  0  0
  4 25  1  0  0  0  0
  4 26  1  0  0  0  0
  5 27  1  0  0  0  0
  5 28  1  0  0  0  0
  6 29  1  0  0  0  0
  6 30  1  0  0  0  0
  7 31  1  0  0  0  0
  7 32  1  0  0  0  0
  8 33  1  0  0  0  0
  8 34  1  0  0  0  0
  9 35  1  0  0  0  0
  9 36  1  0  0  0  0
 10 37  1  0  0  0  0
 10 38  1  0  0  0  0
 11 39  1  0  0  0  0
 11 40  1  0  0  0  0
 12 41  1  0  0  0  0
 13 42  1  0  0  0  0
 14 43  1  0  0  0  0
 16 44  1  0  0  0  0
 16 45  1  0  0  0  0
 16 46  1  0  0  0  0
 17 47  1  0  0  0  0
 17 48  1  0  0  0  0
M  END
> <id>
EN300-26868238

> <smiles>
CCN1CCN(CC1)C(=O)C2(CC3CC4CC(C3)C2)C4

> <IUPAC Name>
1-(adamantane-1-carbonyl)-4-ethylpiperazine

> <CAS>
545360-38-1

> <URL>
https://www.enaminestore.com/catalog/EN300-26868238

> <ROCS_ShapeQuery>
x0446_0A_x1080_0A_x0929_0A_x0812_0A_x0719_0A_x1140_0A_x0528_0A_x0310_0A

> <ROCS_TanimotoCombo>
0.410 

> <ROCS_ShapeTanimoto>
0.233 

> <ROCS_ColorTanimoto>
0.176 

> <ROCS_RefTversky>
0.213 

> <ROCS_RefColorTversky>
0.195 

> <ROCS_RefTverskyCombo>
0.408 

> <ROCS_FitTversky>
1.702 

> <ROCS_FitColorTversky>
0.644 

> <ROCS_FitTverskyCombo>
2.347 

> <ROCS_ColorScore>
-6.997

> <ROCS_Overlap>
2511.948

> <ROCS_Rank>
485                 

$$$$
untitled-dbase-47148_2
  -OEChem-02082415563D

 30 32  0     0  0  0  0  0  0999 V2000
   12.1665   16.3647   21.7111 C   0  0  0  0  0  0  0  0  0  0  0  0
   11.0944   15.4707   21.9965 C   0  0  0  0  0  0  0  0  0  0  0  0
    7.4515   10.6096   24.4567 C   0  0  0  0  0  0  0  0  0  0  0  0
   13.3931   15.8139   22.0106 C   0  0  0  0  0  0  0  0  0  0  0  0
    7.5899   11.9895   24.2678 C   0  0  0  0  0  0  0  0  0  0  0  0
   11.5424   14.2705   22.5030 C   0  0  0  0  0  0  0  0  0  0  0  0
    8.8555   12.1501   23.7518 C   0  0  0  0  0  0  0  0  0  0  0  0
   11.4230   11.7522   22.7725 C   0  0  0  0  0  0  0  0  0  0  0  0
   10.7527   13.0827   22.9229 C   0  0  0  0  0  0  0  0  0  0  0  0
   10.7065   10.6835   23.1572 C   0  0  0  0  0  0  0  0  0  0  0  0
    6.6503   13.0360   24.5375 C   0  0  0  0  0  0  0  0  0  0  0  0
    4.4425   13.5113   25.3612 C   0  0  0  0  0  0  0  0  0  0  0  0
   11.2433    9.2867   23.0641 C   0  0  0  0  0  0  0  0  0  0  0  0
    8.5357    9.9265   24.0942 N   0  0  0  0  0  0  0  0  0  0  0  0
    9.5442   13.2609   23.3735 N   0  0  0  0  0  0  0  0  0  0  0  0
    9.4108   10.8741   23.6564 N   0  0  0  0  0  0  0  0  0  0  0  0
    6.8501   14.2550   24.3399 O   0  0  0  0  0  0  0  0  0  0  0  0
    5.4655   12.5590   25.0509 O   0  0  0  0  0  0  0  0  0  0  0  0
   12.4930    9.2846   22.5588 F   0  0  0  0  0  0  0  0  0  0  0  0
   11.2861    8.7042   24.2790 F   0  0  0  0  0  0  0  0  0  0  0  0
   10.4715    8.5228   22.2652 F   0  0  0  0  0  0  0  0  0  0  0  0
   13.2493   14.2252   22.6331 S   0  0  0  0  0  0  0  0  0  0  0  0
   12.0442   17.3615   21.3079 H   0  0  0  0  0  0  0  0  0  0  0  0
   10.0487   15.7016   21.8359 H   0  0  0  0  0  0  0  0  0  0  0  0
    6.6029   10.0645   24.8451 H   0  0  0  0  0  0  0  0  0  0  0  0
   14.3666   16.2691   21.8945 H   0  0  0  0  0  0  0  0  0  0  0  0
   12.4289   11.6909   22.3771 H   0  0  0  0  0  0  0  0  0  0  0  0
    3.5670   12.9908   25.7569 H   0  0  0  0  0  0  0  0  0  0  0  0
    4.1732   14.0653   24.4583 H   0  0  0  0  0  0  0  0  0  0  0  0
    4.8210   14.2071   26.1138 H   0  0  0  0  0  0  0  0  0  0  0  0
  1  2  1  0  0  0  0
  1  4  2  0  0  0  0
  2  6  2  0  0  0  0
  3  5  1  0  0  0  0
  3 14  2  0  0  0  0
  4 22  1  0  0  0  0
  5  7  2  0  0  0  0
  5 11  1  0  0  0  0
  6  9  1  0  0  0  0
  6 22  1  0  0  0  0
  7 15  1  0  0  0  0
  7 16  1  0  0  0  0
  8  9  1  0  0  0  0
  8 10  2  0  0  0  0
  9 15  2  0  0  0  0
 10 13  1  0  0  0  0
 10 16  1  0  0  0  0
 11 17  2  0  0  0  0
 11 18  1  0  0  0  0
 12 18  1  0  0  0  0
 13 19  1  0  0  0  0
 13 20  1  0  0  0  0
 13 21  1  0  0  0  0
 14 16  1  0  0  0  0
  1 23  1  0  0  0  0
  2 24  1  0  0  0  0
  3 25  1  0  0  0  0
  4 26  1  0  0  0  0
  8 27  1  0  0  0  0
 12 28  1  0  0  0  0
 12 29  1  0  0  0  0
 12 30  1  0  0  0  0
M  END
> <id>
EN300-231491

> <smiles>
COC(=O)C=1C=NN2C(=CC(=NC12)C3=CC=CS3)C(F)(F)F

> <MDLNUMBER>
MFCD01415081

> <IUPAC Name>
methyl 5-(thiophen-2-yl)-7-(trifluoromethyl)pyrazolo[1,5-a]pyrimidine-3-carboxylate

> <CAS>
333762-00-8

> <URL>
https://www.enaminestore.com/catalog/EN300-231491

> <ROCS_ShapeQuery>
x0446_0A_x1080_0A_x0929_0A_x0812_0A_x0719_0A_x1140_0A_x0528_0A_x0310_0A

> <ROCS_TanimotoCombo>
0.410 

> <ROCS_ShapeTanimoto>
0.262 

> <ROCS_ColorTanimoto>
0.147 

> <ROCS_RefTversky>
0.236 

> <ROCS_RefColorTversky>
0.156 

> <ROCS_RefTverskyCombo>
0.391 

> <ROCS_FitTversky>
1.750 

> <ROCS_FitColorTversky>
0.732 

> <ROCS_FitTverskyCombo>
2.483 

> <ROCS_ColorScore>
-5.552

> <ROCS_Overlap>
2784.177

> <ROCS_Rank>
486                 

$$$$
untitled-dbase-491109_7
  -OEChem-02082415563D

 50 52  0     1  0  0  0  0  0999 V2000
   11.5364   13.8982   21.4297 C   0  0  0  0  0  0  0  0  0  0  0  0
   11.7002   14.7020   23.7022 C   0  0  0  0  0  0  0  0  0  0  0  0
   11.3383   15.2042   20.9820 C   0  0  0  0  0  0  0  0  0  0  0  0
   11.5021   16.0081   23.2545 C   0  0  0  0  0  0  0  0  0  0  0  0
   11.7174   13.6470   22.7899 C   0  0  0  0  0  0  0  0  0  0  0  0
   11.3211   16.2592   21.8943 C   0  0  0  0  0  0  0  0  0  0  0  0
    7.2742   13.5859   23.3575 C   0  0  0  0  0  0  0  0  0  0  0  0
    7.9377   10.0421   23.5357 C   0  0  0  0  0  0  0  0  0  0  0  0
    8.0796   10.4970   25.0023 C   0  0  0  0  0  0  0  0  0  0  0  0
    9.6851   11.4958   22.3587 C   0  0  0  0  0  0  0  0  0  0  0  0
    9.9318   12.2555   24.8249 C   0  0  0  0  0  0  0  0  0  0  0  0
    8.1928   11.3044   22.7043 C   0  0  2  0  0  0  0  0  0  0  0  0
    8.4139   11.9898   24.9210 C   0  0  1  0  0  0  0  0  0  0  0  0
   10.6041   11.5559   23.6113 C   0  0  0  0  0  0  0  0  0  0  0  0
    7.3864   16.1265   22.0530 C   0  0  0  0  0  0  0  0  0  0  0  0
    6.2881   14.9710   20.1119 C   0  0  0  0  0  0  0  0  0  0  0  0
    5.0933   15.1230   22.3158 C   0  0  0  0  0  0  0  0  0  0  0  0
   11.9316   12.2406   23.2727 C   0  0  0  0  0  0  0  0  0  0  0  0
    6.4525   14.9935   21.6300 C   0  0  0  0  0  0  0  0  0  0  0  0
    7.8450   12.3605   23.6400 N   0  0  0  0  0  0  0  0  0  0  0  0
    7.0063   14.4347   24.2048 O   0  0  0  0  0  0  0  0  0  0  0  0
   10.9285   10.2176   24.0101 O   0  0  0  0  0  0  0  0  0  0  0  0
    7.0423   13.7479   22.0184 O   0  0  0  0  0  0  0  0  0  0  0  0
   11.1336   17.5138   21.4642 F   0  0  0  0  0  0  0  0  0  0  0  0
   11.5475   13.0826   20.7114 H   0  0  0  0  0  0  0  0  0  0  0  0
   11.8406   14.5159   24.7638 H   0  0  0  0  0  0  0  0  0  0  0  0
   11.1981   15.4000   19.9232 H   0  0  0  0  0  0  0  0  0  0  0  0
   11.4882   16.8296   23.9645 H   0  0  0  0  0  0  0  0  0  0  0  0
    8.6145    9.2189   23.2884 H   0  0  0  0  0  0  0  0  0  0  0  0
    6.9140    9.6845   23.3713 H   0  0  0  0  0  0  0  0  0  0  0  0
    7.1210   10.3530   25.5151 H   0  0  0  0  0  0  0  0  0  0  0  0
    8.8317    9.9167   25.5452 H   0  0  0  0  0  0  0  0  0  0  0  0
   10.0054   10.6802   21.6982 H   0  0  0  0  0  0  0  0  0  0  0  0
    9.7802   12.4296   21.7888 H   0  0  0  0  0  0  0  0  0  0  0  0
   10.0772   13.3412   24.7467 H   0  0  0  0  0  0  0  0  0  0  0  0
   10.4086   11.9342   25.7592 H   0  0  0  0  0  0  0  0  0  0  0  0
    7.5813   11.3348   21.7978 H   0  0  0  0  0  0  0  0  0  0  0  0
    7.9749   12.5647   25.7423 H   0  0  0  0  0  0  0  0  0  0  0  0
    7.5071   16.1459   23.1420 H   0  0  0  0  0  0  0  0  0  0  0  0
    8.3759   16.0258   21.5952 H   0  0  0  0  0  0  0  0  0  0  0  0
    6.9720   17.1010   21.7704 H   0  0  0  0  0  0  0  0  0  0  0  0
    5.6188   14.1596   19.8039 H   0  0  0  0  0  0  0  0  0  0  0  0
    7.2483   14.7833   19.6180 H   0  0  0  0  0  0  0  0  0  0  0  0
    5.8834   15.9160   19.7353 H   0  0  0  0  0  0  0  0  0  0  0  0
    4.4232   14.3104   22.0126 H   0  0  0  0  0  0  0  0  0  0  0  0
    5.1883   15.1038   23.4064 H   0  0  0  0  0  0  0  0  0  0  0  0
    4.5979   16.0567   22.0259 H   0  0  0  0  0  0  0  0  0  0  0  0
   12.4538   11.6561   22.5105 H   0  0  0  0  0  0  0  0  0  0  0  0
   12.5730   12.2399   24.1581 H   0  0  0  0  0  0  0  0  0  0  0  0
   11.3833    9.8164   23.2564 H   0  0  0  0  0  0  0  0  0  0  0  0
  1  3  2  0  0  0  0
  1  5  1  0  0  0  0
  2  4  1  0  0  0  0
  2  5  2  0  0  0  0
  3  6  1  0  0  0  0
  4  6  2  0  0  0  0
  5 18  1  0  0  0  0
  6 24  1  0  0  0  0
  7 20  1  0  0  0  0
  7 21  2  0  0  0  0
  7 23  1  0  0  0  0
  8  9  1  0  0  0  0
  8 12  1  0  0  0  0
  9 13  1  0  0  0  0
 10 12  1  0  0  0  0
 10 14  1  0  0  0  0
 11 13  1  0  0  0  0
 11 14  1  0  0  0  0
 12 20  1  0  0  0  0
 13 20  1  0  0  0  0
 14 18  1  0  0  0  0
 14 22  1  0  0  0  0
 15 19  1  0  0  0  0
 16 19  1  0  0  0  0
 17 19  1  0  0  0  0
 19 23  1  0  0  0  0
  1 25  1  0  0  0  0
  2 26  1  0  0  0  0
  3 27  1  0  0  0  0
  4 28  1  0  0  0  0
  8 29  1  0  0  0  0
  8 30  1  0  0  0  0
  9 31  1  0  0  0  0
  9 32  1  0  0  0  0
 10 33  1  0  0  0  0
 10 34  1  0  0  0  0
 11 35  1  0  0  0  0
 11 36  1  0  0  0  0
 12 37  1  0  0  0  0
 13 38  1  0  0  0  0
 15 39  1  0  0  0  0
 15 40  1  0  0  0  0
 15 41  1  0  0  0  0
 16 42  1  0  0  0  0
 16 43  1  0  0  0  0
 16 44  1  0  0  0  0
 17 45  1  0  0  0  0
 17 46  1  0  0  0  0
 17 47  1  0  0  0  0
 18 48  1  0  0  0  0
 18 49  1  0  0  0  0
 22 50  1  0  0  0  0
M  END
> <id>
EN300-27718198

> <smiles>
CC(C)(C)OC(=O)N1C2CCC1CC(O)(CC=3C=CC(F)=CC3)C2

> <IUPAC Name>
tert-butyl 3-[(4-fluorophenyl)methyl]-3-hydroxy-8-azabicyclo[3.2.1]octane-8-carboxylate

> <CAS>
2639418-08-7

> <URL>
https://www.enaminestore.com/catalog/EN300-27718198

> <ROCS_ShapeQuery>
x0446_0A_x1080_0A_x0929_0A_x0812_0A_x0719_0A_x1140_0A_x0528_0A_x0310_0A

> <ROCS_TanimotoCombo>
0.409 

> <ROCS_ShapeTanimoto>
0.261 

> <ROCS_ColorTanimoto>
0.149 

> <ROCS_RefTversky>
0.236 

> <ROCS_RefColorTversky>
0.173 

> <ROCS_RefTverskyCombo>
0.409 

> <ROCS_FitTversky>
1.690 

> <ROCS_FitColorTversky>
0.512 

> <ROCS_FitTverskyCombo>
2.203 

> <ROCS_ColorScore>
-6.217

> <ROCS_Overlap>
2783.816

> <ROCS_Rank>
487                 

$$$$
untitled-dbase-357709_1
  -OEChem-02082415563D

 45 47  0     1  0  0  0  0  0999 V2000
   11.4548   14.6272   23.0019 C   0  0  0  0  0  0  0  0  0  0  0  0
    9.5212   14.9759   21.7386 C   0  0  0  0  0  0  0  0  0  0  0  0
   11.1288   16.5767   21.8793 C   0  0  0  0  0  0  0  0  0  0  0  0
   10.2465   14.1324   22.5552 C   0  0  0  0  0  0  0  0  0  0  0  0
    7.3338   12.0765   25.9791 C   0  0  0  0  0  0  0  0  0  0  0  0
    9.3977    9.8544   24.0193 C   0  0  0  0  0  0  0  0  0  0  0  0
    8.1666   10.0713   23.1182 C   0  0  0  0  0  0  0  0  0  0  0  0
   10.2384   12.2517   24.3463 C   0  0  0  0  0  0  0  0  0  0  0  0
    8.1848   12.6135   22.8224 C   0  0  0  0  0  0  0  0  0  0  0  0
    9.4298   11.0786   24.9396 C   0  0  1  0  0  0  0  0  0  0  0  0
    7.5785   11.4095   23.5757 C   0  0  2  0  0  0  0  0  0  0  0  0
    9.7425   12.7349   22.9402 C   0  0  0  0  0  0  0  0  0  0  0  0
    5.8507   14.2758   27.0433 C   0  0  0  0  0  0  0  0  0  0  0  0
    3.8327   13.1545   26.0538 C   0  0  0  0  0  0  0  0  0  0  0  0
    5.1592   11.9912   27.8413 C   0  0  0  0  0  0  0  0  0  0  0  0
    5.2241   12.9402   26.6455 C   0  0  0  0  0  0  0  0  0  0  0  0
   11.9285   15.8494   22.6824 N   0  0  0  0  0  0  0  0  0  0  0  0
    9.9337   16.2092   21.3792 N   0  0  0  0  0  0  0  0  0  0  0  0
    8.0408   11.4975   24.9439 N   0  0  0  0  0  0  0  0  0  0  0  0
    7.8083   12.3256   27.0850 O   0  0  0  0  0  0  0  0  0  0  0  0
   10.3051   11.8498   21.9560 O   0  0  0  0  0  0  0  0  0  0  0  0
    6.0366   12.3400   25.6307 O   0  0  0  0  0  0  0  0  0  0  0  0
   12.1003   14.0415   23.6490 H   0  0  0  0  0  0  0  0  0  0  0  0
    8.5577   14.6804   21.3352 H   0  0  0  0  0  0  0  0  0  0  0  0
   11.4849   17.5629   21.6079 H   0  0  0  0  0  0  0  0  0  0  0  0
    9.2536    8.9415   24.6096 H   0  0  0  0  0  0  0  0  0  0  0  0
   10.3173    9.7289   23.4401 H   0  0  0  0  0  0  0  0  0  0  0  0
    8.4262   10.0582   22.0553 H   0  0  0  0  0  0  0  0  0  0  0  0
    7.4473    9.2621   23.2925 H   0  0  0  0  0  0  0  0  0  0  0  0
   10.1867   13.0871   25.0589 H   0  0  0  0  0  0  0  0  0  0  0  0
   11.2943   11.9584   24.2811 H   0  0  0  0  0  0  0  0  0  0  0  0
    7.8967   12.5520   21.7649 H   0  0  0  0  0  0  0  0  0  0  0  0
    7.7184   13.5247   23.2223 H   0  0  0  0  0  0  0  0  0  0  0  0
    9.7916   10.8324   25.9424 H   0  0  0  0  0  0  0  0  0  0  0  0
    6.4859   11.4307   23.5131 H   0  0  0  0  0  0  0  0  0  0  0  0
    6.8496   14.1263   27.4685 H   0  0  0  0  0  0  0  0  0  0  0  0
    5.9351   14.9528   26.1869 H   0  0  0  0  0  0  0  0  0  0  0  0
    5.2557   14.7714   27.8189 H   0  0  0  0  0  0  0  0  0  0  0  0
    3.3793   12.1988   25.7669 H   0  0  0  0  0  0  0  0  0  0  0  0
    3.8857   13.7575   25.1401 H   0  0  0  0  0  0  0  0  0  0  0  0
    3.1653   13.6561   26.7620 H   0  0  0  0  0  0  0  0  0  0  0  0
    4.7097   11.0331   27.5562 H   0  0  0  0  0  0  0  0  0  0  0  0
    6.1535   11.7966   28.2562 H   0  0  0  0  0  0  0  0  0  0  0  0
    4.5261   12.4060   28.6340 H   0  0  0  0  0  0  0  0  0  0  0  0
    9.9710   12.1481   21.0967 H   0  0  0  0  0  0  0  0  0  0  0  0
  1  4  1  0  0  0  0
  1 17  2  0  0  0  0
  2  4  2  0  0  0  0
  2 18  1  0  0  0  0
  3 17  1  0  0  0  0
  3 18  2  0  0  0  0
  4 12  1  0  0  0  0
  5 19  1  0  0  0  0
  5 20  2  0  0  0  0
  5 22  1  0  0  0  0
  6  7  1  0  0  0  0
  6 10  1  0  0  0  0
  7 11  1  0  0  0  0
  8 10  1  0  0  0  0
  8 12  1  0  0  0  0
  9 11  1  0  0  0  0
  9 12  1  0  0  0  0
 10 19  1  0  0  0  0
 11 19  1  0  0  0  0
 12 21  1  0  0  0  0
 13 16  1  0  0  0  0
 14 16  1  0  0  0  0
 15 16  1  0  0  0  0
 16 22  1  0  0  0  0
  1 23  1  0  0  0  0
  2 24  1  0  0  0  0
  3 25  1  0  0  0  0
  6 26  1  0  0  0  0
  6 27  1  0  0  0  0
  7 28  1  0  0  0  0
  7 29  1  0  0  0  0
  8 30  1  0  0  0  0
  8 31  1  0  0  0  0
  9 32  1  0  0  0  0
  9 33  1  0  0  0  0
 10 34  1  0  0  0  0
 11 35  1  0  0  0  0
 13 36  1  0  0  0  0
 13 37  1  0  0  0  0
 13 38  1  0  0  0  0
 14 39  1  0  0  0  0
 14 40  1  0  0  0  0
 14 41  1  0  0  0  0
 15 42  1  0  0  0  0
 15 43  1  0  0  0  0
 15 44  1  0  0  0  0
 21 45  1  0  0  0  0
M  END
> <id>
EN300-26665881

> <smiles>
CC(C)(C)OC(=O)N1C2CCC1CC(O)(C2)C=3C=NC=NC3

> <IUPAC Name>
tert-butyl 3-hydroxy-3-(pyrimidin-5-yl)-8-azabicyclo[3.2.1]octane-8-carboxylate

> <CAS>
2649054-86-2

> <URL>
https://www.enaminestore.com/catalog/EN300-26665881

> <ROCS_ShapeQuery>
x0446_0A_x1080_0A_x0929_0A_x0812_0A_x0719_0A_x1140_0A_x0528_0A_x0310_0A

> <ROCS_TanimotoCombo>
0.409 

> <ROCS_ShapeTanimoto>
0.227 

> <ROCS_ColorTanimoto>
0.183 

> <ROCS_RefTversky>
0.209 

> <ROCS_RefColorTversky>
0.215 

> <ROCS_RefTverskyCombo>
0.424 

> <ROCS_FitTversky>
1.575 

> <ROCS_FitColorTversky>
0.551 

> <ROCS_FitTverskyCombo>
2.125 

> <ROCS_ColorScore>
-7.726

> <ROCS_Overlap>
2472.890

> <ROCS_Rank>
488                 

$$$$
untitled-dbase-559181_2
  -OEChem-02082415563D

 56 59  0     1  0  0  0  0  0999 V2000
   12.3310   11.3177   25.0894 C   0  0  0  0  0  0  0  0  0  0  0  0
   12.6625   12.6464   23.0990 C   0  0  0  0  0  0  0  0  0  0  0  0
   13.7054   11.3306   25.3270 C   0  0  0  0  0  0  0  0  0  0  0  0
   14.0369   12.6594   23.3366 C   0  0  0  0  0  0  0  0  0  0  0  0
   11.8095   11.9755   23.9753 C   0  0  0  0  0  0  0  0  0  0  0  0
    9.7004   10.6599   23.5334 C   0  0  0  0  0  0  0  0  0  0  0  0
   10.3459    9.4951   22.9756 C   0  0  0  0  0  0  0  0  0  0  0  0
   14.5583   12.0015   24.4506 C   0  0  0  0  0  0  0  0  0  0  0  0
    9.5623    8.3636   23.0172 C   0  0  0  0  0  0  0  0  0  0  0  0
    8.4143   10.3242   23.9098 C   0  0  0  0  0  0  0  0  0  0  0  0
    7.4081   12.5509   24.2786 C   0  0  0  0  0  0  0  0  0  0  0  0
    6.2834   10.8825   25.0966 C   0  0  0  0  0  0  0  0  0  0  0  0
   10.3446   11.9622   23.7220 C   0  0  0  0  0  0  0  0  0  0  0  0
    8.6535   14.3049   21.1288 C   0  0  0  0  0  0  0  0  0  0  0  0
    8.3418   13.3337   23.4236 C   0  0  2  0  0  0  0  0  0  0  0  0
   11.7198    9.4835   22.4035 C   0  0  0  0  0  0  0  0  0  0  0  0
    9.8658    6.9988   22.5327 C   0  0  0  0  0  0  0  0  0  0  0  0
    5.7359    9.5331   25.3526 C   0  0  0  0  0  0  0  0  0  0  0  0
   10.3863   15.1179   19.0200 C   0  0  0  0  0  0  0  0  0  0  0  0
    8.4358   14.6862   17.4974 C   0  0  0  0  0  0  0  0  0  0  0  0
    8.2642   16.4455   19.2816 C   0  0  0  0  0  0  0  0  0  0  0  0
    8.0488   13.1831   21.9327 C   0  0  0  0  0  0  0  0  0  0  0  0
    8.8628   15.0905   18.9067 C   0  0  0  0  0  0  0  0  0  0  0  0
    6.3609   13.0357   24.9158 N   0  0  0  0  0  0  0  0  0  0  0  0
    5.6509   11.9827   25.4295 N   0  0  0  0  0  0  0  0  0  0  0  0
    9.7502   13.0991   23.6991 N   0  0  0  0  0  0  0  0  0  0  0  0
    7.4369   11.1767   24.4087 N   0  0  0  0  0  0  0  0  0  0  0  0
    9.3005   15.2382   21.5838 O   0  0  0  0  0  0  0  0  0  0  0  0
    8.3566   14.1030   19.8107 O   0  0  0  0  0  0  0  0  0  0  0  0
    8.0446    8.6776   23.7269 S   0  0  0  0  0  0  0  0  0  0  0  0
   16.2536   12.0187   24.7446 Cl  0  0  0  0  0  0  0  0  0  0  0  0
   11.6754   10.7914   25.7783 H   0  0  0  0  0  0  0  0  0  0  0  0
   12.2671   13.1627   22.2280 H   0  0  0  0  0  0  0  0  0  0  0  0
   14.0980   10.8143   26.1992 H   0  0  0  0  0  0  0  0  0  0  0  0
   14.6893   13.1861   22.6449 H   0  0  0  0  0  0  0  0  0  0  0  0
    8.1324   14.4388   23.6498 H   0  0  0  0  0  0  0  0  0  0  0  0
   12.4598    9.2497   23.1806 H   0  0  0  0  0  0  0  0  0  0  0  0
   11.8156    8.7385   21.6010 H   0  0  0  0  0  0  0  0  0  0  0  0
   11.9792   10.4562   21.9618 H   0  0  0  0  0  0  0  0  0  0  0  0
   10.3401    6.3974   23.3235 H   0  0  0  0  0  0  0  0  0  0  0  0
    8.9573    6.4691   22.2035 H   0  0  0  0  0  0  0  0  0  0  0  0
   10.5451    7.0134   21.6651 H   0  0  0  0  0  0  0  0  0  0  0  0
    5.1282    9.1855   24.5019 H   0  0  0  0  0  0  0  0  0  0  0  0
    6.5327    8.7900   25.5228 H   0  0  0  0  0  0  0  0  0  0  0  0
    5.0990    9.5104   26.2527 H   0  0  0  0  0  0  0  0  0  0  0  0
   10.6969   15.4077   20.0302 H   0  0  0  0  0  0  0  0  0  0  0  0
   10.8257   14.1423   18.7876 H   0  0  0  0  0  0  0  0  0  0  0  0
   10.8157   15.8618   18.3392 H   0  0  0  0  0  0  0  0  0  0  0  0
    7.3434   14.6652   17.4116 H   0  0  0  0  0  0  0  0  0  0  0  0
    8.7835   13.6744   17.2594 H   0  0  0  0  0  0  0  0  0  0  0  0
    8.8297   15.3746   16.7427 H   0  0  0  0  0  0  0  0  0  0  0  0
    7.1714   16.4262   19.2004 H   0  0  0  0  0  0  0  0  0  0  0  0
    8.5298   16.7350   20.3035 H   0  0  0  0  0  0  0  0  0  0  0  0
    8.6113   17.2277   18.5967 H   0  0  0  0  0  0  0  0  0  0  0  0
    6.9672   13.1846   21.7846 H   0  0  0  0  0  0  0  0  0  0  0  0
    8.4653   12.2351   21.5865 H   0  0  0  0  0  0  0  0  0  0  0  0
  1  3  2  0  0  0  0
  1  5  1  0  0  0  0
  2  4  1  0  0  0  0
  2  5  2  0  0  0  0
  3  8  1  0  0  0  0
  4  8  2  0  0  0  0
  5 13  1  0  0  0  0
  6  7  1  0  0  0  0
  6 10  2  0  0  0  0
  6 13  1  0  0  0  0
  7  9  2  0  0  0  0
  7 16  1  0  0  0  0
  8 31  1  0  0  0  0
  9 17  1  0  0  0  0
  9 30  1  0  0  0  0
 10 27  1  0  0  0  0
 10 30  1  0  0  0  0
 11 15  1  0  0  0  0
 11 24  2  0  0  0  0
 11 27  1  0  0  0  0
 12 18  1  0  0  0  0
 12 25  2  0  0  0  0
 12 27  1  0  0  0  0
 13 26  2  0  0  0  0
 14 22  1  0  0  0  0
 14 28  2  0  0  0  0
 14 29  1  0  0  0  0
 15 22  1  6  0  0  0
 15 26  1  0  0  0  0
 19 23  1  0  0  0  0
 20 23  1  0  0  0  0
 21 23  1  0  0  0  0
 23 29  1  0  0  0  0
 24 25  1  0  0  0  0
  1 32  1  0  0  0  0
  2 33  1  0  0  0  0
  3 34  1  0  0  0  0
  4 35  1  0  0  0  0
 15 36  1  0  0  0  0
 16 37  1  0  0  0  0
 16 38  1  0  0  0  0
 16 39  1  0  0  0  0
 17 40  1  0  0  0  0
 17 41  1  0  0  0  0
 17 42  1  0  0  0  0
 18 43  1  0  0  0  0
 18 44  1  0  0  0  0
 18 45  1  0  0  0  0
 19 46  1  0  0  0  0
 19 47  1  0  0  0  0
 19 48  1  0  0  0  0
 20 49  1  0  0  0  0
 20 50  1  0  0  0  0
 20 51  1  0  0  0  0
 21 52  1  0  0  0  0
 21 53  1  0  0  0  0
 21 54  1  0  0  0  0
 22 55  1  0  0  0  0
 22 56  1  0  0  0  0
M  END
> <id>
EN300-7404173

> <smiles>
CC1=NN=C2[C@H](CC(=O)OC(C)(C)C)N=C(C=3C(C)=C(C)SC3N12)C=4C=CC(Cl)=CC4

> <MDLNUMBER>
MFCD22683748

> <IUPAC Name>
tert-butyl 2-[(9S)-7-(4-chlorophenyl)-4,5,13-trimethyl-3-thia-1,8,11,12-tetraazatricyclo[8.3.0.0,2,6]trideca-2(6),4,7,10,12-pentaen-9-yl]acetate

> <CAS>
1268524-70-4

> <Purity>
95

> <URL>
https://www.enaminestore.com/catalog/EN300-7404173

> <ROCS_ShapeQuery>
x0446_0A_x1080_0A_x0929_0A_x0812_0A_x0719_0A_x1140_0A_x0528_0A_x0310_0A

> <ROCS_TanimotoCombo>
0.409 

> <ROCS_ShapeTanimoto>
0.256 

> <ROCS_ColorTanimoto>
0.154 

> <ROCS_RefTversky>
0.237 

> <ROCS_RefColorTversky>
0.173 

> <ROCS_RefTverskyCombo>
0.410 

> <ROCS_FitTversky>
1.436 

> <ROCS_FitColorTversky>
0.578 

> <ROCS_FitTverskyCombo>
2.015 

> <ROCS_ColorScore>
-6.196

> <ROCS_Overlap>
2807.682

> <ROCS_Rank>
489                 

$$$$
untitled-dbase-520232_6
  -OEChem-02082415563D

 39 41  0     0  0  0  0  0  0999 V2000
    8.1145   14.6381   22.4509 C   0  0  0  0  0  0  0  0  0  0  0  0
    9.0287   13.6205   22.5597 C   0  0  0  0  0  0  0  0  0  0  0  0
    6.8172   14.7035   23.0477 C   0  0  0  0  0  0  0  0  0  0  0  0
    9.8635   11.2224   22.5948 C   0  0  0  0  0  0  0  0  0  0  0  0
    9.4181   12.3983   24.7517 C   0  0  0  0  0  0  0  0  0  0  0  0
    9.2675    9.9566   23.2130 C   0  0  0  0  0  0  0  0  0  0  0  0
    8.8382   11.0907   25.2935 C   0  0  0  0  0  0  0  0  0  0  0  0
    7.6746   11.6290   23.3662 C   0  0  0  0  0  0  0  0  0  0  0  0
    9.0275   12.3353   23.2604 C   0  0  0  0  0  0  0  0  0  0  0  0
    4.3318   16.1201   23.4861 C   0  0  0  0  0  0  0  0  0  0  0  0
    3.5515   15.0150   21.3697 C   0  0  0  0  0  0  0  0  0  0  0  0
    4.1488   13.6127   23.3659 C   0  0  0  0  0  0  0  0  0  0  0  0
    4.4629   14.8903   22.5887 C   0  0  0  0  0  0  0  0  0  0  0  0
    8.6243   15.6313   21.6616 N   0  0  0  0  0  0  0  0  0  0  0  0
    9.8386   15.2597   21.2711 N   0  0  0  0  0  0  0  0  0  0  0  0
   10.0791   14.0537   21.8105 N   0  0  0  0  0  0  0  0  0  0  0  0
    8.1942   10.4544   24.1139 N   0  0  0  0  0  0  0  0  0  0  0  0
    6.5821   14.6676   24.2773 O   0  0  0  0  0  0  0  0  0  0  0  0
    5.8112   14.8148   22.1133 O   0  0  0  0  0  0  0  0  0  0  0  0
   10.9332   11.3229   22.8092 H   0  0  0  0  0  0  0  0  0  0  0  0
    9.7312   11.2157   21.5059 H   0  0  0  0  0  0  0  0  0  0  0  0
    8.9572   13.2583   25.2532 H   0  0  0  0  0  0  0  0  0  0  0  0
   10.5026   12.4598   24.8941 H   0  0  0  0  0  0  0  0  0  0  0  0
    8.8303    9.3196   22.4352 H   0  0  0  0  0  0  0  0  0  0  0  0
   10.0138    9.3552   23.7438 H   0  0  0  0  0  0  0  0  0  0  0  0
    9.5997   10.4496   25.7512 H   0  0  0  0  0  0  0  0  0  0  0  0
    8.0823   11.2960   26.0604 H   0  0  0  0  0  0  0  0  0  0  0  0
    6.9209   12.1868   23.9361 H   0  0  0  0  0  0  0  0  0  0  0  0
    7.2376   11.3493   22.3996 H   0  0  0  0  0  0  0  0  0  0  0  0
    4.9844   16.0344   24.3623 H   0  0  0  0  0  0  0  0  0  0  0  0
    4.5882   17.0397   22.9501 H   0  0  0  0  0  0  0  0  0  0  0  0
    3.3098   16.2168   23.8701 H   0  0  0  0  0  0  0  0  0  0  0  0
    3.6423   14.1348   20.7230 H   0  0  0  0  0  0  0  0  0  0  0  0
    3.8350   15.8785   20.7572 H   0  0  0  0  0  0  0  0  0  0  0  0
    2.5016   15.1253   21.6597 H   0  0  0  0  0  0  0  0  0  0  0  0
    4.2428   12.7305   22.7225 H   0  0  0  0  0  0  0  0  0  0  0  0
    4.8177   13.4877   24.2236 H   0  0  0  0  0  0  0  0  0  0  0  0
    3.1148   13.6218   23.7291 H   0  0  0  0  0  0  0  0  0  0  0  0
   10.9655   13.5997   21.6250 H   0  0  0  0  0  0  0  0  0  0  0  0
  1  2  2  0  0  0  0
  1  3  1  0  0  0  0
  1 14  1  0  0  0  0
  2  9  1  0  0  0  0
  2 16  1  0  0  0  0
  3 18  2  0  0  0  0
  3 19  1  0  0  0  0
  4  6  1  0  0  0  0
  4  9  1  0  0  0  0
  5  7  1  0  0  0  0
  5  9  1  0  0  0  0
  6 17  1  0  0  0  0
  7 17  1  0  0  0  0
  8  9  1  0  0  0  0
  8 17  1  0  0  0  0
 10 13  1  0  0  0  0
 11 13  1  0  0  0  0
 12 13  1  0  0  0  0
 13 19  1  0  0  0  0
 14 15  2  0  0  0  0
 15 16  1  0  0  0  0
  4 20  1  0  0  0  0
  4 21  1  0  0  0  0
  5 22  1  0  0  0  0
  5 23  1  0  0  0  0
  6 24  1  0  0  0  0
  6 25  1  0  0  0  0
  7 26  1  0  0  0  0
  7 27  1  0  0  0  0
  8 28  1  0  0  0  0
  8 29  1  0  0  0  0
 10 30  1  0  0  0  0
 10 31  1  0  0  0  0
 10 32  1  0  0  0  0
 11 33  1  0  0  0  0
 11 34  1  0  0  0  0
 11 35  1  0  0  0  0
 12 36  1  0  0  0  0
 12 37  1  0  0  0  0
 12 38  1  0  0  0  0
 16 39  1  0  0  0  0
M  END
> <id>
EN300-786695

> <smiles>
CC(C)(C)OC(=O)C=1N=NNC1C2(CCN3CC2)C3

> <MDLNUMBER>
MFCD31602873

> <IUPAC Name>
tert-butyl 5-{1-azabicyclo[2.2.1]heptan-4-yl}-1H-1,2,3-triazole-4-carboxylate

> <CAS>
2138258-43-0

> <URL>
https://www.enaminestore.com/catalog/EN300-786695

> <ROCS_ShapeQuery>
x0446_0A_x1080_0A_x0929_0A_x0812_0A_x0719_0A_x1140_0A_x0528_0A_x0310_0A

> <ROCS_TanimotoCombo>
0.409 

> <ROCS_ShapeTanimoto>
0.214 

> <ROCS_ColorTanimoto>
0.195 

> <ROCS_RefTversky>
0.198 

> <ROCS_RefColorTversky>
0.231 

> <ROCS_RefTverskyCombo>
0.429 

> <ROCS_FitTversky>
1.607 

> <ROCS_FitColorTversky>
0.558 

> <ROCS_FitTverskyCombo>
2.166 

> <ROCS_ColorScore>
-8.327

> <ROCS_Overlap>
2336.585

> <ROCS_Rank>
490                 

$$$$
untitled-dbase-486518_5
  -OEChem-02082415563D

 34 35  0     0  0  0  0  0  0999 V2000
    7.1004   10.4370   26.0751 C   0  0  0  0  0  0  0  0  0  0  0  0
    6.9790   12.1166   24.2240 C   0  0  0  0  0  0  0  0  0  0  0  0
    7.9889    9.8749   23.8177 C   0  0  0  0  0  0  0  0  0  0  0  0
    7.7654   12.7051   23.0471 C   0  0  0  0  0  0  0  0  0  0  0  0
    8.7898   10.4308   22.6346 C   0  0  0  0  0  0  0  0  0  0  0  0
    9.1793   11.5405   25.2238 C   0  0  0  0  0  0  0  0  0  0  0  0
    7.7951   10.9829   24.8640 C   0  0  0  0  0  0  0  0  0  0  0  0
    9.0808   11.9265   22.8598 C   0  0  0  0  0  0  0  0  0  0  0  0
    7.3007    8.8217   27.7881 C   0  0  0  0  0  0  0  0  0  0  0  0
    9.9030   12.5049   21.7131 C   0  0  0  0  0  0  0  0  0  0  0  0
   11.6242   14.3762   20.9472 N   0  0  0  0  0  0  0  0  0  0  0  0
    6.0253   10.8469   26.4913 O   0  0  0  0  0  0  0  0  0  0  0  0
    9.1992   15.0139   21.5210 O   0  0  0  0  0  0  0  0  0  0  0  0
   10.7731   14.3248   23.3741 O   0  0  0  0  0  0  0  0  0  0  0  0
    9.8555   12.0574   24.0674 O   0  0  0  0  0  0  0  0  0  0  0  0
    7.8498    9.4355   26.6178 O   0  0  0  0  0  0  0  0  0  0  0  0
   10.2986   14.1936   22.0053 S   0  0  0  0  0  0  0  0  0  0  0  0
    6.7614   12.9031   24.9580 H   0  0  0  0  0  0  0  0  0  0  0  0
    6.0047   11.7490   23.8773 H   0  0  0  0  0  0  0  0  0  0  0  0
    7.0204    9.4933   23.4702 H   0  0  0  0  0  0  0  0  0  0  0  0
    8.5141    9.0145   24.2518 H   0  0  0  0  0  0  0  0  0  0  0  0
    7.1561   12.6747   22.1362 H   0  0  0  0  0  0  0  0  0  0  0  0
    7.9790   13.7598   23.2614 H   0  0  0  0  0  0  0  0  0  0  0  0
    9.7307    9.8720   22.5555 H   0  0  0  0  0  0  0  0  0  0  0  0
    8.2378   10.2729   21.7007 H   0  0  0  0  0  0  0  0  0  0  0  0
    9.1048   12.3506   25.9586 H   0  0  0  0  0  0  0  0  0  0  0  0
    9.8195   10.7688   25.6671 H   0  0  0  0  0  0  0  0  0  0  0  0
    7.9755    8.0375   28.1399 H   0  0  0  0  0  0  0  0  0  0  0  0
    6.3219    8.3962   27.5523 H   0  0  0  0  0  0  0  0  0  0  0  0
    7.1883    9.5792   28.5674 H   0  0  0  0  0  0  0  0  0  0  0  0
    9.3420   12.4534   20.7811 H   0  0  0  0  0  0  0  0  0  0  0  0
   10.8395   11.9597   21.6058 H   0  0  0  0  0  0  0  0  0  0  0  0
   11.4859   14.9447   20.1026 H   0  0  0  0  0  0  0  0  0  0  0  0
   12.5578   14.4752   21.3646 H   0  0  0  0  0  0  0  0  0  0  0  0
  1  7  1  0  0  0  0
  1 12  2  0  0  0  0
  1 16  1  0  0  0  0
  2  4  1  0  0  0  0
  2  7  1  0  0  0  0
  3  5  1  0  0  0  0
  3  7  1  0  0  0  0
  4  8  1  0  0  0  0
  5  8  1  0  0  0  0
  6  7  1  0  0  0  0
  6 15  1  0  0  0  0
  8 10  1  0  0  0  0
  8 15  1  0  0  0  0
  9 16  1  0  0  0  0
 10 17  1  0  0  0  0
 11 17  1  0  0  0  0
 13 17  2  0  0  0  0
 14 17  2  0  0  0  0
  2 18  1  0  0  0  0
  2 19  1  0  0  0  0
  3 20  1  0  0  0  0
  3 21  1  0  0  0  0
  4 22  1  0  0  0  0
  4 23  1  0  0  0  0
  5 24  1  0  0  0  0
  5 25  1  0  0  0  0
  6 26  1  0  0  0  0
  6 27  1  0  0  0  0
  9 28  1  0  0  0  0
  9 29  1  0  0  0  0
  9 30  1  0  0  0  0
 10 31  1  0  0  0  0
 10 32  1  0  0  0  0
 11 33  1  0  0  0  0
 11 34  1  0  0  0  0
M  END
> <id>
EN300-27733710

> <smiles>
COC(=O)C1(CCC2(CS(=O)(=O)N)CC1)CO2

> <IUPAC Name>
methyl 1-(sulfamoylmethyl)-2-oxabicyclo[2.2.2]octane-4-carboxylate

> <CAS>
2639445-51-3

> <URL>
https://www.enaminestore.com/catalog/EN300-27733710

> <ROCS_ShapeQuery>
x0446_0A_x1080_0A_x0929_0A_x0812_0A_x0719_0A_x1140_0A_x0528_0A_x0310_0A

> <ROCS_TanimotoCombo>
0.409 

> <ROCS_ShapeTanimoto>
0.198 

> <ROCS_ColorTanimoto>
0.211 

> <ROCS_RefTversky>
0.184 

> <ROCS_RefColorTversky>
0.235 

> <ROCS_RefTverskyCombo>
0.418 

> <ROCS_FitTversky>
1.643 

> <ROCS_FitColorTversky>
0.681 

> <ROCS_FitTverskyCombo>
2.324 

> <ROCS_ColorScore>
-8.416

> <ROCS_Overlap>
2168.793

> <ROCS_Rank>
491                 

$$$$
untitled-dbase-111677_2
  -OEChem-02082415563D

 33 35  0     0  0  0  0  0  0999 V2000
    8.1103   14.8112   22.5180 C   0  0  0  0  0  0  0  0  0  0  0  0
    8.9108   13.6984   22.5808 C   0  0  0  0  0  0  0  0  0  0  0  0
    6.8736   15.0274   23.2017 C   0  0  0  0  0  0  0  0  0  0  0  0
    7.9922   10.1650   23.3743 C   0  0  0  0  0  0  0  0  0  0  0  0
    9.4091   11.1048   25.2225 C   0  0  0  0  0  0  0  0  0  0  0  0
    7.5664   11.5813   22.9730 C   0  0  0  0  0  0  0  0  0  0  0  0
    8.9879   12.5256   24.8312 C   0  0  0  0  0  0  0  0  0  0  0  0
    9.4197   10.3740   23.8803 C   0  0  0  0  0  0  0  0  0  0  0  0
    8.8158   12.4280   23.3018 C   0  0  0  0  0  0  0  0  0  0  0  0
    3.7440   15.1020   22.6309 C   0  0  0  0  0  0  0  0  0  0  0  0
    4.7453   16.1431   23.0837 C   0  0  0  0  0  0  0  0  0  0  0  0
    8.6707   15.7336   21.6786 N   0  0  0  0  0  0  0  0  0  0  0  0
    9.8055   15.2243   21.2117 N   0  0  0  0  0  0  0  0  0  0  0  0
    9.9475   14.0039   21.7537 N   0  0  0  0  0  0  0  0  0  0  0  0
    9.8925   11.4527   22.9955 N   0  0  0  0  0  0  0  0  0  0  0  0
    6.5658   14.5421   24.3144 O   0  0  0  0  0  0  0  0  0  0  0  0
    6.0194   15.8496   22.5004 O   0  0  0  0  0  0  0  0  0  0  0  0
    7.3318    9.7396   24.1363 H   0  0  0  0  0  0  0  0  0  0  0  0
    7.9771    9.5076   22.4972 H   0  0  0  0  0  0  0  0  0  0  0  0
   10.4079   11.1208   25.6747 H   0  0  0  0  0  0  0  0  0  0  0  0
    8.7150   10.6568   25.9408 H   0  0  0  0  0  0  0  0  0  0  0  0
    7.3195   11.6104   21.9044 H   0  0  0  0  0  0  0  0  0  0  0  0
    6.6826   11.9109   23.5306 H   0  0  0  0  0  0  0  0  0  0  0  0
    8.0620   12.8249   25.3352 H   0  0  0  0  0  0  0  0  0  0  0  0
    9.7695   13.2412   25.1155 H   0  0  0  0  0  0  0  0  0  0  0  0
   10.0301    9.4683   23.8718 H   0  0  0  0  0  0  0  0  0  0  0  0
    3.6392   15.1088   21.5424 H   0  0  0  0  0  0  0  0  0  0  0  0
    4.0558   14.1021   22.9498 H   0  0  0  0  0  0  0  0  0  0  0  0
    2.7633   15.2883   23.0813 H   0  0  0  0  0  0  0  0  0  0  0  0
    4.8454   16.1311   24.1732 H   0  0  0  0  0  0  0  0  0  0  0  0
    4.4327   17.1415   22.7635 H   0  0  0  0  0  0  0  0  0  0  0  0
   10.7625   13.4516   21.5153 H   0  0  0  0  0  0  0  0  0  0  0  0
   10.7962   11.8047   23.3133 H   0  0  0  0  0  0  0  0  0  0  0  0
  1  2  2  0  0  0  0
  1  3  1  0  0  0  0
  1 12  1  0  0  0  0
  2  9  1  0  0  0  0
  2 14  1  0  0  0  0
  3 16  2  0  0  0  0
  3 17  1  0  0  0  0
  4  6  1  0  0  0  0
  4  8  1  0  0  0  0
  5  7  1  0  0  0  0
  5  8  1  0  0  0  0
  6  9  1  0  0  0  0
  7  9  1  0  0  0  0
  8 15  1  0  0  0  0
  9 15  1  0  0  0  0
 10 11  1  0  0  0  0
 11 17  1  0  0  0  0
 12 13  2  0  0  0  0
 13 14  1  0  0  0  0
  4 18  1  0  0  0  0
  4 19  1  0  0  0  0
  5 20  1  0  0  0  0
  5 21  1  0  0  0  0
  6 22  1  0  0  0  0
  6 23  1  0  0  0  0
  7 24  1  0  0  0  0
  7 25  1  0  0  0  0
  8 26  1  0  0  0  0
 10 27  1  0  0  0  0
 10 28  1  0  0  0  0
 10 29  1  0  0  0  0
 11 30  1  0  0  0  0
 11 31  1  0  0  0  0
 14 32  1  0  0  0  0
 15 33  1  0  0  0  0
M  END
> <id>
EN300-786437

> <smiles>
CCOC(=O)C=1N=NNC1C2(CCC3CC2)N3

> <IUPAC Name>
ethyl 5-{7-azabicyclo[2.2.1]heptan-1-yl}-1H-1,2,3-triazole-4-carboxylate

> <CAS>
2137997-86-3

> <URL>
https://www.enaminestore.com/catalog/EN300-786437

> <ROCS_ShapeQuery>
x0446_0A_x1080_0A_x0929_0A_x0812_0A_x0719_0A_x1140_0A_x0528_0A_x0310_0A

> <ROCS_TanimotoCombo>
0.409 

> <ROCS_ShapeTanimoto>
0.202 

> <ROCS_ColorTanimoto>
0.208 

> <ROCS_RefTversky>
0.187 

> <ROCS_RefColorTversky>
0.243 

> <ROCS_RefTverskyCombo>
0.430 

> <ROCS_FitTversky>
1.619 

> <ROCS_FitColorTversky>
0.589 

> <ROCS_FitTverskyCombo>
2.207 

> <ROCS_ColorScore>
-8.749

> <ROCS_Overlap>
2209.745

> <ROCS_Rank>
492                 

$$$$
untitled-dbase-356721_8
  -OEChem-02082415563D

 51 54  0     0  0  0  0  0  0999 V2000
   10.7262   15.6400   21.1193 C   0  0  0  0  0  0  0  0  0  0  0  0
    9.9950   10.9641   23.0821 C   0  0  0  0  0  0  0  0  0  0  0  0
    9.4193   12.2023   23.3626 C   0  0  0  0  0  0  0  0  0  0  0  0
    8.1656   12.2013   23.9876 C   0  0  0  0  0  0  0  0  0  0  0  0
    9.3061    9.8083   23.4321 C   0  0  0  0  0  0  0  0  0  0  0  0
    7.5857   10.9757   24.2830 C   0  0  0  0  0  0  0  0  0  0  0  0
    6.2903   12.6564   24.9229 C   0  0  0  0  0  0  0  0  0  0  0  0
   10.0913   13.4403   23.0180 C   0  0  0  0  0  0  0  0  0  0  0  0
    5.1218   13.3651   25.5141 C   0  0  0  0  0  0  0  0  0  0  0  0
    4.9320   13.0465   26.9959 C   0  0  0  0  0  0  0  0  0  0  0  0
    4.2990   11.6785   27.2617 C   0  0  0  0  0  0  0  0  0  0  0  0
   14.4201   15.6596   20.8807 C   0  0  0  0  0  0  0  0  0  0  0  0
   13.4906   15.2534   19.7427 C   0  0  0  0  0  0  0  0  0  0  0  0
   13.6390   16.0997   22.1137 C   0  0  0  0  0  0  0  0  0  0  0  0
    5.1661   10.4778   26.8770 C   0  0  0  0  0  0  0  0  0  0  0  0
   12.4945   14.1791   20.1830 C   0  0  0  0  0  0  0  0  0  0  0  0
   12.6438   15.0287   22.5640 C   0  0  0  0  0  0  0  0  0  0  0  0
    5.4073   10.3470   25.3755 C   0  0  0  0  0  0  0  0  0  0  0  0
   11.6931   14.5699   21.4406 C   0  0  0  0  0  0  0  0  0  0  0  0
    9.9357    8.4874   23.1245 C   0  0  0  0  0  0  0  0  0  0  0  0
    9.9669   16.4802   20.8671 N   0  0  0  0  0  0  0  0  0  0  0  0
    7.3525   13.2307   24.3884 N   0  0  0  0  0  0  0  0  0  0  0  0
    8.0950    9.7550   24.0361 N   0  0  0  0  0  0  0  0  0  0  0  0
    6.3918   11.2850   24.8762 N   0  0  0  0  0  0  0  0  0  0  0  0
   10.9343   13.4203   21.8983 N   0  0  0  0  0  0  0  0  0  0  0  0
    9.9319   14.4639   23.7102 O   0  0  0  0  0  0  0  0  0  0  0  0
   10.9658   10.9046   22.5980 H   0  0  0  0  0  0  0  0  0  0  0  0
    5.2879   14.4445   25.4096 H   0  0  0  0  0  0  0  0  0  0  0  0
    4.2132   13.1329   24.9463 H   0  0  0  0  0  0  0  0  0  0  0  0
    5.8847   13.1267   27.5343 H   0  0  0  0  0  0  0  0  0  0  0  0
    4.2654   13.8065   27.4228 H   0  0  0  0  0  0  0  0  0  0  0  0
    4.0825   11.6089   28.3351 H   0  0  0  0  0  0  0  0  0  0  0  0
    3.3318   11.6141   26.7483 H   0  0  0  0  0  0  0  0  0  0  0  0
   15.0749   14.8200   21.1395 H   0  0  0  0  0  0  0  0  0  0  0  0
   15.0684   16.4793   20.5473 H   0  0  0  0  0  0  0  0  0  0  0  0
   12.9429   16.1336   19.3858 H   0  0  0  0  0  0  0  0  0  0  0  0
   14.0834   14.8868   18.8957 H   0  0  0  0  0  0  0  0  0  0  0  0
   14.3367   16.3207   22.9297 H   0  0  0  0  0  0  0  0  0  0  0  0
   13.1024   17.0293   21.8954 H   0  0  0  0  0  0  0  0  0  0  0  0
    6.1198   10.5186   27.4177 H   0  0  0  0  0  0  0  0  0  0  0  0
    4.6481    9.5727   27.2177 H   0  0  0  0  0  0  0  0  0  0  0  0
   11.7997   13.9891   19.3502 H   0  0  0  0  0  0  0  0  0  0  0  0
   13.0269   13.2296   20.3420 H   0  0  0  0  0  0  0  0  0  0  0  0
   13.1909   14.1739   22.9843 H   0  0  0  0  0  0  0  0  0  0  0  0
   12.0532   15.4389   23.3959 H   0  0  0  0  0  0  0  0  0  0  0  0
    5.7674    9.3359   25.1559 H   0  0  0  0  0  0  0  0  0  0  0  0
    4.4866   10.4977   24.8008 H   0  0  0  0  0  0  0  0  0  0  0  0
   10.5543    8.1581   23.9666 H   0  0  0  0  0  0  0  0  0  0  0  0
    9.1741    7.7235   22.9285 H   0  0  0  0  0  0  0  0  0  0  0  0
   10.5655    8.5495   22.2292 H   0  0  0  0  0  0  0  0  0  0  0  0
   11.0795   12.5454   21.4053 H   0  0  0  0  0  0  0  0  0  0  0  0
  1 19  1  0  0  0  0
  1 21  3  0  0  0  0
  2  3  2  0  0  0  0
  2  5  1  0  0  0  0
  3  4  1  0  0  0  0
  3  8  1  0  0  0  0
  4  6  2  0  0  0  0
  4 22  1  0  0  0  0
  5 20  1  0  0  0  0
  5 23  2  0  0  0  0
  6 23  1  0  0  0  0
  6 24  1  0  0  0  0
  7  9  1  0  0  0  0
  7 22  2  0  0  0  0
  7 24  1  0  0  0  0
  8 25  1  0  0  0  0
  8 26  2  0  0  0  0
  9 10  1  0  0  0  0
 10 11  1  0  0  0  0
 11 15  1  0  0  0  0
 12 13  1  0  0  0  0
 12 14  1  0  0  0  0
 13 16  1  0  0  0  0
 14 17  1  0  0  0  0
 15 18  1  0  0  0  0
 16 19  1  0  0  0  0
 17 19  1  0  0  0  0
 18 24  1  0  0  0  0
 19 25  1  0  0  0  0
  2 27  1  0  0  0  0
  9 28  1  0  0  0  0
  9 29  1  0  0  0  0
 10 30  1  0  0  0  0
 10 31  1  0  0  0  0
 11 32  1  0  0  0  0
 11 33  1  0  0  0  0
 12 34  1  0  0  0  0
 12 35  1  0  0  0  0
 13 36  1  0  0  0  0
 13 37  1  0  0  0  0
 14 38  1  0  0  0  0
 14 39  1  0  0  0  0
 15 40  1  0  0  0  0
 15 41  1  0  0  0  0
 16 42  1  0  0  0  0
 16 43  1  0  0  0  0
 17 44  1  0  0  0  0
 17 45  1  0  0  0  0
 18 46  1  0  0  0  0
 18 47  1  0  0  0  0
 20 48  1  0  0  0  0
 20 49  1  0  0  0  0
 20 50  1  0  0  0  0
 25 51  1  0  0  0  0
M  END
> <id>
EN300-26689710

> <smiles>
CC=1C=C(C(=O)NC2(CCCCC2)C#N)C=3N=C4CCCCCN4C3N1

> <IUPAC Name>
N-(1-cyanocyclohexyl)-4-methyl-1,3,8-triazatricyclo[7.5.0.0,2,7]tetradeca-2(7),3,5,8-tetraene-6-carboxamide

> <CAS>
2323711-33-5

> <URL>
https://www.enaminestore.com/catalog/EN300-26689710

> <ROCS_ShapeQuery>
x0446_0A_x1080_0A_x0929_0A_x0812_0A_x0719_0A_x1140_0A_x0528_0A_x0310_0A

> <ROCS_TanimotoCombo>
0.409 

> <ROCS_ShapeTanimoto>
0.256 

> <ROCS_ColorTanimoto>
0.153 

> <ROCS_RefTversky>
0.234 

> <ROCS_RefColorTversky>
0.175 

> <ROCS_RefTverskyCombo>
0.409 

> <ROCS_FitTversky>
1.584 

> <ROCS_FitColorTversky>
0.549 

> <ROCS_FitTverskyCombo>
2.134 

> <ROCS_ColorScore>
-6.259

> <ROCS_Overlap>
2769.714

> <ROCS_Rank>
493                 

$$$$
untitled-dbase-217830_1
  -OEChem-02082415563D

 47 50  0     0  0  0  0  0  0999 V2000
   10.8913   15.9444   21.4497 C   0  0  0  0  0  0  0  0  0  0  0  0
   11.6378   14.3498   23.2664 C   0  0  0  0  0  0  0  0  0  0  0  0
   12.3491   16.3223   21.1793 C   0  0  0  0  0  0  0  0  0  0  0  0
   13.0968   14.7245   22.9989 C   0  0  0  0  0  0  0  0  0  0  0  0
    8.2236   10.0466   22.7385 C   0  0  0  0  0  0  0  0  0  0  0  0
    7.8532   11.0612   25.0015 C   0  0  0  0  0  0  0  0  0  0  0  0
   10.1685   10.4304   24.2740 C   0  0  0  0  0  0  0  0  0  0  0  0
    7.5842   12.4634   22.9397 C   0  0  0  0  0  0  0  0  0  0  0  0
    9.9047   11.8312   22.2104 C   0  0  0  0  0  0  0  0  0  0  0  0
    9.5337   12.8479   24.4786 C   0  0  0  0  0  0  0  0  0  0  0  0
    7.3856   11.0592   23.5366 C   0  0  0  0  0  0  0  0  0  0  0  0
    9.7124   10.4253   22.8055 C   0  0  0  0  0  0  0  0  0  0  0  0
    9.3402   11.4448   25.0798 C   0  0  0  0  0  0  0  0  0  0  0  0
    9.0754   12.8708   23.0010 C   0  0  0  0  0  0  0  0  0  0  0  0
   10.7351   14.5208   22.0258 C   0  0  0  0  0  0  0  0  0  0  0  0
   13.2126   16.1211   22.4127 C   0  0  0  0  0  0  0  0  0  0  0  0
    9.2692   14.2681   22.4063 C   0  0  0  0  0  0  0  0  0  0  0  0
   11.1244   13.5386   21.0037 N   0  0  0  0  0  0  0  0  0  0  0  0
   12.8580   17.0311   23.3576 F   0  0  0  0  0  0  0  0  0  0  0  0
   14.5086   16.3751   22.1032 F   0  0  0  0  0  0  0  0  0  0  0  0
   10.4690   16.6707   22.1572 H   0  0  0  0  0  0  0  0  0  0  0  0
   10.3145   16.0513   20.5218 H   0  0  0  0  0  0  0  0  0  0  0  0
   11.5930   13.3175   23.6374 H   0  0  0  0  0  0  0  0  0  0  0  0
   11.2587   14.9829   24.0802 H   0  0  0  0  0  0  0  0  0  0  0  0
   12.7496   15.7341   20.3453 H   0  0  0  0  0  0  0  0  0  0  0  0
   12.3970   17.3724   20.8688 H   0  0  0  0  0  0  0  0  0  0  0  0
   13.6585   14.6761   23.9390 H   0  0  0  0  0  0  0  0  0  0  0  0
   13.5619   13.9982   22.3220 H   0  0  0  0  0  0  0  0  0  0  0  0
    8.0755    9.0374   23.1421 H   0  0  0  0  0  0  0  0  0  0  0  0
    7.8893   10.0239   21.6940 H   0  0  0  0  0  0  0  0  0  0  0  0
    7.2521   11.7688   25.5858 H   0  0  0  0  0  0  0  0  0  0  0  0
    7.6984   10.0700   25.4452 H   0  0  0  0  0  0  0  0  0  0  0  0
   10.0548    9.4279   24.7047 H   0  0  0  0  0  0  0  0  0  0  0  0
   11.2340   10.6840   24.3349 H   0  0  0  0  0  0  0  0  0  0  0  0
    7.2299   12.4754   21.9008 H   0  0  0  0  0  0  0  0  0  0  0  0
    6.9700   13.1877   23.4900 H   0  0  0  0  0  0  0  0  0  0  0  0
   10.9691   12.0983   22.2332 H   0  0  0  0  0  0  0  0  0  0  0  0
    9.6033   11.8288   21.1550 H   0  0  0  0  0  0  0  0  0  0  0  0
    8.9641   13.5813   25.0640 H   0  0  0  0  0  0  0  0  0  0  0  0
   10.5897   13.1379   24.5528 H   0  0  0  0  0  0  0  0  0  0  0  0
    6.3263   10.7831   23.4869 H   0  0  0  0  0  0  0  0  0  0  0  0
   10.3046    9.6995   22.2370 H   0  0  0  0  0  0  0  0  0  0  0  0
    9.6680   11.4426   26.1254 H   0  0  0  0  0  0  0  0  0  0  0  0
    8.6358   14.3671   21.5224 H   0  0  0  0  0  0  0  0  0  0  0  0
    8.9439   15.0115   23.1368 H   0  0  0  0  0  0  0  0  0  0  0  0
   11.8797   13.0113   21.3651 H   0  0  0  0  0  0  0  0  0  0  0  0
   10.3393   12.9632   20.8255 H   0  0  0  0  0  0  0  0  0  0  0  0
  1  3  1  0  0  0  0
  1 15  1  0  0  0  0
  2  4  1  0  0  0  0
  2 15  1  0  0  0  0
  3 16  1  0  0  0  0
  4 16  1  0  0  0  0
  5 11  1  0  0  0  0
  5 12  1  0  0  0  0
  6 11  1  0  0  0  0
  6 13  1  0  0  0  0
  7 12  1  0  0  0  0
  7 13  1  0  0  0  0
  8 11  1  0  0  0  0
  8 14  1  0  0  0  0
  9 12  1  0  0  0  0
  9 14  1  0  0  0  0
 10 13  1  0  0  0  0
 10 14  1  0  0  0  0
 14 17  1  0  0  0  0
 15 17  1  0  0  0  0
 15 18  1  0  0  0  0
 16 19  1  0  0  0  0
 16 20  1  0  0  0  0
  1 21  1  0  0  0  0
  1 22  1  0  0  0  0
  2 23  1  0  0  0  0
  2 24  1  0  0  0  0
  3 25  1  0  0  0  0
  3 26  1  0  0  0  0
  4 27  1  0  0  0  0
  4 28  1  0  0  0  0
  5 29  1  0  0  0  0
  5 30  1  0  0  0  0
  6 31  1  0  0  0  0
  6 32  1  0  0  0  0
  7 33  1  0  0  0  0
  7 34  1  0  0  0  0
  8 35  1  0  0  0  0
  8 36  1  0  0  0  0
  9 37  1  0  0  0  0
  9 38  1  0  0  0  0
 10 39  1  0  0  0  0
 10 40  1  0  0  0  0
 11 41  1  0  0  0  0
 12 42  1  0  0  0  0
 13 43  1  0  0  0  0
 17 44  1  0  0  0  0
 17 45  1  0  0  0  0
 18 46  1  0  0  0  0
 18 47  1  0  0  0  0
M  END
> <id>
EN300-1962849

> <smiles>
NC1(CC2(CC3CC4CC(C3)C2)C4)CCC(F)(F)CC1

> <IUPAC Name>
1-[(adamantan-1-yl)methyl]-4,4-difluorocyclohexan-1-amine

> <CAS>
2229184-83-0

> <URL>
https://www.enaminestore.com/catalog/EN300-1962849

> <ROCS_ShapeQuery>
x0446_0A_x1080_0A_x0929_0A_x0812_0A_x0719_0A_x1140_0A_x0528_0A_x0310_0A

> <ROCS_TanimotoCombo>
0.409 

> <ROCS_ShapeTanimoto>
0.234 

> <ROCS_ColorTanimoto>
0.175 

> <ROCS_RefTversky>
0.214 

> <ROCS_RefColorTversky>
0.194 

> <ROCS_RefTverskyCombo>
0.408 

> <ROCS_FitTversky>
1.707 

> <ROCS_FitColorTversky>
0.640 

> <ROCS_FitTverskyCombo>
2.347 

> <ROCS_ColorScore>
-6.945

> <ROCS_Overlap>
2522.135

> <ROCS_Rank>
494                 

$$$$
untitled-dbase-538482_6
  -OEChem-02082415563D

 31 32  0     0  0  0  0  0  0999 V2000
   10.1808   11.7709   23.1227 C   0  0  0  0  0  0  0  0  0  0  0  0
    8.2703   12.6381   24.4715 C   0  0  0  0  0  0  0  0  0  0  0  0
   10.3677   10.6095   24.1052 C   0  0  0  0  0  0  0  0  0  0  0  0
    8.4357   11.4884   25.4715 C   0  0  0  0  0  0  0  0  0  0  0  0
    7.8863   10.8945   22.7425 C   0  0  0  0  0  0  0  0  0  0  0  0
    8.6916   12.1669   23.0649 C   0  0  0  0  0  0  0  0  0  0  0  0
    9.0198   10.2573   24.7576 C   0  0  0  0  0  0  0  0  0  0  0  0
    9.1656    9.0827   25.7193 C   0  0  0  0  0  0  0  0  0  0  0  0
    8.4521   13.2578   22.0241 C   0  0  0  0  0  0  0  0  0  0  0  0
   10.9358   13.6380   21.1653 N   0  0  0  0  0  0  0  0  0  0  0  0
    9.3016   15.6200   21.2991 O   0  0  0  0  0  0  0  0  0  0  0  0
   10.1950   14.6019   23.4323 O   0  0  0  0  0  0  0  0  0  0  0  0
    8.1054    9.8637   23.7178 O   0  0  0  0  0  0  0  0  0  0  0  0
    9.7362   14.4582   22.0592 S   0  0  0  0  0  0  0  0  0  0  0  0
   10.7970   12.6238   23.4335 H   0  0  0  0  0  0  0  0  0  0  0  0
   10.5412   11.4725   22.1303 H   0  0  0  0  0  0  0  0  0  0  0  0
    7.2262   12.9757   24.4705 H   0  0  0  0  0  0  0  0  0  0  0  0
    8.8744   13.4970   24.7895 H   0  0  0  0  0  0  0  0  0  0  0  0
   10.7571    9.7442   23.5540 H   0  0  0  0  0  0  0  0  0  0  0  0
   11.1148   10.8751   24.8623 H   0  0  0  0  0  0  0  0  0  0  0  0
    9.0771   11.8035   26.3029 H   0  0  0  0  0  0  0  0  0  0  0  0
    7.4519   11.2478   25.8933 H   0  0  0  0  0  0  0  0  0  0  0  0
    6.8104   11.1009   22.7167 H   0  0  0  0  0  0  0  0  0  0  0  0
    8.1629   10.4866   21.7637 H   0  0  0  0  0  0  0  0  0  0  0  0
    8.2013    8.8497   26.1699 H   0  0  0  0  0  0  0  0  0  0  0  0
    9.8741    9.3342   26.5079 H   0  0  0  0  0  0  0  0  0  0  0  0
    9.5278    8.2063   25.1828 H   0  0  0  0  0  0  0  0  0  0  0  0
    7.5132   13.7707   22.2246 H   0  0  0  0  0  0  0  0  0  0  0  0
    8.4279   12.8270   21.0250 H   0  0  0  0  0  0  0  0  0  0  0  0
   11.1496   13.9858   20.2225 H   0  0  0  0  0  0  0  0  0  0  0  0
   11.7580   13.2923   21.6754 H   0  0  0  0  0  0  0  0  0  0  0  0
  1  3  1  0  0  0  0
  1  6  1  0  0  0  0
  2  4  1  0  0  0  0
  2  6  1  0  0  0  0
  3  7  1  0  0  0  0
  4  7  1  0  0  0  0
  5  6  1  0  0  0  0
  5 13  1  0  0  0  0
  6  9  1  0  0  0  0
  7  8  1  0  0  0  0
  7 13  1  0  0  0  0
  9 14  1  0  0  0  0
 10 14  1  0  0  0  0
 11 14  2  0  0  0  0
 12 14  2  0  0  0  0
  1 15  1  0  0  0  0
  1 16  1  0  0  0  0
  2 17  1  0  0  0  0
  2 18  1  0  0  0  0
  3 19  1  0  0  0  0
  3 20  1  0  0  0  0
  4 21  1  0  0  0  0
  4 22  1  0  0  0  0
  5 23  1  0  0  0  0
  5 24  1  0  0  0  0
  8 25  1  0  0  0  0
  8 26  1  0  0  0  0
  8 27  1  0  0  0  0
  9 28  1  0  0  0  0
  9 29  1  0  0  0  0
 10 30  1  0  0  0  0
 10 31  1  0  0  0  0
M  END
> <id>
EN300-1120996

> <smiles>
CC1(CCC2(CS(=O)(=O)N)CC1)OC2

> <MDLNUMBER>
MFCD31600115

> <IUPAC Name>
{1-methyl-2-oxabicyclo[2.2.2]octan-4-yl}methanesulfonamide

> <CAS>
2137101-39-2

> <URL>
https://www.enaminestore.com/catalog/EN300-1120996

> <ROCS_ShapeQuery>
x0446_0A_x1080_0A_x0929_0A_x0812_0A_x0719_0A_x1140_0A_x0528_0A_x0310_0A

> <ROCS_TanimotoCombo>
0.409 

> <ROCS_ShapeTanimoto>
0.184 

> <ROCS_ColorTanimoto>
0.225 

> <ROCS_RefTversky>
0.171 

> <ROCS_RefColorTversky>
0.242 

> <ROCS_RefTverskyCombo>
0.413 

> <ROCS_FitTversky>
1.701 

> <ROCS_FitColorTversky>
0.762 

> <ROCS_FitTverskyCombo>
2.463 

> <ROCS_ColorScore>
-8.689

> <ROCS_Overlap>
2014.257

> <ROCS_Rank>
495                 

$$$$
untitled-dbase-592792_9
  -OEChem-02082415563D

 36 38  0     1  0  0  0  0  0999 V2000
    8.6362   14.5159   21.7954 C   0  0  0  0  0  0  0  0  0  0  0  0
    9.4374    9.7424   23.9011 C   0  0  0  0  0  0  0  0  0  0  0  0
   10.0733   12.1037   24.4603 C   0  0  0  0  0  0  0  0  0  0  0  0
    8.9394   11.5878   22.2768 C   0  0  0  0  0  0  0  0  0  0  0  0
    8.2021   10.9820   25.6952 C   0  0  0  0  0  0  0  0  0  0  0  0
    7.0700   10.4694   23.5166 C   0  0  0  0  0  0  0  0  0  0  0  0
    7.7006   12.8329   24.0726 C   0  0  0  0  0  0  0  0  0  0  0  0
    9.5749   10.7676   25.0395 C   0  0  1  0  0  0  0  0  0  0  0  0
    8.4366   10.2508   22.8496 C   0  0  2  0  0  0  0  0  0  0  0  0
    9.0800   12.6408   23.4019 C   0  0  0  0  0  0  0  0  0  0  0  0
    7.1970   11.4987   24.6516 C   0  0  0  0  0  0  0  0  0  0  0  0
    4.9625   12.1659   24.3601 C   0  0  0  0  0  0  0  0  0  0  0  0
    9.5813   13.9684   22.8277 C   0  0  0  0  0  0  0  0  0  0  0  0
    7.5877   14.0092   21.4255 O   0  0  0  0  0  0  0  0  0  0  0  0
    9.1190   15.6894   21.3121 O   0  0  0  0  0  0  0  0  0  0  0  0
    5.9363   11.6874   25.2785 O   0  0  0  0  0  0  0  0  0  0  0  0
   10.4145    9.5677   23.4342 H   0  0  0  0  0  0  0  0  0  0  0  0
    9.0998    8.7793   24.3038 H   0  0  0  0  0  0  0  0  0  0  0  0
   10.1946   12.8337   25.2710 H   0  0  0  0  0  0  0  0  0  0  0  0
   11.0653   11.9630   24.0119 H   0  0  0  0  0  0  0  0  0  0  0  0
    9.9052   11.4346   21.7781 H   0  0  0  0  0  0  0  0  0  0  0  0
    8.2413   11.9447   21.5085 H   0  0  0  0  0  0  0  0  0  0  0  0
    7.8385   10.0462   26.1390 H   0  0  0  0  0  0  0  0  0  0  0  0
    8.2816   11.6934   26.5275 H   0  0  0  0  0  0  0  0  0  0  0  0
    6.3336   10.8096   22.7768 H   0  0  0  0  0  0  0  0  0  0  0  0
    6.6786    9.5218   23.9088 H   0  0  0  0  0  0  0  0  0  0  0  0
    7.7577   13.5856   24.8704 H   0  0  0  0  0  0  0  0  0  0  0  0
    6.9711   13.2260   23.3515 H   0  0  0  0  0  0  0  0  0  0  0  0
   10.2879   10.3988   25.7850 H   0  0  0  0  0  0  0  0  0  0  0  0
    8.3418    9.5153   22.0430 H   0  0  0  0  0  0  0  0  0  0  0  0
    4.0084   12.2989   24.8760 H   0  0  0  0  0  0  0  0  0  0  0  0
    4.8498   11.4505   23.5416 H   0  0  0  0  0  0  0  0  0  0  0  0
    5.2941   13.1265   23.9588 H   0  0  0  0  0  0  0  0  0  0  0  0
    9.6756   14.6891   23.6414 H   0  0  0  0  0  0  0  0  0  0  0  0
   10.5561   13.8046   22.3658 H   0  0  0  0  0  0  0  0  0  0  0  0
    8.5258   16.0773   20.6339 H   0  0  0  0  0  0  0  0  0  0  0  0
  1 13  1  0  0  0  0
  1 14  2  0  0  0  0
  1 15  1  0  0  0  0
  2  8  1  0  0  0  0
  2  9  1  0  0  0  0
  3  8  1  0  0  0  0
  3 10  1  0  0  0  0
  4  9  1  0  0  0  0
  4 10  1  0  0  0  0
  5  8  1  0  0  0  0
  5 11  1  0  0  0  0
  6  9  1  0  0  0  0
  6 11  1  0  0  0  0
  7 10  1  0  0  0  0
  7 11  1  0  0  0  0
 10 13  1  0  0  0  0
 11 16  1  0  0  0  0
 12 16  1  0  0  0  0
  2 17  1  0  0  0  0
  2 18  1  0  0  0  0
  3 19  1  0  0  0  0
  3 20  1  0  0  0  0
  4 21  1  0  0  0  0
  4 22  1  0  0  0  0
  5 23  1  0  0  0  0
  5 24  1  0  0  0  0
  6 25  1  0  0  0  0
  6 26  1  0  0  0  0
  7 27  1  0  0  0  0
  7 28  1  0  0  0  0
  8 29  1  0  0  0  0
  9 30  1  0  0  0  0
 12 31  1  0  0  0  0
 12 32  1  0  0  0  0
 12 33  1  0  0  0  0
 13 34  1  0  0  0  0
 13 35  1  0  0  0  0
 15 36  1  0  0  0  0
M  END
> <id>
EN300-45559167

> <smiles>
COC1(CC2CC3CC(CC(=O)O)(C2)C1)C3

> <IUPAC Name>
2-(3-methoxyadamantan-1-yl)acetic acid

> <URL>
https://www.enaminestore.com/catalog/EN300-45559167

> <ROCS_ShapeQuery>
x0446_0A_x1080_0A_x0929_0A_x0812_0A_x0719_0A_x1140_0A_x0528_0A_x0310_0A

> <ROCS_TanimotoCombo>
0.409 

> <ROCS_ShapeTanimoto>
0.212 

> <ROCS_ColorTanimoto>
0.197 

> <ROCS_RefTversky>
0.194 

> <ROCS_RefColorTversky>
0.219 

> <ROCS_RefTverskyCombo>
0.413 

> <ROCS_FitTversky>
1.760 

> <ROCS_FitColorTversky>
0.665 

> <ROCS_FitTverskyCombo>
2.425 

> <ROCS_ColorScore>
-7.855

> <ROCS_Overlap>
2289.822

> <ROCS_Rank>
496                 

$$$$
untitled-dbase-414624_1
  -OEChem-02082415563D

 32 33  0     1  0  0  0  0  0999 V2000
    9.1916   11.8738   24.1227 C   0  0  0  0  0  0  0  0  0  0  0  0
    8.3358   10.5614   23.0766 C   0  0  0  0  0  0  0  0  0  0  0  0
    7.2691   11.4536   24.6427 C   0  0  0  0  0  0  0  0  0  0  0  0
    7.8918   12.8570   23.5144 C   0  0  0  0  0  0  0  0  0  0  0  0
    8.6773   10.2533   24.3919 C   0  0  2  0  0  0  0  0  0  0  0  0
    9.6651   12.5660   23.0694 C   0  0  2  0  0  0  0  0  0  0  0  0
   10.3137   10.9407   23.6518 C   0  0  0  0  0  0  0  0  0  0  0  0
   11.4838   10.8964   24.7189 C   0  0  0  0  0  0  0  0  0  0  0  0
   10.9712   10.2437   22.4060 C   0  0  0  0  0  0  0  0  0  0  0  0
   10.5573   13.7436   23.4082 C   0  0  0  0  0  0  0  0  0  0  0  0
   11.3275   13.8501   20.8692 N   0  0  0  0  0  0  0  0  0  0  0  0
    9.3252   12.2231   25.3127 O   0  0  0  0  0  0  0  0  0  0  0  0
    9.3192   15.2463   21.6657 O   0  0  0  0  0  0  0  0  0  0  0  0
   11.6493   15.8925   22.3995 O   0  0  0  0  0  0  0  0  0  0  0  0
   10.6676   14.8751   22.0618 S   0  0  0  0  0  0  0  0  0  0  0  0
    7.3261   10.7299   22.6951 H   0  0  0  0  0  0  0  0  0  0  0  0
    8.8305    9.9299   22.3517 H   0  0  0  0  0  0  0  0  0  0  0  0
    7.2049   11.7937   25.6851 H   0  0  0  0  0  0  0  0  0  0  0  0
    6.2963   11.0879   24.2881 H   0  0  0  0  0  0  0  0  0  0  0  0
    7.2903   12.8656   22.5940 H   0  0  0  0  0  0  0  0  0  0  0  0
    7.7651   13.8080   24.0568 H   0  0  0  0  0  0  0  0  0  0  0  0
    8.5750    9.2027   24.6608 H   0  0  0  0  0  0  0  0  0  0  0  0
   12.3570   11.2910   24.2412 H   0  0  0  0  0  0  0  0  0  0  0  0
   11.6116    9.8710   24.9995 H   0  0  0  0  0  0  0  0  0  0  0  0
   11.1742   11.5010   25.5468 H   0  0  0  0  0  0  0  0  0  0  0  0
   11.8661   10.7872   22.1645 H   0  0  0  0  0  0  0  0  0  0  0  0
   10.2617   10.2829   21.6000 H   0  0  0  0  0  0  0  0  0  0  0  0
   11.1933    9.2290   22.6813 H   0  0  0  0  0  0  0  0  0  0  0  0
   11.5720   13.4090   23.6349 H   0  0  0  0  0  0  0  0  0  0  0  0
   10.1632   14.2952   24.2645 H   0  0  0  0  0  0  0  0  0  0  0  0
   12.3070   13.5597   20.9775 H   0  0  0  0  0  0  0  0  0  0  0  0
   10.7200   13.1199   20.4777 H   0  0  0  0  0  0  0  0  0  0  0  0
  1  2  1  0  0  0  0
  1  6  1  0  0  0  0
  1 12  2  0  0  0  0
  2  5  1  0  0  0  0
  3  4  1  0  0  0  0
  3  5  1  1  0  0  0
  4  6  1  0  0  0  0
  5  7  1  0  0  0  0
  6  7  1  0  0  0  0
  6 10  1  1  0  0  0
  7  8  1  0  0  0  0
  7  9  1  0  0  0  0
 10 15  1  0  0  0  0
 11 15  1  0  0  0  0
 13 15  2  0  0  0  0
 14 15  2  0  0  0  0
  2 16  1  0  0  0  0
  2 17  1  0  0  0  0
  3 18  1  0  0  0  0
  3 19  1  0  0  0  0
  4 20  1  0  0  0  0
  4 21  1  0  0  0  0
  5 22  1  0  0  0  0
  8 23  1  0  0  0  0
  8 24  1  0  0  0  0
  8 25  1  0  0  0  0
  9 26  1  0  0  0  0
  9 27  1  0  0  0  0
  9 28  1  0  0  0  0
 10 29  1  0  0  0  0
 10 30  1  0  0  0  0
 11 31  1  0  0  0  0
 11 32  1  0  0  0  0
M  END
> <id>
EN300-1629204

> <smiles>
CC1(C)[C@H]2CC[C@@]1(CS(=O)(=O)N)C(=O)C2

> <IUPAC Name>
[(1S,4S)-7,7-dimethyl-2-oxobicyclo[2.2.1]heptan-1-yl]methanesulfonamide

> <CAS>
2648851-48-1

> <URL>
https://www.enaminestore.com/catalog/EN300-1629204

> <ROCS_ShapeQuery>
x0446_0A_x1080_0A_x0929_0A_x0812_0A_x0719_0A_x1140_0A_x0528_0A_x0310_0A

> <ROCS_TanimotoCombo>
0.409 

> <ROCS_ShapeTanimoto>
0.217 

> <ROCS_ColorTanimoto>
0.192 

> <ROCS_RefTversky>
0.197 

> <ROCS_RefColorTversky>
0.222 

> <ROCS_RefTverskyCombo>
0.419 

> <ROCS_FitTversky>
1.876 

> <ROCS_FitColorTversky>
0.592 

> <ROCS_FitTverskyCombo>
2.468 

> <ROCS_ColorScore>
-7.968

> <ROCS_Overlap>
2322.286

> <ROCS_Rank>
497                 

$$$$
untitled-dbase-59294_1
  -OEChem-02082415563D

 40 43  0     1  0  0  0  0  0999 V2000
   10.3091   14.6680   21.8659 C   0  0  0  0  0  0  0  0  0  0  0  0
   11.7974   14.1675   23.7021 C   0  0  0  0  0  0  0  0  0  0  0  0
   11.0581   15.8067   21.5692 C   0  0  0  0  0  0  0  0  0  0  0  0
   12.5464   15.3061   23.4054 C   0  0  0  0  0  0  0  0  0  0  0  0
   10.6787   13.8484   22.9323 C   0  0  0  0  0  0  0  0  0  0  0  0
   12.1767   16.1258   22.3389 C   0  0  0  0  0  0  0  0  0  0  0  0
    6.1430   12.1701   24.3138 C   0  0  0  0  0  0  0  0  0  0  0  0
    9.5858    9.6457   23.6944 C   0  0  0  0  0  0  0  0  0  0  0  0
    9.7891   11.5603   22.0916 C   0  0  0  0  0  0  0  0  0  0  0  0
   10.4636   11.8578   24.4889 C   0  0  0  0  0  0  0  0  0  0  0  0
    7.5239   10.7669   22.8116 C   0  0  0  0  0  0  0  0  0  0  0  0
    8.1930   11.0735   25.2112 C   0  0  0  0  0  0  0  0  0  0  0  0
    8.3869   12.9912   23.5993 C   0  0  0  0  0  0  0  0  0  0  0  0
    8.9544   10.3254   22.4716 C   0  0  2  0  0  0  0  0  0  0  0  0
    9.6247   10.6268   24.8741 C   0  0  1  0  0  0  0  0  0  0  0  0
    9.8539   12.5933   23.2590 C   0  0  0  0  0  0  0  0  0  0  0  0
    7.5501   11.7556   23.9889 C   0  0  0  0  0  0  0  0  0  0  0  0
    5.5907   11.9956   25.3899 O   0  0  0  0  0  0  0  0  0  0  0  0
   12.9082   17.2362   22.0485 O   0  0  0  0  0  0  0  0  0  0  0  0
    5.5606   12.7665   23.2449 O   0  0  0  0  0  0  0  0  0  0  0  0
    9.4391   14.4271   21.2610 H   0  0  0  0  0  0  0  0  0  0  0  0
   12.0928   13.5346   24.5350 H   0  0  0  0  0  0  0  0  0  0  0  0
   10.7652   16.4412   20.7369 H   0  0  0  0  0  0  0  0  0  0  0  0
   13.4168   15.5490   24.0084 H   0  0  0  0  0  0  0  0  0  0  0  0
    9.0092    8.7533   23.9671 H   0  0  0  0  0  0  0  0  0  0  0  0
   10.6011    9.3075   23.4537 H   0  0  0  0  0  0  0  0  0  0  0  0
   10.8043   11.2462   21.8131 H   0  0  0  0  0  0  0  0  0  0  0  0
    9.3606   12.0327   21.1971 H   0  0  0  0  0  0  0  0  0  0  0  0
   10.5224   12.5448   25.3439 H   0  0  0  0  0  0  0  0  0  0  0  0
   11.4951   11.5493   24.2715 H   0  0  0  0  0  0  0  0  0  0  0  0
    7.0553   11.2292   21.9328 H   0  0  0  0  0  0  0  0  0  0  0  0
    6.9105    9.8906   23.0601 H   0  0  0  0  0  0  0  0  0  0  0  0
    7.5974   10.2054   25.5232 H   0  0  0  0  0  0  0  0  0  0  0  0
    8.2060   11.7593   26.0686 H   0  0  0  0  0  0  0  0  0  0  0  0
    8.3787   13.7232   24.4195 H   0  0  0  0  0  0  0  0  0  0  0  0
    7.9289   13.5047   22.7417 H   0  0  0  0  0  0  0  0  0  0  0  0
    8.9326    9.6233   21.6305 H   0  0  0  0  0  0  0  0  0  0  0  0
   10.0721   10.1365   25.7461 H   0  0  0  0  0  0  0  0  0  0  0  0
   13.6495   17.3224   22.6688 H   0  0  0  0  0  0  0  0  0  0  0  0
    4.6392   13.0432   23.4367 H   0  0  0  0  0  0  0  0  0  0  0  0
  1  3  2  0  0  0  0
  1  5  1  0  0  0  0
  2  4  1  0  0  0  0
  2  5  2  0  0  0  0
  3  6  1  0  0  0  0
  4  6  2  0  0  0  0
  5 16  1  0  0  0  0
  6 19  1  0  0  0  0
  7 17  1  0  0  0  0
  7 18  2  0  0  0  0
  7 20  1  0  0  0  0
  8 14  1  0  0  0  0
  8 15  1  0  0  0  0
  9 14  1  0  0  0  0
  9 16  1  0  0  0  0
 10 15  1  0  0  0  0
 10 16  1  0  0  0  0
 11 14  1  0  0  0  0
 11 17  1  0  0  0  0
 12 15  1  0  0  0  0
 12 17  1  0  0  0  0
 13 16  1  0  0  0  0
 13 17  1  0  0  0  0
  1 21  1  0  0  0  0
  2 22  1  0  0  0  0
  3 23  1  0  0  0  0
  4 24  1  0  0  0  0
  8 25  1  0  0  0  0
  8 26  1  0  0  0  0
  9 27  1  0  0  0  0
  9 28  1  0  0  0  0
 10 29  1  0  0  0  0
 10 30  1  0  0  0  0
 11 31  1  0  0  0  0
 11 32  1  0  0  0  0
 12 33  1  0  0  0  0
 12 34  1  0  0  0  0
 13 35  1  0  0  0  0
 13 36  1  0  0  0  0
 14 37  1  0  0  0  0
 15 38  1  0  0  0  0
 19 39  1  0  0  0  0
 20 40  1  0  0  0  0
M  END
> <id>
EN300-26002

> <smiles>
OC(=O)C1(CC2CC3C1)CC(C2)(C3)C=4C=CC(O)=CC4

> <MDLNUMBER>
MFCD01678008

> <IUPAC Name>
3-(4-hydroxyphenyl)adamantane-1-carboxylic acid

> <CAS>
56531-55-6

> <URL>
https://www.enaminestore.com/catalog/EN300-26002

> <ROCS_ShapeQuery>
x0446_0A_x1080_0A_x0929_0A_x0812_0A_x0719_0A_x1140_0A_x0528_0A_x0310_0A

> <ROCS_TanimotoCombo>
0.409 

> <ROCS_ShapeTanimoto>
0.251 

> <ROCS_ColorTanimoto>
0.158 

> <ROCS_RefTversky>
0.226 

> <ROCS_RefColorTversky>
0.189 

> <ROCS_RefTverskyCombo>
0.415 

> <ROCS_FitTversky>
1.788 

> <ROCS_FitColorTversky>
0.495 

> <ROCS_FitTverskyCombo>
2.283 

> <ROCS_ColorScore>
-6.783

> <ROCS_Overlap>
2667.556

> <ROCS_Rank>
498                 

$$$$
untitled-dbase-110117_6
  -OEChem-02082415563D

 31 32  0     0  0  0  0  0  0999 V2000
    8.2764   12.6394   24.4719 C   0  0  0  0  0  0  0  0  0  0  0  0
   10.1808   11.7668   23.1182 C   0  0  0  0  0  0  0  0  0  0  0  0
    8.4405   11.4894   25.4717 C   0  0  0  0  0  0  0  0  0  0  0  0
   10.3678   10.6064   24.1019 C   0  0  0  0  0  0  0  0  0  0  0  0
    7.8831   10.8960   22.7450 C   0  0  0  0  0  0  0  0  0  0  0  0
    8.6924   12.1665   23.0644 C   0  0  0  0  0  0  0  0  0  0  0  0
    9.0207   10.2570   24.7571 C   0  0  0  0  0  0  0  0  0  0  0  0
    9.1662    9.0825   25.7191 C   0  0  0  0  0  0  0  0  0  0  0  0
    8.4525   13.2573   22.0237 C   0  0  0  0  0  0  0  0  0  0  0  0
   10.9361   13.6389   21.1652 N   0  0  0  0  0  0  0  0  0  0  0  0
    9.3008   15.6200   21.2989 O   0  0  0  0  0  0  0  0  0  0  0  0
   10.1946   14.6023   23.4322 O   0  0  0  0  0  0  0  0  0  0  0  0
    8.1035    9.8647   23.7194 O   0  0  0  0  0  0  0  0  0  0  0  0
    9.7360   14.4584   22.0591 S   0  0  0  0  0  0  0  0  0  0  0  0
    7.2335   12.9806   24.4736 H   0  0  0  0  0  0  0  0  0  0  0  0
    8.8840   13.4965   24.7881 H   0  0  0  0  0  0  0  0  0  0  0  0
   10.8001   12.6187   23.4258 H   0  0  0  0  0  0  0  0  0  0  0  0
   10.5374   11.4662   22.1250 H   0  0  0  0  0  0  0  0  0  0  0  0
    9.0838   11.8032   26.3022 H   0  0  0  0  0  0  0  0  0  0  0  0
    7.4565   11.2510   25.8947 H   0  0  0  0  0  0  0  0  0  0  0  0
   10.7549    9.7400   23.5510 H   0  0  0  0  0  0  0  0  0  0  0  0
   11.1166   10.8721   24.8574 H   0  0  0  0  0  0  0  0  0  0  0  0
    6.8075   11.1048   22.7231 H   0  0  0  0  0  0  0  0  0  0  0  0
    8.1552   10.4874   21.7651 H   0  0  0  0  0  0  0  0  0  0  0  0
    9.5781    8.2213   25.1940 H   0  0  0  0  0  0  0  0  0  0  0  0
    8.1928    8.8158   26.1293 H   0  0  0  0  0  0  0  0  0  0  0  0
    9.8341    9.3527   26.5364 H   0  0  0  0  0  0  0  0  0  0  0  0
    7.5133   13.7698   22.2241 H   0  0  0  0  0  0  0  0  0  0  0  0
    8.4286   12.8266   21.0245 H   0  0  0  0  0  0  0  0  0  0  0  0
   11.1498   13.9868   20.2224 H   0  0  0  0  0  0  0  0  0  0  0  0
   11.7584   13.2936   21.6753 H   0  0  0  0  0  0  0  0  0  0  0  0
  1  3  1  0  0  0  0
  1  6  1  0  0  0  0
  2  4  1  0  0  0  0
  2  6  1  0  0  0  0
  3  7  1  0  0  0  0
  4  7  1  0  0  0  0
  5  6  1  0  0  0  0
  5 13  1  0  0  0  0
  6  9  1  6  0  0  0
  7  8  1  6  0  0  0
  7 13  1  0  0  0  0
  9 14  1  0  0  0  0
 10 14  1  0  0  0  0
 11 14  2  0  0  0  0
 12 14  2  0  0  0  0
  1 15  1  0  0  0  0
  1 16  1  0  0  0  0
  2 17  1  0  0  0  0
  2 18  1  0  0  0  0
  3 19  1  0  0  0  0
  3 20  1  0  0  0  0
  4 21  1  0  0  0  0
  4 22  1  0  0  0  0
  5 23  1  0  0  0  0
  5 24  1  0  0  0  0
  8 25  1  0  0  0  0
  8 26  1  0  0  0  0
  8 27  1  0  0  0  0
  9 28  1  0  0  0  0
  9 29  1  0  0  0  0
 10 30  1  0  0  0  0
 10 31  1  0  0  0  0
M  END
> <id>
EN300-1120997

> <smiles>
C[C@]1(CC[C@@]2(CS(=O)(=O)N)CC1)OC2

> <IUPAC Name>
[(1r,4r)-1-methyl-2-oxabicyclo[2.2.2]octan-4-yl]methanesulfonamide

> <CAS>
2137101-39-2

> <URL>
https://www.enaminestore.com/catalog/EN300-1120997

> <ROCS_ShapeQuery>
x0446_0A_x1080_0A_x0929_0A_x0812_0A_x0719_0A_x1140_0A_x0528_0A_x0310_0A

> <ROCS_TanimotoCombo>
0.409 

> <ROCS_ShapeTanimoto>
0.184 

> <ROCS_ColorTanimoto>
0.225 

> <ROCS_RefTversky>
0.171 

> <ROCS_RefColorTversky>
0.242 

> <ROCS_RefTverskyCombo>
0.413 

> <ROCS_FitTversky>
1.701 

> <ROCS_FitColorTversky>
0.762 

> <ROCS_FitTverskyCombo>
2.463 

> <ROCS_ColorScore>
-8.689

> <ROCS_Overlap>
2013.956

> <ROCS_Rank>
499                 

$$$$
untitled-dbase-413937_2
  -OEChem-02082415563D

 28 30  0     0  0  0  0  0  0999 V2000
   10.0781   13.5648   23.6386 C   0  0  0  0  0  0  0  0  0  0  0  0
   11.6465   10.8289   22.5960 C   0  0  0  0  0  0  0  0  0  0  0  0
   10.2116   10.7472   22.0449 C   0  0  0  0  0  0  0  0  0  0  0  0
   11.0919   10.5086   23.9956 C   0  0  0  0  0  0  0  0  0  0  0  0
    8.5793   12.0647   25.2870 C   0  0  0  0  0  0  0  0  0  0  0  0
    7.7235   12.2969   23.3900 C   0  0  0  0  0  0  0  0  0  0  0  0
    9.2309   12.3251   23.8691 C   0  0  0  0  0  0  0  0  0  0  0  0
    9.6880   10.8722   23.4850 C   0  0  0  0  0  0  0  0  0  0  0  0
    7.7175   11.0803   24.3995 C   0  0  0  0  0  0  0  0  0  0  0  0
    6.4138   10.5482   24.9221 C   0  0  0  0  0  0  0  0  0  0  0  0
   11.0994   13.8407   24.2504 O   0  0  0  0  0  0  0  0  0  0  0  0
    8.5819   10.0186   23.8797 O   0  0  0  0  0  0  0  0  0  0  0  0
    9.5452   14.3332   22.6573 O   0  0  0  0  0  0  0  0  0  0  0  0
    5.5357   11.6336   25.2006 O   0  0  0  0  0  0  0  0  0  0  0  0
   12.3160   10.0524   22.1988 H   0  0  0  0  0  0  0  0  0  0  0  0
   12.1420   11.8016   22.4914 H   0  0  0  0  0  0  0  0  0  0  0  0
    9.9484   11.5762   21.3700 H   0  0  0  0  0  0  0  0  0  0  0  0
    9.9692    9.8062   21.5302 H   0  0  0  0  0  0  0  0  0  0  0  0
   11.2264    9.4655   24.3163 H   0  0  0  0  0  0  0  0  0  0  0  0
   11.4915   11.1578   24.7896 H   0  0  0  0  0  0  0  0  0  0  0  0
    9.2198   11.5905   26.0365 H   0  0  0  0  0  0  0  0  0  0  0  0
    8.0520   12.9078   25.7476 H   0  0  0  0  0  0  0  0  0  0  0  0
    7.1076   13.1639   23.6543 H   0  0  0  0  0  0  0  0  0  0  0  0
    7.5520   12.0430   22.3396 H   0  0  0  0  0  0  0  0  0  0  0  0
    6.5620    9.9786   25.8495 H   0  0  0  0  0  0  0  0  0  0  0  0
    5.9292    9.8937   24.1850 H   0  0  0  0  0  0  0  0  0  0  0  0
   10.0776   15.1408   22.4945 H   0  0  0  0  0  0  0  0  0  0  0  0
    4.7113   11.2454   25.5336 H   0  0  0  0  0  0  0  0  0  0  0  0
  1  7  1  0  0  0  0
  1 11  2  0  0  0  0
  1 13  1  0  0  0  0
  2  3  1  0  0  0  0
  2  4  1  0  0  0  0
  3  8  1  0  0  0  0
  4  8  1  0  0  0  0
  5  7  1  0  0  0  0
  5  9  1  0  0  0  0
  6  7  1  0  0  0  0
  6  9  1  0  0  0  0
  7  8  1  0  0  0  0
  8 12  1  0  0  0  0
  9 10  1  0  0  0  0
  9 12  1  0  0  0  0
 10 14  1  0  0  0  0
  2 15  1  0  0  0  0
  2 16  1  0  0  0  0
  3 17  1  0  0  0  0
  3 18  1  0  0  0  0
  4 19  1  0  0  0  0
  4 20  1  0  0  0  0
  5 21  1  0  0  0  0
  5 22  1  0  0  0  0
  6 23  1  0  0  0  0
  6 24  1  0  0  0  0
 10 25  1  0  0  0  0
 10 26  1  0  0  0  0
 13 27  1  0  0  0  0
 14 28  1  0  0  0  0
M  END
> <id>
EN300-6498501

> <smiles>
OCC1(CC2(C1)C(=O)O)OC32CCC3

> <MDLNUMBER>
MFCD31718806

> <IUPAC Name>
4-(hydroxymethyl)-3-oxaspiro[bicyclo[2.1.1]hexane-2,1'-cyclobutane]-1-carboxylic acid

> <CAS>
2490406-06-7

> <Purity>
95

> <URL>
https://www.enaminestore.com/catalog/EN300-6498501

> <ROCS_ShapeQuery>
x0446_0A_x1080_0A_x0929_0A_x0812_0A_x0719_0A_x1140_0A_x0528_0A_x0310_0A

> <ROCS_TanimotoCombo>
0.409 

> <ROCS_ShapeTanimoto>
0.206 

> <ROCS_ColorTanimoto>
0.203 

> <ROCS_RefTversky>
0.188 

> <ROCS_RefColorTversky>
0.239 

> <ROCS_RefTverskyCombo>
0.427 

> <ROCS_FitTversky>
1.823 

> <ROCS_FitColorTversky>
0.576 

> <ROCS_FitTverskyCombo>
2.399 

> <ROCS_ColorScore>
-8.619

> <ROCS_Overlap>
2219.325

> <ROCS_Rank>
500                 

$$$$
